REMARK  20 active torsions:
REMARK  status: ('A' for Active; 'I' for Inactive)
REMARK    1  A    between atoms: CA1_2  and  N1_1 
REMARK    2  A    between atoms: CB1_6  and  CA1_2 
REMARK    3  A    between atoms: CA1_2  and  C1_3 
REMARK    4  A    between atoms: CG1_7  and  CB1_6 
REMARK    5  A    between atoms: CD1_8  and  CG1_7 
REMARK       I    between atoms: N2_10  and  CD1_8 
REMARK    6  A    between atoms: CA2_11  and  N2_10 
REMARK    7  A    between atoms: CB2_14  and  CA2_11 
REMARK    8  A    between atoms: CA2_11  and  C2_12 
REMARK       I    between atoms: C2_12  and  N3_16 
REMARK    9  A    between atoms: SG2_15  and  CB2_14 
REMARK   10  A    between atoms: C11_33  and  SG2_15 
REMARK   11  A    between atoms: N3_16  and  CA3_17 
REMARK   12  A    between atoms: CA3_17  and  C3_18 
REMARK   13  A    between atoms: C1_21  and  O2_22 
REMARK   14  A    between atoms: O2_22  and  C12_34 
REMARK   15  A    between atoms: C7_28  and  C4_25 
REMARK   16  A    between atoms: C8_30  and  C7_28 
REMARK   17  A    between atoms: C11_33  and  C8_30 
REMARK   18  A    between atoms: C8_30  and  C9_31 
REMARK   19  A    between atoms: C9_31  and  C10_32 
REMARK   20  A    between atoms: C12_34  and  C13_35 
ROOT
ATOM      1  CB2 GSH d   1      10.203   5.355  27.553  0.00  0.00     0.004 C 
ATOM      2  H11 GSH d   1       9.248   4.839  27.375  0.00  0.00     0.052 H 
ATOM      3  H12 GSH d   1      10.548   5.146  28.576  0.00  0.00     0.052 H 
ENDROOT
BRANCH   1   4
ATOM      4  CA2 GSH d   1       9.972   6.870  27.416  0.00  0.00     0.097 C 
ATOM      5  H10 GSH d   1       9.286   7.069  26.579  0.00  0.00     0.088 H 
BRANCH   4   6
ATOM      6  N2  GSH d   1      11.247   7.534  27.175  0.00  0.00    -0.347 N 
ATOM      7  CD1 GSH d   1      11.578   8.022  25.987  0.00  0.00     0.218 C 
ATOM      8  OE1 GSH d   1      10.797   8.038  25.025  0.00  0.00    -0.274 OA
ATOM      9  H9  GSH d   1      11.895   7.625  27.932  0.00  0.00     0.163 HD
BRANCH   7  10
ATOM     10  CG1 GSH d   1      12.953   8.661  25.906  0.00  0.00     0.012 C 
ATOM     11  H7  GSH d   1      13.005   9.473  26.647  0.00  0.00     0.047 H 
ATOM     12  H8  GSH d   1      13.708   7.897  26.145  0.00  0.00     0.047 H 
BRANCH  10  13
ATOM     13  CB1 GSH d   1      13.269   9.240  24.530  0.00  0.00    -0.021 C 
ATOM     14  H5  GSH d   1      13.270   8.420  23.797  0.00  0.00     0.037 H 
ATOM     15  H6  GSH d   1      12.485   9.965  24.267  0.00  0.00     0.037 H 
BRANCH  13  16
ATOM     16  CA1 GSH d   1      14.620   9.944  24.471  0.00  0.00     0.183 C 
ATOM     17  H4  GSH d   1      14.728  10.585  25.358  0.00  0.00     0.101 H 
BRANCH  16  18
ATOM     18  N1  GSH d   1      14.709  10.782  23.252  0.00  0.00    -0.065 N 
ATOM     19  H1  GSH d   1      13.967  11.464  23.258  0.00  0.00     0.275 HD
ATOM     20  H2  GSH d   1      14.622  10.198  22.435  0.00  0.00     0.275 HD
ATOM     21  H3  GSH d   1      15.599  11.255  23.233  0.00  0.00     0.275 HD
ENDBRANCH  16  18
BRANCH  16  22
ATOM     22  C1  GSH d   1      15.748   8.912  24.456  0.00  0.00     0.204 C 
ATOM     23  O12 GSH d   1      16.313   8.642  23.367  0.00  0.00    -0.646 OA
ATOM     24  O11 GSH d   1      16.085   8.401  25.541  0.00  0.00    -0.646 OA
ENDBRANCH  16  22
ENDBRANCH  13  16
ENDBRANCH  10  13
ENDBRANCH   7  10
ENDBRANCH   4   6
BRANCH   4  25
ATOM     25  C2  GSH d   1       9.367   7.393  28.719  0.00  0.00     0.241 C 
ATOM     26  N3  GSH d   1       8.051   7.277  28.838  0.00  0.00    -0.349 N 
ATOM     27  H13 GSH d   1       7.516   6.902  28.081  0.00  0.00     0.163 HD
ATOM     28  O2  GSH d   1      10.085   7.888  29.591  0.00  0.00    -0.271 OA
BRANCH  26  29
ATOM     29  CA3 GSH d   1       7.382   7.690  30.058  0.00  0.00     0.075 C 
ATOM     30  H14 GSH d   1       8.086   7.561  30.893  0.00  0.00     0.080 H 
ATOM     31  H15 GSH d   1       6.511   7.035  30.208  0.00  0.00     0.080 H 
BRANCH  29  32
ATOM     32  C3  GSH d   1       6.900   9.118  30.069  0.00  0.00     0.191 C 
ATOM     33  O32 GSH d   1       7.395   9.927  29.254  0.00  0.00    -0.647 OA
ATOM     34  O31 GSH d   1       6.006   9.422  30.887  0.00  0.00    -0.647 OA
ENDBRANCH  29  32
ENDBRANCH  26  29
ENDBRANCH   4  25
ENDBRANCH   1   4
BRANCH   1  35
ATOM     35  SG2 GSH d   1      11.445   4.702  26.376  0.00  0.00    -0.166 SA
BRANCH  35  36
ATOM     36  C11 EAA d   1      10.673   5.025  24.773  0.00  0.00    -0.013 C 
ATOM     37  H24 GSH d   1      10.199   6.017  24.804  0.00  0.00     0.050 H 
ATOM     38  H25 GSH d   1      11.454   5.016  23.998  0.00  0.00     0.050 H 
BRANCH  36  39
ATOM     39  C8  EAA d   1       9.610   3.985  24.411  0.00  0.00     0.016 C 
ATOM     40  H18 GSH d   1       9.794   3.177  25.135  0.00  0.00     0.053 H 
BRANCH  39  41
ATOM     41  C7  EAA d   1       8.095   4.372  24.703  0.00  0.00     0.166 C 
ATOM     42  O1  EAA d   1       7.585   5.197  23.931  0.00  0.00    -0.292 OA
BRANCH  41  43
ATOM     43  C4  EAA d   1       7.323   3.776  25.899  0.00  0.00     0.034 A 
ATOM     44  C3  EAA d   1       7.888   2.804  26.805  0.00  0.00     0.072 A 
ATOM     45  C2  EAA d   1       7.126   2.310  27.876  0.00  0.00     0.090 A 
ATOM     46 CL2  EAA d   1       9.523   2.135  26.645  0.00  0.00    -0.081 Cl
ATOM     47  C1  EAA d   1       5.792   2.737  28.081  0.00  0.00     0.092 A 
ATOM     48 CL1  EAA d   1       7.876   1.145  28.984  0.00  0.00    -0.080 Cl
ATOM     49  C6  EAA d   1       5.243   3.689  27.199  0.00  0.00    -0.048 A 
ATOM     50  C5  EAA d   1       5.988   4.198  26.130  0.00  0.00    -0.065 A 
ATOM     51  H17 GSH d   1       4.226   4.033  27.351  0.00  0.00     0.087 H 
ATOM     52  H16 GSH d   1       5.538   4.928  25.467  0.00  0.00     0.085 H 
BRANCH  47  53
ATOM     53  O2  EAA d   1       5.105   2.179  29.165  0.00  0.00    -0.339 OA
BRANCH  53  54
ATOM     54  C12 EAA d   1       4.021   1.197  29.035  0.00  0.00     0.106 C 
ATOM     55  H26 GSH d   1       4.226   0.574  28.152  0.00  0.00     0.091 H 
ATOM     56  H27 GSH d   1       3.078   1.744  28.887  0.00  0.00     0.091 H 
BRANCH  54  57
ATOM     57  C13 EAA d   1       3.853   0.273  30.243  0.00  0.00     0.198 C 
ATOM     58  OXT EAA d   1       2.804   0.354  30.925  0.00  0.00    -0.646 OA
ATOM     59  O   EAA d   1       4.749  -0.572  30.486  0.00  0.00    -0.646 OA
ENDBRANCH  54  57
ENDBRANCH  53  54
ENDBRANCH  47  53
ENDBRANCH  41  43
ENDBRANCH  39  41
BRANCH  39  60
ATOM     60  C9  EAA d   1       9.877   3.313  23.052  0.00  0.00    -0.058 C 
ATOM     61  H19 GSH d   1       9.890   4.103  22.286  0.00  0.00     0.033 H 
ATOM     62  H20 GSH d   1       9.045   2.622  22.852  0.00  0.00     0.033 H 
BRANCH  60  63
ATOM     63  C10 EAA d   1      11.186   2.516  22.922  0.00  0.00    -0.076 C 
ATOM     64  H21 GSH d   1      11.256   2.089  21.911  0.00  0.00     0.027 H 
ATOM     65  H22 GSH d   1      11.196   1.704  23.664  0.00  0.00     0.027 H 
ATOM     66  H23 GSH d   1      12.041   3.185  23.098  0.00  0.00     0.027 H 
ENDBRANCH  60  63
ENDBRANCH  39  60
ENDBRANCH  36  39
ENDBRANCH  35  36
ENDBRANCH   1  35
TORSDOF 20
