REMARK  8 active torsions:
REMARK  status: ('A' for Active; 'I' for Inactive)
REMARK    1  A    between atoms: C1_1  and  N2_7 
REMARK    2  A    between atoms: N2_7  and  S1_8 
REMARK    3  A    between atoms: S1_8  and  C6_11 
REMARK    4  A    between atoms: C9_14  and  N3_17 
REMARK    5  A    between atoms: N3_17  and  N4_18 
REMARK    6  A    between atoms: N4_18  and  C12_19 
REMARK    7  A    between atoms: C14_21  and  C18_25 
REMARK    8  A    between atoms: C15_22  and  O3_26 
ROOT
ATOM      1  C6  SAS d   1       6.272   0.868  30.918  0.00  0.00     0.080 A 
ATOM      2  C7  SAS d   1       7.586   0.720  30.437  0.00  0.00    -0.058 A 
ATOM      3  C8  SAS d   1       7.978   1.399  29.267  0.00  0.00    -0.052 A 
ATOM      4  C9  SAS d   1       7.042   2.226  28.585  0.00  0.00     0.079 A 
ATOM      5  C10 SAS d   1       5.677   2.374  29.076  0.00  0.00    -0.052 A 
ATOM      6  C11 SAS d   1       5.294   1.684  30.254  0.00  0.00    -0.058 A 
ATOM      7  H6  SAS d   1       8.292   0.088  30.963  0.00  0.00     0.086 H 
ATOM      8  H7  SAS d   1       8.988   1.292  28.888  0.00  0.00     0.087 H 
ATOM      9  H8  SAS d   1       4.967   3.001  28.549  0.00  0.00     0.087 H 
ATOM     10  H9  SAS d   1       4.286   1.770  30.645  0.00  0.00     0.086 H 
ENDROOT
BRANCH   4  11
ATOM     11  N3  SAS d   1       7.533   2.807  27.584  0.00  0.00    -0.150 NA
BRANCH  11  12
ATOM     12  N4  SAS d   1       6.887   3.675  26.729  0.00  0.00    -0.150 NA
BRANCH  12  13
ATOM     13  C12 SAS d   1       7.276   4.313  25.704  0.00  0.00     0.080 A 
ATOM     14  C13 SAS d   1       8.621   4.295  25.227  0.00  0.00    -0.034 A 
ATOM     15  C14 SAS d   1       9.053   5.066  24.098  0.00  0.00     0.076 A 
ATOM     16  H10 SAS d   1       9.346   3.673  25.739  0.00  0.00     0.088 H 
ATOM     17  C15 SAS d   1       8.025   5.910  23.442  0.00  0.00     0.082 A 
ATOM     18  C16 SAS d   1       6.687   5.921  23.913  0.00  0.00    -0.048 A 
ATOM     19  C17 SAS d   1       6.315   5.135  25.033  0.00  0.00    -0.051 A 
ATOM     20  H11 SAS d   1       5.945   6.534  23.414  0.00  0.00     0.087 H 
ATOM     21  H12 SAS d   1       5.290   5.157  25.386  0.00  0.00     0.087 H 
BRANCH  15  22
ATOM     22  C18 SAS d   1      10.510   4.927  23.697  0.00  0.00     0.212 C 
ATOM     23  O4  SAS d   1      11.302   4.172  24.326  0.00  0.00    -0.644 OA
ATOM     24  O5  SAS d   1      10.954   5.579  22.726  0.00  0.00    -0.644 OA
ENDBRANCH  15  22
BRANCH  17  25
ATOM     25  O3  SAS d   1       8.198   6.758  22.365  0.00  0.00    -0.360 OA
ATOM     26  H13 SAS d   1       9.103   6.724  22.078  0.00  0.00     0.217 HD
ENDBRANCH  17  25
ENDBRANCH  12  13
ENDBRANCH  11  12
ENDBRANCH   4  11
BRANCH   1  27
ATOM     27  S1  SAS d   1       5.829   0.115  32.416  0.00  0.00     0.264 S 
ATOM     28  O1  SAS d   1       7.023  -0.003  33.496  0.00  0.00    -0.200 OA
ATOM     29  O2  SAS d   1       4.566   0.899  32.965  0.00  0.00    -0.200 OA
BRANCH  27  30
ATOM     30  N2  SAS d   1       5.211  -1.421  32.192  0.00  0.00    -0.264 N 
ATOM     31  H5  SAS d   1       4.229  -1.522  32.354  0.00  0.00     0.180 HD
BRANCH  30  32
ATOM     32  C1  SAS d   1       5.867  -2.554  31.818  0.00  0.00     0.136 A 
ATOM     33  C2  SAS d   1       7.180  -2.785  32.314  0.00  0.00    -0.038 A 
ATOM     34  C3  SAS d   1       7.802  -3.949  31.879  0.00  0.00    -0.078 A 
ATOM     35  H1  SAS d   1       7.667  -2.093  32.992  0.00  0.00     0.089 H 
ATOM     36  C4  SAS d   1       7.133  -4.819  30.994  0.00  0.00    -0.066 A 
ATOM     37  H2  SAS d   1       8.803  -4.188  32.221  0.00  0.00     0.083 H 
ATOM     38  C5  SAS d   1       5.813  -4.536  30.533  0.00  0.00     0.004 A 
ATOM     39  H3  SAS d   1       7.631  -5.721  30.657  0.00  0.00     0.085 H 
ATOM     40  N1  SAS d   1       5.238  -3.405  30.967  0.00  0.00    -0.243 NA
ATOM     41  H4  SAS d   1       5.295  -5.208  29.859  0.00  0.00     0.114 H 
ENDBRANCH  30  32
ENDBRANCH  27  30
ENDBRANCH   1  27
TORSDOF 8
