REMARK  20 active torsions:
REMARK  status: ('A' for Active; 'I' for Inactive)
REMARK    1  A    between atoms: C_37  and  CH3_39 
REMARK       I    between atoms: N_40  and  C_37 
REMARK    2  A    between atoms: CA_41  and  N_40 
REMARK    3  A    between atoms: CA_41  and  CB_44 
REMARK    4  A    between atoms: C_42  and  CA_41 
REMARK       I    between atoms: N_52  and  C_42 
REMARK    5  A    between atoms: CB_44  and  CG_45 
REMARK    6  A    between atoms: CA_53  and  N_52 
REMARK    7  A    between atoms: C_54  and  CA_53 
REMARK    8  A    between atoms: CA_53  and  CB_56 
REMARK       I    between atoms: C_54  and  N_62 
REMARK    9  A    between atoms: CB_56  and  CG_57 
REMARK   10  A    between atoms: CG_57  and  CD_58 
REMARK   11  A    between atoms: N_62  and  C1'_68 
REMARK   12  A    between atoms: N_62  and  C1_63 
REMARK   13  A    between atoms: C1_63  and  C2_64 
REMARK   14  A    between atoms: C2_64  and  C3_65 
REMARK   15  A    between atoms: C3_65  and  C4_66 
REMARK   16  A    between atoms: C4_66  and  C5_67 
REMARK   17  A    between atoms: C1'_68  and  C2'_69 
REMARK   18  A    between atoms: C2'_69  and  C3'_70 
REMARK   19  A    between atoms: C3'_70  and  C4'_71 
REMARK   20  A    between atoms: C4'_71  and  C5'_72 
ROOT
ATOM      1  H14 GLU d   1      44.239  -8.975  43.245  0.00  0.00     0.087 H 
ATOM      2  CA  GLU d   1      43.532  -8.132  43.242  0.00  0.00     0.090 C 
ENDROOT
BRANCH   2   3
ATOM      3  C   GLU d   1      42.222  -8.559  43.892  0.00  0.00     0.242 C 
ATOM      4  O   GLU d   1      41.170  -8.120  43.408  0.00  0.00    -0.271 OA
ATOM      5  N   DIP d   1      42.175  -9.392  44.965  0.00  0.00    -0.350 N 
BRANCH   5   6
ATOM      6  C1' DIP d   1      40.927  -9.598  45.695  0.00  0.00    -0.002 C 
ATOM      7  H30 DIP d   1      40.736 -10.674  45.822  0.00  0.00     0.064 H 
ATOM      8  H31 DIP d   1      40.089  -9.138  45.150  0.00  0.00     0.064 H 
BRANCH   6   9
ATOM      9  C2' DIP d   1      41.095  -8.938  47.043  0.00  0.00    -0.050 C 
ATOM     10  H32 DIP d   1      42.080  -9.217  47.445  0.00  0.00     0.035 H 
ATOM     11  H33 DIP d   1      40.306  -9.312  47.713  0.00  0.00     0.035 H 
BRANCH   9  12
ATOM     12  C3' DIP d   1      41.008  -7.433  47.000  0.00  0.00    -0.064 C 
ATOM     13  H34 DIP d   1      40.034  -7.117  46.599  0.00  0.00     0.033 H 
ATOM     14  H35 DIP d   1      41.813  -7.021  46.374  0.00  0.00     0.033 H 
BRANCH  12  15
ATOM     15  C4' DIP d   1      41.162  -6.971  48.419  0.00  0.00    -0.068 C 
ATOM     16  H36 DIP d   1      42.111  -7.351  48.824  0.00  0.00     0.032 H 
ATOM     17  H37 DIP d   1      40.326  -7.358  49.020  0.00  0.00     0.032 H 
BRANCH  15  18
ATOM     18  C5' DIP d   1      41.163  -5.448  48.479  0.00  0.00    -0.077 C 
ATOM     19  H38 DIP d   1      41.276  -5.122  49.523  0.00  0.00     0.027 H 
ATOM     20  H39 DIP d   1      40.214  -5.064  48.076  0.00  0.00     0.027 H 
ATOM     21  H40 DIP d   1      41.999  -5.058  47.880  0.00  0.00     0.027 H 
ENDBRANCH  15  18
ENDBRANCH  12  15
ENDBRANCH   9  12
ENDBRANCH   6   9
ENDBRANCH   5   6
BRANCH   5  22
ATOM     22  C1  DIP d   1      43.359 -10.085  45.458  0.00  0.00    -0.002 C 
ATOM     23  H19 DIP d   1      43.291 -10.279  46.539  0.00  0.00     0.064 H 
ATOM     24  H20 DIP d   1      44.276  -9.516  45.245  0.00  0.00     0.064 H 
BRANCH  22  25
ATOM     25  C2  DIP d   1      43.309 -11.370  44.662  0.00  0.00    -0.050 C 
ATOM     26  H21 DIP d   1      43.016 -11.140  43.627  0.00  0.00     0.035 H 
ATOM     27  H22 DIP d   1      42.565 -12.043  45.113  0.00  0.00     0.035 H 
BRANCH  25  28
ATOM     28  C3  DIP d   1      44.640 -12.051  44.653  0.00  0.00    -0.064 C 
ATOM     29  H23 DIP d   1      44.791 -12.677  45.545  0.00  0.00     0.033 H 
ATOM     30  H24 DIP d   1      45.470 -11.335  44.563  0.00  0.00     0.033 H 
BRANCH  28  31
ATOM     31  C4  DIP d   1      44.466 -12.877  43.405  0.00  0.00    -0.068 C 
ATOM     32  H25 DIP d   1      44.323 -12.197  42.552  0.00  0.00     0.032 H 
ATOM     33  H26 DIP d   1      43.573 -13.508  43.525  0.00  0.00     0.032 H 
BRANCH  31  34
ATOM     34  C5  DIP d   1      45.674 -13.788  43.109  0.00  0.00    -0.077 C 
ATOM     35  H27 DIP d   1      45.484 -14.361  42.190  0.00  0.00     0.027 H 
ATOM     36  H28 DIP d   1      45.825 -14.482  43.949  0.00  0.00     0.027 H 
ATOM     37  H29 DIP d   1      46.575 -13.171  42.977  0.00  0.00     0.027 H 
ENDBRANCH  31  34
ENDBRANCH  28  31
ENDBRANCH  25  28
ENDBRANCH  22  25
ENDBRANCH   5  22
ENDBRANCH   2   3
BRANCH   2  38
ATOM     38  CB  GLU d   1      44.130  -6.969  43.991  0.00  0.00    -0.029 C 
ATOM     39  H15 GLU d   1      44.386  -7.298  45.009  0.00  0.00     0.037 H 
ATOM     40  H16 GLU d   1      43.385  -6.161  44.043  0.00  0.00     0.037 H 
BRANCH  38  41
ATOM     41  CG  GLU d   1      45.375  -6.438  43.325  0.00  0.00     0.018 C 
ATOM     42  H17 GLU d   1      45.685  -5.531  43.864  0.00  0.00     0.049 H 
ATOM     43  H18 GLU d   1      45.118  -6.178  42.287  0.00  0.00     0.049 H 
BRANCH  41  44
ATOM     44  CD  GLU d   1      46.562  -7.388  43.288  0.00  0.00     0.172 C 
ATOM     45  OE1 GLU d   1      46.935  -7.921  44.335  0.00  0.00    -0.648 OA
ATOM     46  OE2 GLU d   1      47.152  -7.539  42.218  0.00  0.00    -0.648 OA
ENDBRANCH  41  44
ENDBRANCH  38  41
ENDBRANCH   2  38
BRANCH   2  47
ATOM     47  N   GLU d   1      43.261  -7.727  41.896  0.00  0.00    -0.346 N 
ATOM     48  H13 GLU d   1      43.247  -6.751  41.680  0.00  0.00     0.163 HD
ATOM     49  C   PTR d   1      43.031  -8.587  40.938  0.00  0.00     0.241 C 
ATOM     50  O   PTR d   1      42.984  -9.830  41.035  0.00  0.00    -0.271 OA
BRANCH  49  51
ATOM     51  CA  PTR d   1      42.718  -7.855  39.652  0.00  0.00     0.093 C 
ATOM     52  H5  PTR d   1      43.173  -6.854  39.666  0.00  0.00     0.088 H 
BRANCH  51  53
ATOM     53  N   PTR d   1      43.245  -8.602  38.529  0.00  0.00    -0.348 N 
ATOM     54  H4  PTR d   1      42.826  -9.489  38.334  0.00  0.00     0.163 HD
ATOM     55  C   ACE d   1      44.237  -8.212  37.735  0.00  0.00     0.214 C 
ATOM     56  O   ACE d   1      44.733  -7.088  37.682  0.00  0.00    -0.274 OA
BRANCH  55  57
ATOM     57  CH3 ACE d   1      44.563  -9.231  36.660  0.00  0.00    -0.003 C 
ATOM     58  H1  ACE d   1      44.032 -10.171  36.873  0.00  0.00     0.040 H 
ATOM     59  H2  ACE d   1      45.647  -9.417  36.648  0.00  0.00     0.040 H 
ATOM     60  H3  ACE d   1      44.246  -8.844  35.680  0.00  0.00     0.040 H 
ENDBRANCH  55  57
ENDBRANCH  51  53
BRANCH  51  61
ATOM     61  CB  PTR d   1      41.223  -7.733  39.577  0.00  0.00    -0.014 C 
ATOM     62  H6  PTR d   1      40.868  -7.158  40.445  0.00  0.00     0.043 H 
ATOM     63  H7  PTR d   1      40.781  -8.740  39.598  0.00  0.00     0.043 H 
BRANCH  61  64
ATOM     64  CG  PTR d   1      40.787  -7.035  38.317  0.00  0.00    -0.056 A 
ATOM     65  CD2 PTR d   1      40.954  -5.682  38.171  0.00  0.00    -0.077 A 
ATOM     66  H9  PTR d   1      41.464  -5.123  38.947  0.00  0.00     0.084 H 
ATOM     67  CE2 PTR d   1      40.490  -5.023  37.066  0.00  0.00    -0.082 A 
ATOM     68  H11 PTR d   1      40.637  -3.954  36.961  0.00  0.00     0.083 H 
ATOM     69  CZ  PTR d   1      39.838  -5.731  36.096  0.00  0.00    -0.083 A 
ATOM     70  H12 PTR d   1      39.444  -5.213  35.230  0.00  0.00     0.083 H 
ATOM     71  CE1 PTR d   1      39.675  -7.098  36.205  0.00  0.00    -0.082 A 
ATOM     72  H10 PTR d   1      39.176  -7.655  35.420  0.00  0.00     0.083 H 
ATOM     73  CD1 PTR d   1      40.155  -7.746  37.325  0.00  0.00    -0.077 A 
ATOM     74  H8  PTR d   1      40.033  -8.819  37.423  0.00  0.00     0.084 H 
ENDBRANCH  61  64
ENDBRANCH  51  61
ENDBRANCH  49  51
ENDBRANCH   2  47
TORSDOF 20
