REMARK  22 active torsions:
REMARK  status: ('A' for Active; 'I' for Inactive)
REMARK    1  A    between atoms: C_1  and  CH3_3 
REMARK       I    between atoms: N_4  and  C_1 
REMARK    2  A    between atoms: CA_5  and  N_4 
REMARK    3  A    between atoms: C_6  and  CA_5 
REMARK    4  A    between atoms: CA_5  and  CB_8 
REMARK       I    between atoms: C_6  and  N_23 
REMARK    5  A    between atoms: CB_8  and  CG_9 
REMARK    6  A    between atoms: CZ_14  and  C1_15 
REMARK    7  A    between atoms: C1_15  and  P_18 
REMARK    8  A    between atoms: N_23  and  CA_24 
REMARK    9  A    between atoms: CA_24  and  CB_27 
REMARK   10  A    between atoms: CA_24  and  C_25 
REMARK       I    between atoms: C_25  and  N_33 
REMARK   11  A    between atoms: CB_27  and  CG_28 
REMARK   12  A    between atoms: CG_28  and  CD_29 
REMARK   13  A    between atoms: N_33  and  C1_34 
REMARK   14  A    between atoms: N_33  and  C1'_39 
REMARK   15  A    between atoms: C1_34  and  C2_35 
REMARK   16  A    between atoms: C2_35  and  C3_36 
REMARK   17  A    between atoms: C3_36  and  C4_37 
REMARK   18  A    between atoms: C4_37  and  C5_38 
REMARK   19  A    between atoms: C1'_39  and  C2'_40 
REMARK   20  A    between atoms: C2'_40  and  C3'_41 
REMARK   21  A    between atoms: C3'_41  and  C4'_42 
REMARK   22  A    between atoms: C4'_42  and  C5'_43 
ROOT
ATOM      1  CA  GLU d   1      38.741   8.062  19.674  0.00  0.00     0.090 C 
ATOM      2  H13 GLU d   1      37.968   7.474  20.190  0.00  0.00     0.087 H 
ENDROOT
BRANCH   1   3
ATOM      3  N   GLU d   1      39.853   8.264  20.562  0.00  0.00    -0.346 N 
ATOM      4  C   FTY d   1      40.236   7.389  21.460  0.00  0.00     0.241 C 
ATOM      5  O   FTY d   1      39.705   6.296  21.676  0.00  0.00    -0.271 OA
ATOM      6  H12 GLU d   1      40.364   9.121  20.491  0.00  0.00     0.163 HD
BRANCH   4   7
ATOM      7  CA  FTY d   1      41.464   7.847  22.229  0.00  0.00     0.093 C 
ATOM      8  H5  FTY d   1      41.346   8.917  22.455  0.00  0.00     0.088 H 
BRANCH   7   9
ATOM      9  N   FTY d   1      41.611   7.121  23.475  0.00  0.00    -0.348 N 
ATOM     10  C   ACE d   1      41.333   7.641  24.671  0.00  0.00     0.214 C 
ATOM     11  O   ACE d   1      41.037   8.826  24.923  0.00  0.00    -0.274 OA
ATOM     12  H4  FTY d   1      41.939   6.177  23.435  0.00  0.00     0.163 HD
BRANCH  10  13
ATOM     13  CH3 ACE d   1      41.594   6.614  25.762  0.00  0.00    -0.003 C 
ATOM     14  H1  ACE d   1      41.835   5.644  25.302  0.00  0.00     0.040 H 
ATOM     15  H2  ACE d   1      40.697   6.509  26.389  0.00  0.00     0.040 H 
ATOM     16  H3  ACE d   1      42.439   6.946  26.383  0.00  0.00     0.040 H 
ENDBRANCH  10  13
ENDBRANCH   7   9
BRANCH   7  17
ATOM     17  CB  FTY d   1      42.750   7.655  21.404  0.00  0.00    -0.014 C 
ATOM     18  H6  FTY d   1      42.692   8.279  20.500  0.00  0.00     0.043 H 
ATOM     19  H7  FTY d   1      42.835   6.597  21.114  0.00  0.00     0.043 H 
BRANCH  17  20
ATOM     20  CG  FTY d   1      43.984   8.051  22.201  0.00  0.00    -0.056 A 
ATOM     21  CD1 FTY d   1      44.709   7.145  23.007  0.00  0.00    -0.076 A 
ATOM     22  CE1 FTY d   1      45.831   7.536  23.722  0.00  0.00    -0.070 A 
ATOM     23  H8  FTY d   1      44.379   6.114  23.068  0.00  0.00     0.084 H 
ATOM     24  CZ  FTY d   1      46.227   8.861  23.610  0.00  0.00     0.027 A 
ATOM     25  H10 FTY d   1      46.377   6.835  24.343  0.00  0.00     0.084 H 
ATOM     26  CE2 FTY d   1      45.494   9.732  22.814  0.00  0.00    -0.070 A 
ATOM     27  CD2 FTY d   1      44.387   9.344  22.114  0.00  0.00    -0.076 A 
ATOM     28  H11 FTY d   1      45.815  10.765  22.745  0.00  0.00     0.084 H 
ATOM     29  H9  FTY d   1      43.842  10.054  21.502  0.00  0.00     0.084 H 
BRANCH  24  30
ATOM     30  C1  FTY d   1      47.487   9.435  24.298  0.00  0.00     0.380 C 
ATOM     31  F1  FTY d   1      48.609   8.619  24.111  0.00  0.00    -0.185 F 
ATOM     32  F2  FTY d   1      47.894  10.498  23.471  0.00  0.00    -0.185 F 
BRANCH  30  33
ATOM     33  P   FTY d   1      47.477   9.879  26.092  0.00  0.00     0.339 P 
ATOM     34  O1P FTY d   1      48.770  10.543  26.256  0.00  0.00    -0.635 OA
ATOM     35  O2P FTY d   1      47.456   8.556  26.738  0.00  0.00    -0.635 OA
ATOM     36  O3P FTY d   1      46.249  10.728  26.234  0.00  0.00    -0.635 OA
ENDBRANCH  30  33
ENDBRANCH  24  30
ENDBRANCH  17  20
ENDBRANCH   7  17
ENDBRANCH   4   7
ENDBRANCH   1   3
BRANCH   1  37
ATOM     37  CB  GLU d   1      38.190   9.390  19.305  0.00  0.00    -0.029 C 
ATOM     38  H14 GLU d   1      37.382   9.233  18.575  0.00  0.00     0.037 H 
ATOM     39  H15 GLU d   1      38.996   9.976  18.839  0.00  0.00     0.037 H 
BRANCH  37  40
ATOM     40  CG  GLU d   1      37.629  10.198  20.459  0.00  0.00     0.018 C 
ATOM     41  H16 GLU d   1      37.332  11.187  20.079  0.00  0.00     0.049 H 
ATOM     42  H17 GLU d   1      38.418  10.317  21.216  0.00  0.00     0.049 H 
BRANCH  40  43
ATOM     43  CD  GLU d   1      36.423   9.556  21.120  0.00  0.00     0.172 C 
ATOM     44  OE2 GLU d   1      36.415   9.471  22.347  0.00  0.00    -0.648 OA
ATOM     45  OE1 GLU d   1      35.487   9.180  20.400  0.00  0.00    -0.648 OA
ENDBRANCH  40  43
ENDBRANCH  37  40
ENDBRANCH   1  37
BRANCH   1  46
ATOM     46  C   GLU d   1      39.175   7.311  18.407  0.00  0.00     0.242 C 
ATOM     47  O   GLU d   1      40.362   7.449  18.094  0.00  0.00    -0.271 OA
ATOM     48  N   DIP d   1      38.340   6.458  17.692  0.00  0.00    -0.350 N 
BRANCH  48  49
ATOM     49  C1  DIP d   1      37.033   6.069  18.219  0.00  0.00    -0.002 C 
ATOM     50  H18 DIP d   1      36.407   5.628  17.429  0.00  0.00     0.064 H 
ATOM     51  H19 DIP d   1      36.514   6.934  18.657  0.00  0.00     0.064 H 
BRANCH  49  52
ATOM     52  C2  DIP d   1      37.368   5.029  19.296  0.00  0.00    -0.050 C 
ATOM     53  H20 DIP d   1      38.242   5.384  19.861  0.00  0.00     0.035 H 
ATOM     54  H21 DIP d   1      37.615   4.080  18.797  0.00  0.00     0.035 H 
BRANCH  52  55
ATOM     55  C3  DIP d   1      36.246   4.776  20.268  0.00  0.00    -0.064 C 
ATOM     56  H22 DIP d   1      35.833   5.747  20.578  0.00  0.00     0.033 H 
ATOM     57  H23 DIP d   1      36.660   4.258  21.145  0.00  0.00     0.033 H 
BRANCH  55  58
ATOM     58  C4  DIP d   1      35.122   3.940  19.713  0.00  0.00    -0.068 C 
ATOM     59  H24 DIP d   1      35.150   3.986  18.614  0.00  0.00     0.032 H 
ATOM     60  H25 DIP d   1      34.164   4.343  20.073  0.00  0.00     0.032 H 
BRANCH  58  61
ATOM     61  C5  DIP d   1      35.246   2.461  20.159  0.00  0.00    -0.077 C 
ATOM     62  H26 DIP d   1      34.412   1.880  19.738  0.00  0.00     0.027 H 
ATOM     63  H27 DIP d   1      35.214   2.405  21.257  0.00  0.00     0.027 H 
ATOM     64  H28 DIP d   1      36.200   2.048  19.799  0.00  0.00     0.027 H 
ENDBRANCH  58  61
ENDBRANCH  55  58
ENDBRANCH  52  55
ENDBRANCH  49  52
ENDBRANCH  48  49
BRANCH  48  65
ATOM     65  C1' DIP d   1      38.684   5.969  16.367  0.00  0.00    -0.002 C 
ATOM     66  H29 DIP d   1      38.476   4.891  16.304  0.00  0.00     0.064 H 
ATOM     67  H30 DIP d   1      39.751   6.149  16.171  0.00  0.00     0.064 H 
BRANCH  65  68
ATOM     68  C2' DIP d   1      37.828   6.726  15.326  0.00  0.00    -0.050 C 
ATOM     69  H31 DIP d   1      36.784   6.746  15.671  0.00  0.00     0.035 H 
ATOM     70  H32 DIP d   1      37.886   6.195  14.364  0.00  0.00     0.035 H 
BRANCH  68  71
ATOM     71  C3' DIP d   1      38.326   8.208  15.121  0.00  0.00    -0.064 C 
ATOM     72  H33 DIP d   1      39.411   8.163  14.944  0.00  0.00     0.033 H 
ATOM     73  H34 DIP d   1      38.130   8.748  16.059  0.00  0.00     0.033 H 
BRANCH  71  74
ATOM     74  C4' DIP d   1      37.708   9.052  13.969  0.00  0.00    -0.068 C 
ATOM     75  H35 DIP d   1      36.681   9.347  14.232  0.00  0.00     0.032 H 
ATOM     76  H36 DIP d   1      37.694   8.462  13.041  0.00  0.00     0.032 H 
BRANCH  74  77
ATOM     77  C5' DIP d   1      38.580  10.312  13.774  0.00  0.00    -0.077 C 
ATOM     78  H37 DIP d   1      38.161  10.926  12.963  0.00  0.00     0.027 H 
ATOM     79  H38 DIP d   1      39.606  10.011  13.515  0.00  0.00     0.027 H 
ATOM     80  H39 DIP d   1      38.594  10.896  14.706  0.00  0.00     0.027 H 
ENDBRANCH  74  77
ENDBRANCH  71  74
ENDBRANCH  68  71
ENDBRANCH  65  68
ENDBRANCH  48  65
ENDBRANCH   1  46
TORSDOF 22
