REMARK  11 active torsions:
REMARK  status: ('A' for Active; 'I' for Inactive)
REMARK    1  A    between atoms: C1_4  and  P_26 
REMARK    2  A    between atoms: C1_4  and  N1_25 
REMARK    3  A    between atoms: C1_4  and  C2_5 
REMARK    4  A    between atoms: C2_5  and  C3_6 
REMARK    5  A    between atoms: C3_6  and  C4_7 
REMARK    6  A    between atoms: C4_7  and  C5_8 
REMARK    7  A    between atoms: O3P_21  and  C11_14 
REMARK       I    between atoms: N1_25  and  C12_15 
REMARK    8  A    between atoms: C12_15  and  C14_17 
REMARK    9  A    between atoms: C14_17  and  C13_16 
REMARK   10  A    between atoms: C13_16  and  C15_18 
REMARK   11  A    between atoms: P_26  and  O3P_21 
ROOT
ATOM      1  H1  HEP d   1      14.125  20.088  59.810  0.00  0.00     0.093 H 
ATOM      2  C1  HEP d   1      13.305  20.700  59.405  0.00  0.00     0.113 C 
ENDROOT
BRANCH   2   3
ATOM      3  P   HEP d   1      13.984  22.021  58.499  0.00  0.00     0.278 P 
ATOM      4  O1P HEP d   1      12.999  22.510  57.513  0.00  0.00    -0.645 OA
ATOM      5  O2P HEP d   1      14.579  22.964  59.471  0.00  0.00    -0.645 OA
BRANCH   3   6
ATOM      6  O3P HEP d   1      15.175  21.222  57.750  0.00  0.00    -0.268 OA
BRANCH   6   7
ATOM      7  C11 HEP d   1      15.562  21.420  56.389  0.00  0.00     0.079 A 
ATOM      8  C10 HEP d   1      16.799  21.998  56.094  0.00  0.00    -0.050 A 
ATOM      9  C9  HEP d   1      17.211  22.140  54.770  0.00  0.00    -0.080 A 
ATOM     10  H15 HEP d   1      17.441  22.338  56.898  0.00  0.00     0.087 H 
ATOM     11  C8  HEP d   1      16.384  21.710  53.741  0.00  0.00    -0.083 A 
ATOM     12  H14 HEP d   1      18.174  22.584  54.544  0.00  0.00     0.083 H 
ATOM     13  C7  HEP d   1      15.148  21.138  54.025  0.00  0.00    -0.080 A 
ATOM     14  H13 HEP d   1      16.703  21.820  52.711  0.00  0.00     0.083 H 
ATOM     15  C6  HEP d   1      14.735  20.992  55.347  0.00  0.00    -0.050 A 
ATOM     16  H12 HEP d   1      14.506  20.806  53.217  0.00  0.00     0.083 H 
ATOM     17  H11 HEP d   1      13.772  20.546  55.568  0.00  0.00     0.087 H 
ENDBRANCH   6   7
ENDBRANCH   3   6
ENDBRANCH   2   3
BRANCH   2  18
ATOM     18  N1  HEP d   1      12.483  21.182  60.518  0.00  0.00    -0.345 N 
ATOM     19  C12 HEP d   1      12.798  20.933  61.805  0.00  0.00     0.218 C 
ATOM     20  O4  HEP d   1      13.762  20.230  62.121  0.00  0.00    -0.274 OA
ATOM     21  H20 HEP d   1      11.661  21.714  60.316  0.00  0.00     0.163 HD
BRANCH  19  22
ATOM     22  C14 HEP d   1      11.861  21.497  62.870  0.00  0.00     0.018 C 
ATOM     23  H18 HEP d   1      10.856  21.566  62.428  0.00  0.00     0.047 H 
ATOM     24  H19 HEP d   1      12.217  22.505  63.129  0.00  0.00     0.047 H 
BRANCH  22  25
ATOM     25  C13 HEP d   1      11.743  20.696  64.174  0.00  0.00     0.024 C 
ATOM     26  H16 HEP d   1      11.103  21.265  64.865  0.00  0.00     0.049 H 
ATOM     27  H17 HEP d   1      12.751  20.598  64.604  0.00  0.00     0.049 H 
BRANCH  25  28
ATOM     28  C15 HEP d   1      11.153  19.293  64.035  0.00  0.00     0.172 C 
ATOM     29  O5  HEP d   1      11.938  18.345  64.018  0.00  0.00    -0.648 OA
ATOM     30  O6  HEP d   1       9.963  19.134  64.311  0.00  0.00    -0.648 OA
ENDBRANCH  25  28
ENDBRANCH  22  25
ENDBRANCH  19  22
ENDBRANCH   2  18
BRANCH   2  31
ATOM     31  C2  HEP d   1      12.452  19.842  58.470  0.00  0.00    -0.035 C 
ATOM     32  H2  HEP d   1      13.035  19.616  57.565  0.00  0.00     0.036 H 
ATOM     33  H3  HEP d   1      11.550  20.407  58.194  0.00  0.00     0.036 H 
BRANCH  31  34
ATOM     34  C3  HEP d   1      12.032  18.534  59.124  0.00  0.00    -0.063 C 
ATOM     35  H4  HEP d   1      11.405  18.764  59.998  0.00  0.00     0.033 H 
ATOM     36  H5  HEP d   1      12.936  17.999  59.452  0.00  0.00     0.033 H 
BRANCH  34  37
ATOM     37  C4  HEP d   1      11.247  17.631  58.188  0.00  0.00    -0.068 C 
ATOM     38  H6  HEP d   1      10.402  18.201  57.773  0.00  0.00     0.032 H 
ATOM     39  H7  HEP d   1      10.864  16.774  58.762  0.00  0.00     0.032 H 
BRANCH  37  40
ATOM     40  C5  HEP d   1      12.107  17.104  57.026  0.00  0.00    -0.077 C 
ATOM     41  H8  HEP d   1      11.494  16.458  56.380  0.00  0.00     0.027 H 
ATOM     42  H9  HEP d   1      12.952  16.525  57.428  0.00  0.00     0.027 H 
ATOM     43  H10 HEP d   1      12.490  17.952  56.439  0.00  0.00     0.027 H 
ENDBRANCH  37  40
ENDBRANCH  34  37
ENDBRANCH  31  34
ENDBRANCH   2  31
TORSDOF 11
