REMARK  22 active torsions:
REMARK  status: ('A' for Active; 'I' for Inactive)
REMARK    1  A    between atoms: C_38  and  CH3_40 
REMARK       I    between atoms: N_41  and  C_38 
REMARK    2  A    between atoms: CA_42  and  N_41 
REMARK    3  A    between atoms: CA_42  and  CB_45 
REMARK    4  A    between atoms: C_43  and  CA_42 
REMARK       I    between atoms: N_58  and  C_43 
REMARK    5  A    between atoms: CB_45  and  CG_46 
REMARK    6  A    between atoms: CZ_51  and  OH_52 
REMARK    7  A    between atoms: OH_52  and  P_53 
REMARK    8  A    between atoms: CA_59  and  N_58 
REMARK    9  A    between atoms: C_60  and  CA_59 
REMARK   10  A    between atoms: CA_59  and  CB_62 
REMARK       I    between atoms: C_60  and  N_68 
REMARK   11  A    between atoms: CB_62  and  CG_63 
REMARK   12  A    between atoms: CG_63  and  CD_64 
REMARK   13  A    between atoms: N_68  and  C1'_74 
REMARK   14  A    between atoms: N_68  and  C1_69 
REMARK   15  A    between atoms: C1_69  and  C2_70 
REMARK   16  A    between atoms: C2_70  and  C3_71 
REMARK   17  A    between atoms: C3_71  and  C4_72 
REMARK   18  A    between atoms: C4_72  and  C5_73 
REMARK   19  A    between atoms: C1'_74  and  C2'_75 
REMARK   20  A    between atoms: C2'_75  and  C3'_76 
REMARK   21  A    between atoms: C3'_76  and  C4'_77 
REMARK   22  A    between atoms: C4'_77  and  C5'_78 
ROOT
ATOM      1  H13 GLU d   1      44.219  -8.662  42.989  0.00  0.00     0.087 H 
ATOM      2  CA  GLU d   1      43.487  -7.845  43.063  0.00  0.00     0.090 C 
ENDROOT
BRANCH   2   3
ATOM      3  C   GLU d   1      42.229  -8.370  43.789  0.00  0.00     0.242 C 
ATOM      4  O   GLU d   1      41.110  -7.985  43.411  0.00  0.00    -0.271 OA
ATOM      5  N   DIP d   1      42.265  -9.225  44.829  0.00  0.00    -0.350 N 
BRANCH   5   6
ATOM      6  C1' DIP d   1      41.024  -9.428  45.594  0.00  0.00    -0.002 C 
ATOM      7  H29 DIP d   1      40.832 -10.505  45.710  0.00  0.00     0.064 H 
ATOM      8  H30 DIP d   1      40.181  -8.961  45.064  0.00  0.00     0.064 H 
BRANCH   6   9
ATOM      9  C2' DIP d   1      41.189  -8.777  46.982  0.00  0.00    -0.050 C 
ATOM     10  H31 DIP d   1      42.199  -9.015  47.347  0.00  0.00     0.035 H 
ATOM     11  H32 DIP d   1      40.441  -9.224  47.654  0.00  0.00     0.035 H 
BRANCH   9  12
ATOM     12  C3' DIP d   1      41.017  -7.249  47.037  0.00  0.00    -0.064 C 
ATOM     13  H33 DIP d   1      39.959  -6.974  46.919  0.00  0.00     0.033 H 
ATOM     14  H34 DIP d   1      41.612  -6.764  46.250  0.00  0.00     0.033 H 
BRANCH  12  15
ATOM     15  C4' DIP d   1      41.518  -6.854  48.399  0.00  0.00    -0.068 C 
ATOM     16  H35 DIP d   1      42.532  -7.253  48.550  0.00  0.00     0.032 H 
ATOM     17  H36 DIP d   1      40.847  -7.258  49.171  0.00  0.00     0.032 H 
BRANCH  15  18
ATOM     18  C5' DIP d   1      41.547  -5.345  48.491  0.00  0.00    -0.077 C 
ATOM     19  H37 DIP d   1      41.912  -5.045  49.484  0.00  0.00     0.027 H 
ATOM     20  H38 DIP d   1      40.532  -4.949  48.339  0.00  0.00     0.027 H 
ATOM     21  H39 DIP d   1      42.218  -4.943  47.717  0.00  0.00     0.027 H 
ENDBRANCH  15  18
ENDBRANCH  12  15
ENDBRANCH   9  12
ENDBRANCH   6   9
ENDBRANCH   5   6
BRANCH   5  22
ATOM     22  C1  DIP d   1      43.499  -9.906  45.239  0.00  0.00    -0.002 C 
ATOM     23  H18 DIP d   1      43.433 -10.258  46.279  0.00  0.00     0.064 H 
ATOM     24  H19 DIP d   1      44.373  -9.247  45.130  0.00  0.00     0.064 H 
BRANCH  22  25
ATOM     25  C2  DIP d   1      43.563 -11.069  44.268  0.00  0.00    -0.050 C 
ATOM     26  H20 DIP d   1      43.744 -10.688  43.252  0.00  0.00     0.035 H 
ATOM     27  H21 DIP d   1      42.609 -11.617  44.290  0.00  0.00     0.035 H 
BRANCH  25  28
ATOM     28  C3  DIP d   1      44.680 -11.995  44.660  0.00  0.00    -0.064 C 
ATOM     29  H22 DIP d   1      44.332 -12.694  45.435  0.00  0.00     0.033 H 
ATOM     30  H23 DIP d   1      45.530 -11.413  45.046  0.00  0.00     0.033 H 
BRANCH  28  31
ATOM     31  C4  DIP d   1      45.102 -12.765  43.425  0.00  0.00    -0.068 C 
ATOM     32  H24 DIP d   1      45.927 -13.439  43.698  0.00  0.00     0.032 H 
ATOM     33  H25 DIP d   1      45.451 -12.047  42.668  0.00  0.00     0.032 H 
BRANCH  31  34
ATOM     34  C5  DIP d   1      43.970 -13.601  42.819  0.00  0.00    -0.077 C 
ATOM     35  H26 DIP d   1      44.342 -14.132  41.930  0.00  0.00     0.027 H 
ATOM     36  H27 DIP d   1      43.140 -12.940  42.531  0.00  0.00     0.027 H 
ATOM     37  H28 DIP d   1      43.616 -14.332  43.561  0.00  0.00     0.027 H 
ENDBRANCH  31  34
ENDBRANCH  28  31
ENDBRANCH  25  28
ENDBRANCH  22  25
ENDBRANCH   5  22
ENDBRANCH   2   3
BRANCH   2  38
ATOM     38  CB  GLU d   1      44.059  -6.740  43.874  0.00  0.00    -0.029 C 
ATOM     39  H14 GLU d   1      44.228  -7.116  44.894  0.00  0.00     0.037 H 
ATOM     40  H15 GLU d   1      43.325  -5.921  43.902  0.00  0.00     0.037 H 
BRANCH  38  41
ATOM     41  CG  GLU d   1      45.349  -6.189  43.363  0.00  0.00     0.018 C 
ATOM     42  H16 GLU d   1      45.675  -5.382  44.035  0.00  0.00     0.049 H 
ATOM     43  H17 GLU d   1      45.181  -5.781  42.355  0.00  0.00     0.049 H 
BRANCH  41  44
ATOM     44  CD  GLU d   1      46.450  -7.225  43.285  0.00  0.00     0.172 C 
ATOM     45  OE1 GLU d   1      46.654  -7.968  44.248  0.00  0.00    -0.648 OA
ATOM     46  OE2 GLU d   1      47.112  -7.270  42.250  0.00  0.00    -0.648 OA
ENDBRANCH  41  44
ENDBRANCH  38  41
ENDBRANCH   2  38
BRANCH   2  47
ATOM     47  N   GLU d   1      43.201  -7.359  41.722  0.00  0.00    -0.346 N 
ATOM     48  H12 GLU d   1      43.167  -6.374  41.554  0.00  0.00     0.163 HD
ATOM     49  C   PTR d   1      42.986  -8.193  40.725  0.00  0.00     0.241 C 
ATOM     50  O   PTR d   1      43.038  -9.431  40.838  0.00  0.00    -0.271 OA
BRANCH  49  51
ATOM     51  CA  PTR d   1      42.642  -7.561  39.403  0.00  0.00     0.093 C 
ATOM     52  H5  PTR d   1      43.130  -6.577  39.335  0.00  0.00     0.088 H 
BRANCH  51  53
ATOM     53  N   PTR d   1      43.107  -8.404  38.333  0.00  0.00    -0.348 N 
ATOM     54  H4  PTR d   1      42.545  -9.189  38.073  0.00  0.00     0.163 HD
ATOM     55  C   ACE d   1      44.236  -8.199  37.673  0.00  0.00     0.214 C 
ATOM     56  O   ACE d   1      44.890  -7.168  37.791  0.00  0.00    -0.274 OA
BRANCH  55  57
ATOM     57  CH3 ACE d   1      44.558  -9.195  36.567  0.00  0.00    -0.003 C 
ATOM     58  H1  ACE d   1      43.865 -10.047  36.628  0.00  0.00     0.040 H 
ATOM     59  H2  ACE d   1      45.591  -9.553  36.686  0.00  0.00     0.040 H 
ATOM     60  H3  ACE d   1      44.450  -8.704  35.589  0.00  0.00     0.040 H 
ENDBRANCH  55  57
ENDBRANCH  51  53
BRANCH  51  61
ATOM     61  CB  PTR d   1      41.128  -7.386  39.267  0.00  0.00    -0.014 C 
ATOM     62  H6  PTR d   1      40.736  -6.899  40.172  0.00  0.00     0.043 H 
ATOM     63  H7  PTR d   1      40.658  -8.373  39.149  0.00  0.00     0.043 H 
BRANCH  61  64
ATOM     64  CG  PTR d   1      40.802  -6.529  38.058  0.00  0.00    -0.056 A 
ATOM     65  CD2 PTR d   1      41.025  -5.169  38.071  0.00  0.00    -0.074 A 
ATOM     66  H9  PTR d   1      41.438  -4.704  38.959  0.00  0.00     0.084 H 
ATOM     67  CE2 PTR d   1      40.729  -4.389  36.968  0.00  0.00    -0.050 A 
ATOM     68  H11 PTR d   1      40.917  -3.322  36.985  0.00  0.00     0.087 H 
ATOM     69  CZ  PTR d   1      40.188  -4.988  35.839  0.00  0.00     0.082 A 
ATOM     70  CE1 PTR d   1      39.977  -6.357  35.825  0.00  0.00    -0.050 A 
ATOM     71  H10 PTR d   1      39.570  -6.831  34.940  0.00  0.00     0.087 H 
ATOM     72  CD1 PTR d   1      40.283  -7.119  36.933  0.00  0.00    -0.074 A 
ATOM     73  H8  PTR d   1      40.113  -8.189  36.915  0.00  0.00     0.084 H 
BRANCH  69  74
ATOM     74  OH  PTR d   1      39.700  -4.185  34.738  0.00  0.00    -0.240 OA
BRANCH  74  75
ATOM     75  P   PTR d   1      40.563  -3.972  33.406  0.00  0.00     0.427 P 
ATOM     76  O3P PTR d   1      41.929  -3.698  33.955  0.00  0.00    -0.617 OA
ATOM     77  O2P PTR d   1      39.876  -2.804  32.815  0.00  0.00    -0.617 OA
ATOM     78  O1P PTR d   1      40.400  -5.252  32.707  0.00  0.00    -0.617 OA
ENDBRANCH  74  75
ENDBRANCH  69  74
ENDBRANCH  61  64
ENDBRANCH  51  61
ENDBRANCH  49  51
ENDBRANCH   2  47
TORSDOF 22
