REMARK  20 active torsions:
REMARK  status: ('A' for Active; 'I' for Inactive)
REMARK    1  A    between atoms: C23_5  and  OH3_2 
REMARK    2  A    between atoms: C28_10  and  OH4_3 
REMARK    3  A    between atoms: C22_4  and  C23_5 
REMARK       I    between atoms: N_13  and  C22_4 
REMARK    4  A    between atoms: C23_5  and  C24_6 
REMARK    5  A    between atoms: C24_6  and  C25_7 
REMARK    6  A    between atoms: CA_14  and  N_13 
REMARK    7  A    between atoms: C_15  and  CA_14 
REMARK    8  A    between atoms: CA_14  and  CB_17 
REMARK       I    between atoms: N5_23  and  C_15 
REMARK    9  A    between atoms: CB_17  and  CG_18 
REMARK   10  A    between atoms: CG_18  and  CD2_20 
REMARK   11  A    between atoms: CG_18  and  CD1_19 
REMARK   12  A    between atoms: C13_30  and  OH2_22 
REMARK   13  A    between atoms: C8_25  and  C7_24 
REMARK       I    between atoms: C7_24  and  N1_34 
REMARK   14  A    between atoms: C6_43  and  OH1_33 
REMARK   15  A    between atoms: N1_34  and  C1_38 
REMARK   16  A    between atoms: C4_41  and  N2_35 
REMARK       I    between atoms: N2_35  and  C5_42 
REMARK       I    between atoms: C5_42  and  N3_36 
REMARK   17  A    between atoms: C1_38  and  C6_43 
REMARK   18  A    between atoms: C1_38  and  C2_39 
REMARK   19  A    between atoms: C2_39  and  C3_40 
REMARK   20  A    between atoms: C3_40  and  C4_41 
ROOT
ATOM      1  C   LEU d   1      16.445 -14.947  23.015  0.00  0.00     0.243 C 
ATOM      2  O   LEU d   1      15.451 -14.204  23.115  0.00  0.00    -0.271 OA
ATOM      3  N5  PRJ d   1      17.262 -14.761  21.976  0.00  0.00    -0.332 N 
ATOM      4  C8  PRJ d   1      17.151 -13.511  21.311  0.00  0.00     0.092 C 
ATOM      5  C9  PRJ d   1      18.536 -13.275  20.659  0.00  0.00    -0.033 C 
ATOM      6  C10 PRJ d   1      19.539 -14.175  21.363  0.00  0.00    -0.032 C 
ATOM      7  C11 PRJ d   1      20.841 -14.395  20.604  0.00  0.00    -0.058 C 
ATOM      8  C12 PRJ d   1      20.607 -15.131  19.215  0.00  0.00    -0.041 C 
ATOM      9  C13 PRJ d   1      19.730 -16.368  19.498  0.00  0.00     0.037 C 
ATOM     10  C14 PRJ d   1      18.328 -16.047  20.146  0.00  0.00    -0.022 C 
ATOM     11  C15 PRJ d   1      18.518 -15.334  21.587  0.00  0.00     0.021 C 
ATOM     12  H22 PRJ d   1      17.105 -12.790  22.141  0.00  0.00     0.087 H 
ATOM     13  H23 PRJ d   1      18.831 -12.222  20.777  0.00  0.00     0.037 H 
ATOM     14  H24 PRJ d   1      18.494 -13.527  19.589  0.00  0.00     0.037 H 
ATOM     15  H25 PRJ d   1      19.831 -13.752  22.336  0.00  0.00     0.043 H 
ATOM     16  H26 PRJ d   1      21.512 -15.009  21.222  0.00  0.00     0.033 H 
ATOM     17  H27 PRJ d   1      21.310 -13.418  20.413  0.00  0.00     0.033 H 
ATOM     18  H28 PRJ d   1      21.571 -15.442  18.786  0.00  0.00     0.036 H 
ATOM     19  H29 PRJ d   1      20.094 -14.457  18.513  0.00  0.00     0.036 H 
ATOM     20  H30 PRJ d   1      19.477 -16.742  18.495  0.00  0.00     0.083 H 
ATOM     21  H31 PRJ d   1      17.767 -16.984  20.277  0.00  0.00     0.039 H 
ATOM     22  H32 PRJ d   1      17.767 -15.374  19.480  0.00  0.00     0.039 H 
ATOM     23  H33 PRJ d   1      18.878 -16.046  22.344  0.00  0.00     0.073 H 
ENDROOT
BRANCH   4  24
ATOM     24  C7  PRJ d   1      16.007 -13.108  20.529  0.00  0.00     0.241 C 
ATOM     25  O2  PRJ d   1      15.522 -13.947  19.768  0.00  0.00    -0.271 OA
ATOM     26  N1  OAR d   1      15.461 -11.891  20.571  0.00  0.00    -0.353 N 
ATOM     27  H35 OAR d   1      15.919 -11.166  21.085  0.00  0.00     0.163 HD
BRANCH  26  28
ATOM     28  C1  OAR d   1      14.254 -11.607  19.907  0.00  0.00     0.032 C 
ATOM     29  H41 OAR d   1      13.808 -12.556  19.573  0.00  0.00     0.075 H 
BRANCH  28  30
ATOM     30  C6  OAR d   1      14.551 -10.698  18.713  0.00  0.00     0.035 C 
ATOM     31  H48 OAR d   1      13.687 -10.736  18.033  0.00  0.00     0.077 H 
ATOM     32  H49 OAR d   1      14.676  -9.672  19.089  0.00  0.00     0.077 H 
BRANCH  30  33
ATOM     33  OH1 OAR d   1      15.761 -11.052  17.937  0.00  0.00    -0.399 OA
ATOM     34  H34 OAR d   1      16.522 -11.012  18.504  0.00  0.00     0.209 HD
ENDBRANCH  30  33
ENDBRANCH  28  30
BRANCH  28  35
ATOM     35  C2  OAR d   1      13.209 -10.809  20.739  0.00  0.00    -0.043 C 
ATOM     36  H42 OAR d   1      12.238 -10.718  20.230  0.00  0.00     0.036 H 
ATOM     37  H43 OAR d   1      13.567  -9.809  21.027  0.00  0.00     0.036 H 
BRANCH  35  38
ATOM     38  C3  OAR d   1      13.174 -11.783  21.908  0.00  0.00    -0.048 C 
ATOM     39  H44 OAR d   1      14.178 -11.915  22.338  0.00  0.00     0.035 H 
ATOM     40  H45 OAR d   1      12.778 -12.760  21.593  0.00  0.00     0.035 H 
BRANCH  38  41
ATOM     41  C4  OAR d   1      12.218 -11.100  22.929  0.00  0.00     0.009 C 
ATOM     42  H46 OAR d   1      11.494 -10.467  22.394  0.00  0.00     0.064 H 
ATOM     43  H47 OAR d   1      12.801 -10.481  23.627  0.00  0.00     0.064 H 
BRANCH  41  44
ATOM     44  N2  OAR d   1      11.498 -12.160  23.680  0.00  0.00    -0.227 N 
ATOM     45  C5  OAR d   1      10.674 -11.833  24.720  0.00  0.00     0.665 C 
ATOM     46  N3  OAR d   1      10.157 -12.834  25.468  0.00  0.00    -0.235 N 
ATOM     47  N4  OAR d   1      10.367 -10.548  25.008  0.00  0.00    -0.235 N 
ATOM     48  H37 OAR d   1       9.533 -12.617  26.258  0.00  0.00     0.174 HD
ATOM     49  H38 OAR d   1      10.387 -13.813  25.248  0.00  0.00     0.174 HD
ATOM     50  H39 OAR d   1      10.760  -9.785  24.439  0.00  0.00     0.174 HD
ATOM     51  H40 OAR d   1       9.740 -10.332  25.796  0.00  0.00     0.174 HD
ATOM     52  H36 OAR d   1      11.620 -13.148  23.415  0.00  0.00     0.177 HD
ENDBRANCH  41  44
ENDBRANCH  38  41
ENDBRANCH  35  38
ENDBRANCH  28  35
ENDBRANCH  26  28
ENDBRANCH   4  24
BRANCH   1  53
ATOM     53  CA  LEU d   1      16.566 -16.038  24.045  0.00  0.00     0.090 C 
ATOM     54  H11 LEU d   1      16.413 -15.564  25.026  0.00  0.00     0.087 H 
BRANCH  53  55
ATOM     55  CB  LEU d   1      17.767 -16.950  24.218  0.00  0.00    -0.035 C 
ATOM     56  H12 LEU d   1      18.688 -16.349  24.206  0.00  0.00     0.037 H 
ATOM     57  H13 LEU d   1      17.794 -17.680  23.396  0.00  0.00     0.037 H 
BRANCH  55  58
ATOM     58  CG  LEU d   1      17.658 -17.686  25.547  0.00  0.00    -0.059 C 
ATOM     59  H14 LEU d   1      17.926 -18.743  25.400  0.00  0.00     0.038 H 
BRANCH  58  60
ATOM     60  CD2 LEU d   1      16.243 -17.585  26.122  0.00  0.00    -0.073 C 
ATOM     61  H18 LEU d   1      15.528 -18.038  25.419  0.00  0.00     0.028 H 
ATOM     62  H19 LEU d   1      15.985 -16.527  26.276  0.00  0.00     0.028 H 
ATOM     63  H20 LEU d   1      16.199 -18.117  27.084  0.00  0.00     0.028 H 
ENDBRANCH  58  60
BRANCH  58  64
ATOM     64  CD1 LEU d   1      18.588 -17.049  26.554  0.00  0.00    -0.073 C 
ATOM     65  H15 LEU d   1      18.509 -17.581  27.514  0.00  0.00     0.028 H 
ATOM     66  H16 LEU d   1      18.309 -15.994  26.695  0.00  0.00     0.028 H 
ATOM     67  H17 LEU d   1      19.623 -17.108  26.186  0.00  0.00     0.028 H 
ENDBRANCH  58  64
ENDBRANCH  55  58
ENDBRANCH  53  55
BRANCH  53  68
ATOM     68  N   LEU d   1      15.422 -16.873  23.701  0.00  0.00    -0.346 N 
ATOM     69  C22 34H d   1      15.236 -17.781  22.754  0.00  0.00     0.247 C 
ATOM     70  O4  34H d   1      16.115 -18.127  21.955  0.00  0.00    -0.271 OA
ATOM     71  H10 LEU d   1      14.627 -16.734  24.291  0.00  0.00     0.163 HD
BRANCH  69  72
ATOM     72  C23 34H d   1      13.818 -18.307  22.736  0.00  0.00     0.116 C 
ATOM     73  H3  34H d   1      13.341 -18.028  21.785  0.00  0.00     0.098 H 
BRANCH  72  74
ATOM     74  OH3 34H d   1      13.094 -17.697  23.835  0.00  0.00    -0.386 OA
ATOM     75  H1  34H d   1      13.094 -16.753  23.727  0.00  0.00     0.210 HD
ENDBRANCH  72  74
BRANCH  72  76
ATOM     76  C24 34H d   1      13.791 -19.843  22.873  0.00  0.00    -0.009 C 
ATOM     77  H4  34H d   1      14.430 -20.265  22.083  0.00  0.00     0.044 H 
ATOM     78  H5  34H d   1      12.754 -20.178  22.725  0.00  0.00     0.044 H 
BRANCH  76  79
ATOM     79  C25 34H d   1      14.269 -20.383  24.194  0.00  0.00    -0.055 C 
ATOM     80  C30 34H d   1      15.602 -20.359  24.510  0.00  0.00    -0.074 C 
ATOM     81  C29 34H d   1      15.995 -20.508  25.818  0.00  0.00    -0.051 C 
ATOM     82  H9  34H d   1      16.343 -20.223  23.731  0.00  0.00     0.084 H 
ATOM     83  C28 34H d   1      15.068 -20.723  26.755  0.00  0.00     0.065 C 
ATOM     84  H8  34H d   1      17.044 -20.452  26.086  0.00  0.00     0.087 H 
ATOM     85  C27 34H d   1      13.742 -20.812  26.421  0.00  0.00    -0.051 C 
ATOM     86  C26 34H d   1      13.354 -20.706  25.121  0.00  0.00    -0.074 C 
ATOM     87  H7  34H d   1      12.999 -20.967  27.195  0.00  0.00     0.087 H 
ATOM     88  H6  34H d   1      12.322 -20.880  24.839  0.00  0.00     0.084 H 
BRANCH  83  89
ATOM     89  OH4 34H d   1      15.406 -20.917  28.112  0.00  0.00    -0.361 OA
ATOM     90  H2  34H d   1      16.346 -20.832  28.218  0.00  0.00     0.217 HD
ENDBRANCH  83  89
ENDBRANCH  76  79
ENDBRANCH  72  76
ENDBRANCH  69  72
ENDBRANCH  53  68
ENDBRANCH   1  53
BRANCH   9  91
ATOM     91  OH2 PRJ d   1      20.409 -17.461  20.107  0.00  0.00    -0.396 OA
ATOM     92  H21 PRJ d   1      19.798 -18.175  20.244  0.00  0.00     0.210 HD
ENDBRANCH   9  91
TORSDOF 20
