REMARK  17 active torsions:
REMARK  status: ('A' for Active; 'I' for Inactive)
REMARK    1  A    between atoms: CA_2  and  N_1 
REMARK    2  A    between atoms: C_3  and  CA_2 
REMARK       I    between atoms: N_5  and  C_3 
REMARK    3  A    between atoms: CA_6  and  N_5 
REMARK    4  A    between atoms: C_7  and  CA_6 
REMARK       I    between atoms: N_9  and  C_7 
REMARK    5  A    between atoms: CA_10  and  N_9 
REMARK    6  A    between atoms: C_11  and  CA_10 
REMARK       I    between atoms: N2_13  and  C_11 
REMARK    7  A    between atoms: C2_14  and  N2_13 
REMARK    8  A    between atoms: C1_15  and  C2_14 
REMARK    9  A    between atoms: C2_14  and  C3_17 
REMARK       I    between atoms: C1_15  and  N_23 
REMARK   10  A    between atoms: C3_17  and  O1P_18 
REMARK   11  A    between atoms: O1P_18  and  P_22 
REMARK   12  A    between atoms: N_23  and  CA_24 
REMARK   13  A    between atoms: CA_24  and  C_25 
REMARK       I    between atoms: C_25  and  N_27 
REMARK   14  A    between atoms: N_27  and  CA_28 
REMARK   15  A    between atoms: CA_28  and  C_29 
REMARK       I    between atoms: C_29  and  N_31 
REMARK   16  A    between atoms: N_31  and  CA_32 
REMARK   17  A    between atoms: CA_32  and  C_33 
ROOT
ATOM      1  C2  SEP d   1      14.378  65.320  -9.814  0.00  0.00     0.110 C 
ATOM      2  H13 SEP d   1      13.588  65.372 -10.578  0.00  0.00     0.090 H 
ENDROOT
BRANCH   1   3
ATOM      3  N2  SEP d   1      15.283  66.462  -9.948  0.00  0.00    -0.344 N 
ATOM      4  C   THR d   1      15.914  66.862 -11.066  0.00  0.00     0.236 C 
ATOM      5  O   THR d   1      16.636  67.855 -11.079  0.00  0.00    -0.272 OA
ATOM      6  H12 SEP d   1      15.450  67.001  -9.122  0.00  0.00     0.163 HD
BRANCH   4   7
ATOM      7  CA  THR d   1      15.721  66.105 -12.374  0.00  0.00     0.069 C 
ATOM      8  H10 THR d   1      16.291  65.169 -12.283  0.00  0.00     0.078 H 
ATOM      9  H11 THR d   1      14.648  65.875 -12.449  0.00  0.00     0.078 H 
BRANCH   7  10
ATOM     10  N   THR d   1      16.113  66.716 -13.657  0.00  0.00    -0.351 N 
ATOM     11  C   SER d   1      17.334  67.192 -13.959  0.00  0.00     0.235 C 
ATOM     12  O   SER d   1      18.241  67.333 -13.150  0.00  0.00    -0.272 OA
ATOM     13  H9  THR d   1      15.409  66.782 -14.365  0.00  0.00     0.163 HD
BRANCH  11  14
ATOM     14  CA  SER d   1      17.505  67.738 -15.370  0.00  0.00     0.069 C 
ATOM     15  H7  SER d   1      16.549  67.584 -15.892  0.00  0.00     0.078 H 
ATOM     16  H8  SER d   1      17.701  68.816 -15.276  0.00  0.00     0.078 H 
BRANCH  14  17
ATOM     17  N   SER d   1      18.553  67.186 -16.225  0.00  0.00    -0.351 N 
ATOM     18  C   ARG d   1      18.252  66.808 -17.471  0.00  0.00     0.243 C 
ATOM     19  O   ARG d   1      17.099  66.798 -17.894  0.00  0.00    -0.272 OA
ATOM     20  H6  SER d   1      19.487  67.092 -15.881  0.00  0.00     0.163 HD
BRANCH  18  21
ATOM     21  CA  ARG d   1      19.351  66.273 -18.380  0.00  0.00     0.152 C 
ATOM     22  H4  ARG d   1      20.214  66.954 -18.338  0.00  0.00     0.090 H 
ATOM     23  H5  ARG d   1      19.653  65.276 -18.028  0.00  0.00     0.090 H 
BRANCH  21  24
ATOM     24  N   ARG d   1      18.874  66.166 -19.822  0.00  0.00    -0.071 N 
ATOM     25  H1  ARG d   1      19.621  65.810 -20.398  0.00  0.00     0.274 HD
ATOM     26  H2  ARG d   1      18.599  67.077 -20.154  0.00  0.00     0.274 HD
ATOM     27  H3  ARG d   1      18.086  65.540 -19.870  0.00  0.00     0.274 HD
ENDBRANCH  21  24
ENDBRANCH  18  21
ENDBRANCH  14  17
ENDBRANCH  11  14
ENDBRANCH   7  10
ENDBRANCH   4   7
ENDBRANCH   1   3
BRANCH   1  28
ATOM     28  C1  SEP d   1      13.752  65.263  -8.377  0.00  0.00     0.243 C 
ATOM     29  O1  SEP d   1      12.566  64.969  -8.184  0.00  0.00    -0.271 OA
ATOM     30  N   THR d   1      14.557  65.517  -7.352  0.00  0.00    -0.350 N 
ATOM     31  H16 THR d   1      15.519  65.737  -7.513  0.00  0.00     0.163 HD
BRANCH  30  32
ATOM     32  CA  THR d   1      14.037  65.474  -5.994  0.00  0.00     0.069 C 
ATOM     33  H17 THR d   1      13.587  64.484  -5.832  0.00  0.00     0.078 H 
ATOM     34  H18 THR d   1      13.262  66.249  -5.900  0.00  0.00     0.078 H 
BRANCH  32  35
ATOM     35  C   THR d   1      15.071  65.706  -4.907  0.00  0.00     0.235 C 
ATOM     36  O   THR d   1      16.055  66.392  -5.148  0.00  0.00    -0.272 OA
ATOM     37  N   PRO d   1      14.855  65.134  -3.720  0.00  0.00    -0.351 N 
ATOM     38  H19 PRO d   1      14.034  64.578  -3.588  0.00  0.00     0.163 HD
BRANCH  37  39
ATOM     39  CA  PRO d   1      15.789  65.301  -2.611  0.00  0.00     0.069 C 
ATOM     40  H20 PRO d   1      16.681  64.690  -2.813  0.00  0.00     0.078 H 
ATOM     41  H21 PRO d   1      16.076  66.362  -2.555  0.00  0.00     0.078 H 
BRANCH  39  42
ATOM     42  C   PRO d   1      15.214  64.883  -1.253  0.00  0.00     0.235 C 
ATOM     43  O   PRO d   1      14.005  64.724  -1.117  0.00  0.00    -0.272 OA
ATOM     44  N   ASN d   1      16.061  64.682  -0.248  0.00  0.00    -0.350 N 
ATOM     45  H22 ASN d   1      17.043  64.808  -0.385  0.00  0.00     0.163 HD
BRANCH  44  46
ATOM     46  CA  ASN d   1      15.551  64.278   1.050  0.00  0.00     0.075 C 
ATOM     47  H23 ASN d   1      15.253  63.221   0.991  0.00  0.00     0.080 H 
ATOM     48  H24 ASN d   1      14.671  64.895   1.284  0.00  0.00     0.080 H 
BRANCH  46  49
ATOM     49  C   ASN d   1      16.551  64.429   2.176  0.00  0.00     0.191 C 
ATOM     50  O   ASN d   1      16.572  63.560   3.070  0.00  0.00    -0.647 OA
ATOM     51  O2  ASN d   1      17.387  65.463   2.211  0.00  0.00    -0.647 OA
ENDBRANCH  46  49
ENDBRANCH  44  46
ENDBRANCH  39  42
ENDBRANCH  37  39
ENDBRANCH  32  35
ENDBRANCH  30  32
ENDBRANCH   1  28
BRANCH   1  52
ATOM     52  C3  SEP d   1      15.209  64.025  -9.958  0.00  0.00     0.059 C 
ATOM     53  H14 SEP d   1      14.843  63.386  -9.141  0.00  0.00     0.079 H 
ATOM     54  H15 SEP d   1      16.238  64.347  -9.739  0.00  0.00     0.079 H 
BRANCH  52  55
ATOM     55  O1P SEP d   1      15.341  63.239 -10.914  0.00  0.00    -0.280 OA
BRANCH  55  56
ATOM     56  P   SEP d   1      16.195  61.845 -10.307  0.00  0.00     0.422 P 
ATOM     57  O2P SEP d   1      17.387  61.840 -11.191  0.00  0.00    -0.617 OA
ATOM     58  O3P SEP d   1      16.477  62.059  -8.832  0.00  0.00    -0.617 OA
ATOM     59  O4P SEP d   1      15.258  60.735 -10.551  0.00  0.00    -0.617 OA
ENDBRANCH  55  56
ENDBRANCH  52  55
ENDBRANCH   1  52
TORSDOF 17
