REMARK WARNING: 32 MAX_TORS EXCEEDED!!!
REMARK  42 active torsions:
REMARK  status: ('A' for Active; 'I' for Inactive)
REMARK    1  A    between atoms: N_1  and  CA_2 
REMARK    2  A    between atoms: CA_2  and  C_3 
REMARK       I    between atoms: C_3  and  N_5 
REMARK    3  A    between atoms: N_5  and  CA_6 
REMARK    4  A    between atoms: CA_6  and  C_7 
REMARK    5  A    between atoms: CA_6  and  CB_9 
REMARK       I    between atoms: C_7  and  N_13 
REMARK    6  A    between atoms: CB_9  and  CG_10 
REMARK    7  A    between atoms: N_13  and  CA_14 
REMARK    8  A    between atoms: CA_14  and  C_15 
REMARK    9  A    between atoms: CA_14  and  CB_17 
REMARK       I    between atoms: C_15  and  N_24 
REMARK   10  A    between atoms: CB_17  and  CG_18 
REMARK   11  A    between atoms: N_24  and  CA_25 
REMARK   12  A    between atoms: CA_25  and  C_26 
REMARK   13  A    between atoms: CA_25  and  CB_28 
REMARK       I    between atoms: C_26  and  N_33 
REMARK   14  A    between atoms: CB_28  and  CG_29 
REMARK   15  A    between atoms: CG_29  and  CD_30 
REMARK   16  A    between atoms: N_33  and  CA_34 
REMARK   17  A    between atoms: CA_34  and  C_35 
REMARK   18  A    between atoms: CA_34  and  CB_37 
REMARK       I    between atoms: C_35  and  N_42 
REMARK   19  A    between atoms: CB_37  and  CG_38 
REMARK   20  A    between atoms: CG_38  and  CD_39 
REMARK   21  A    between atoms: N_42  and  CA_43 
REMARK   22  A    between atoms: CA_43  and  C_44 
REMARK   23  A    between atoms: CA_43  and  CB_46 
REMARK       I    between atoms: C_44  and  N_50 
REMARK   24  A    between atoms: CB_46  and  CG1_47 
REMARK   25  A    between atoms: CB_46  and  CG2_48 
REMARK   26  A    between atoms: CG1_47  and  CD1_49 
REMARK   27  A    between atoms: CA_51  and  C_52 
REMARK       I    between atoms: C_52  and  N_57 
REMARK   28  A    between atoms: N_57  and  CA_58 
REMARK   29  A    between atoms: CA_58  and  C_59 
REMARK       I    between atoms: C_59  and  N_61 
REMARK   30  A    between atoms: N_61  and  CA_62 
REMARK   31  A    between atoms: CA_62  and  C_63 
REMARK   32  A    between atoms: CA_62  and  CB_65 
REMARK       I    between atoms: C_63  and  N_70 
REMARK   33  A    between atoms: CB_65  and  CG_66 
REMARK   34  A    between atoms: CG_66  and  CD_67 
REMARK   35  A    between atoms: N_70  and  CA_71 
REMARK   36  A    between atoms: CA_71  and  C_72 
REMARK   37  A    between atoms: CA_71  and  CB_74 
REMARK       I    between atoms: C_72  and  N_82 
REMARK   38  A    between atoms: CB_74  and  CG_75 
REMARK   39  A    between atoms: CZ_80  and  OH_81 
REMARK   40  A    between atoms: N_82  and  CA_83 
REMARK   41  A    between atoms: CA_83  and  C_84 
REMARK   42  A    between atoms: CA_83  and  CB_86 
ROOT
ATOM      1  CA  ILE d   1      10.688  -1.401  -3.374  0.00  0.00     0.092 C 
ATOM      2  H32 ILE d   1       9.867  -0.826  -2.921  0.00  0.00     0.088 H 
ENDROOT
BRANCH   1   3
ATOM      3  N   ILE d   1      10.283  -2.798  -3.550  0.00  0.00    -0.346 N 
ATOM      4  C   GLU d   1       9.066  -3.168  -3.909  0.00  0.00     0.241 C 
ATOM      5  O   GLU d   1       8.103  -2.412  -4.096  0.00  0.00    -0.271 OA
ATOM      6  H31 ILE d   1      10.965  -3.511  -3.390  0.00  0.00     0.163 HD
BRANCH   4   7
ATOM      7  CA  GLU d   1       8.937  -4.681  -4.097  0.00  0.00     0.090 C 
ATOM      8  H26 GLU d   1       9.756  -5.176  -3.555  0.00  0.00     0.087 H 
BRANCH   7   9
ATOM      9  N   GLU d   1       7.663  -5.210  -3.595  0.00  0.00    -0.346 N 
ATOM     10  C   GLU d   1       7.379  -5.271  -2.319  0.00  0.00     0.241 C 
ATOM     11  O   GLU d   1       8.112  -4.834  -1.421  0.00  0.00    -0.271 OA
ATOM     12  H25 GLU d   1       6.986  -5.537  -4.254  0.00  0.00     0.163 HD
BRANCH  10  13
ATOM     13  CA  GLU d   1       6.045  -5.940  -1.991  0.00  0.00     0.090 C 
ATOM     14  H20 GLU d   1       5.785  -6.657  -2.784  0.00  0.00     0.087 H 
BRANCH  13  15
ATOM     15  N   GLU d   1       6.223  -6.651  -0.724  0.00  0.00    -0.346 N 
ATOM     16  C   PHE d   1       7.048  -7.683  -0.633  0.00  0.00     0.241 C 
ATOM     17  O   PHE d   1       7.662  -8.149  -1.599  0.00  0.00    -0.271 OA
ATOM     18  H19 GLU d   1       5.715  -6.353   0.084  0.00  0.00     0.163 HD
BRANCH  16  19
ATOM     19  CA  PHE d   1       7.193  -8.273   0.768  0.00  0.00     0.093 C 
ATOM     20  H11 PHE d   1       6.393  -7.871   1.407  0.00  0.00     0.088 H 
BRANCH  19  21
ATOM     21  N   PHE d   1       7.090  -9.746   0.758  0.00  0.00    -0.346 N 
ATOM     22  C   ASP d   1       5.935 -10.360   0.925  0.00  0.00     0.241 C 
ATOM     23  O   ASP d   1       4.873  -9.737   1.060  0.00  0.00    -0.271 OA
ATOM     24  H10 PHE d   1       7.917 -10.292   0.621  0.00  0.00     0.163 HD
BRANCH  22  25
ATOM     25  CA  ASP d   1       5.972 -11.903   0.972  0.00  0.00     0.098 C 
ATOM     26  H7  ASP d   1       4.944 -12.272   1.099  0.00  0.00     0.088 H 
BRANCH  25  27
ATOM     27  N   ASP d   1       6.538 -12.537  -0.238  0.00  0.00    -0.346 N 
ATOM     28  C   GLY d   1       6.617 -11.994  -1.431  0.00  0.00     0.243 C 
ATOM     29  O   GLY d   1       6.251 -10.853  -1.746  0.00  0.00    -0.272 OA
ATOM     30  H6  ASP d   1       6.894 -13.466  -0.139  0.00  0.00     0.163 HD
BRANCH  28  31
ATOM     31  CA  GLY d   1       7.236 -12.937  -2.475  0.00  0.00     0.152 C 
ATOM     32  H4  GLY d   1       6.683 -13.888  -2.474  0.00  0.00     0.090 H 
ATOM     33  H5  GLY d   1       7.162 -12.472  -3.469  0.00  0.00     0.090 H 
BRANCH  31  34
ATOM     34  N   GLY d   1       8.658 -13.203  -2.169  0.00  0.00    -0.071 N 
ATOM     35  H1  GLY d   1       9.041 -13.822  -2.866  0.00  0.00     0.274 HD
ATOM     36  H2  GLY d   1       8.731 -13.633  -1.260  0.00  0.00     0.274 HD
ATOM     37  H3  GLY d   1       9.171 -12.335  -2.172  0.00  0.00     0.274 HD
ENDBRANCH  31  34
ENDBRANCH  28  31
ENDBRANCH  25  27
BRANCH  25  38
ATOM     38  CB  ASP d   1       6.808 -12.298   2.188  0.00  0.00     0.043 C 
ATOM     39  H8  ASP d   1       6.372 -13.204   2.635  0.00  0.00     0.052 H 
ATOM     40  H9  ASP d   1       6.776 -11.476   2.919  0.00  0.00     0.052 H 
BRANCH  38  41
ATOM     41  CG  ASP d   1       8.268 -12.581   1.835  0.00  0.00     0.175 C 
ATOM     42  OD1 ASP d   1       8.837 -11.931   0.878  0.00  0.00    -0.648 OA
ATOM     43  OD2 ASP d   1       8.932 -13.466   2.496  0.00  0.00    -0.648 OA
ENDBRANCH  38  41
ENDBRANCH  25  38
ENDBRANCH  22  25
ENDBRANCH  19  21
BRANCH  19  44
ATOM     44  CB  PHE d   1       8.548  -7.847   1.330  0.00  0.00    -0.014 C 
ATOM     45  H12 PHE d   1       8.778  -6.832   0.974  0.00  0.00     0.043 H 
ATOM     46  H13 PHE d   1       9.318  -8.545   0.970  0.00  0.00     0.043 H 
BRANCH  44  47
ATOM     47  CG  PHE d   1       8.555  -7.849   2.852  0.00  0.00    -0.056 A 
ATOM     48  CD1 PHE d   1       8.779  -9.041   3.545  0.00  0.00    -0.077 A 
ATOM     49  CE1 PHE d   1       8.763  -9.049   4.943  0.00  0.00    -0.082 A 
ATOM     50  H14 PHE d   1       8.965  -9.959   2.999  0.00  0.00     0.084 H 
ATOM     51  CZ  PHE d   1       8.529  -7.862   5.646  0.00  0.00    -0.083 A 
ATOM     52  H16 PHE d   1       8.932  -9.974   5.482  0.00  0.00     0.083 H 
ATOM     53  CE2 PHE d   1       8.313  -6.667   4.950  0.00  0.00    -0.082 A 
ATOM     54  H18 PHE d   1       8.515  -7.868   6.730  0.00  0.00     0.083 H 
ATOM     55  CD2 PHE d   1       8.325  -6.661   3.552  0.00  0.00    -0.077 A 
ATOM     56  H17 PHE d   1       8.136  -5.747   5.495  0.00  0.00     0.083 H 
ATOM     57  H15 PHE d   1       8.156  -5.737   3.012  0.00  0.00     0.084 H 
ENDBRANCH  44  47
ENDBRANCH  19  44
ENDBRANCH  16  19
ENDBRANCH  13  15
BRANCH  13  58
ATOM     58  CB  GLU d   1       4.936  -4.903  -1.880  0.00  0.00    -0.029 C 
ATOM     59  H21 GLU d   1       5.185  -4.208  -1.064  0.00  0.00     0.037 H 
ATOM     60  H22 GLU d   1       3.994  -5.420  -1.646  0.00  0.00     0.037 H 
BRANCH  58  61
ATOM     61  CG  GLU d   1       4.744  -4.098  -3.164  0.00  0.00     0.018 C 
ATOM     62  H23 GLU d   1       4.568  -4.798  -3.995  0.00  0.00     0.049 H 
ATOM     63  H24 GLU d   1       5.660  -3.521  -3.358  0.00  0.00     0.049 H 
BRANCH  61  64
ATOM     64  CD  GLU d   1       3.566  -3.130  -3.084  0.00  0.00     0.172 C 
ATOM     65  OE1 GLU d   1       2.870  -3.055  -2.000  0.00  0.00    -0.648 OA
ATOM     66  OE2 GLU d   1       3.269  -2.391  -4.097  0.00  0.00    -0.648 OA
ENDBRANCH  61  64
ENDBRANCH  58  61
ENDBRANCH  13  58
ENDBRANCH  10  13
ENDBRANCH   7   9
BRANCH   7  67
ATOM     67  CB  GLU d   1       9.067  -4.974  -5.586  0.00  0.00    -0.029 C 
ATOM     68  H27 GLU d   1       9.756  -4.241  -6.031  0.00  0.00     0.037 H 
ATOM     69  H28 GLU d   1       8.076  -4.876  -6.053  0.00  0.00     0.037 H 
BRANCH  67  70
ATOM     70  CG  GLU d   1       9.601  -6.378  -5.861  0.00  0.00     0.018 C 
ATOM     71  H29 GLU d   1       9.836  -6.462  -6.932  0.00  0.00     0.049 H 
ATOM     72  H30 GLU d   1       8.822  -7.109  -5.598  0.00  0.00     0.049 H 
BRANCH  70  73
ATOM     73  CD  GLU d   1      10.861  -6.697  -5.058  0.00  0.00     0.172 C 
ATOM     74  OE1 GLU d   1      11.671  -5.748  -4.731  0.00  0.00    -0.648 OA
ATOM     75  OE2 GLU d   1      11.116  -7.912  -4.711  0.00  0.00    -0.648 OA
ENDBRANCH  70  73
ENDBRANCH  67  70
ENDBRANCH   7  67
ENDBRANCH   4   7
ENDBRANCH   1   3
BRANCH   1  76
ATOM     76  C   ILE d   1      11.088  -0.818  -4.729  0.00  0.00     0.244 C 
ATOM     77  O   ILE d   1      11.815  -1.494  -5.447  0.00  0.00    -0.271 OA
ATOM     78  N   PRO d   1      10.813   0.455  -4.954  0.00  0.00    -0.330 N 
ATOM     79  CA  PRO d   1      11.261   1.143  -6.150  0.00  0.00     0.108 C 
ATOM     80  CD  PRO d   1       9.964   1.322  -4.097  0.00  0.00     0.014 C 
ATOM     81  CB  PRO d   1      11.015   2.611  -5.867  0.00  0.00    -0.075 C 
ATOM     82  H42 PRO d   1      10.676   0.817  -7.022  0.00  0.00     0.094 H 
ATOM     83  CG  PRO d   1      10.208   2.702  -4.627  0.00  0.00    -0.087 C 
ATOM     84  H43 PRO d   1      11.368   3.449  -6.467  0.00  0.00     0.080 H 
ATOM     85  H44 PRO d   1       9.850   3.625  -4.173  0.00  0.00     0.079 H 
ATOM     86  H45 PRO d   1      10.268   1.248  -3.042  0.00  0.00     0.070 H 
ATOM     87  H46 PRO d   1       8.903   1.048  -4.192  0.00  0.00     0.070 H 
BRANCH  79  88
ATOM     88  C   PRO d   1      12.736   0.879  -6.410  0.00  0.00     0.244 C 
ATOM     89  O   PRO d   1      13.556   0.813  -5.488  0.00  0.00    -0.271 OA
ATOM     90  N   GLU d   1      13.089   0.754  -7.684  0.00  0.00    -0.350 N 
ATOM     91  H47 GLU d   1      12.374   0.886  -8.371  0.00  0.00     0.163 HD
BRANCH  90  92
ATOM     92  CA  GLU d   1      14.413   0.445  -8.163  0.00  0.00     0.069 C 
ATOM     93  H48 GLU d   1      14.386   0.480  -9.262  0.00  0.00     0.078 H 
ATOM     94  H49 GLU d   1      14.655  -0.577  -7.835  0.00  0.00     0.078 H 
BRANCH  92  95
ATOM     95  C   GLU d   1      15.551   1.363  -7.698  0.00  0.00     0.236 C 
ATOM     96  O   GLU d   1      16.692   0.893  -7.516  0.00  0.00    -0.272 OA
ATOM     97  N   GLU d   1      15.315   2.580  -7.373  0.00  0.00    -0.346 N 
ATOM     98  H50 GLU d   1      14.390   2.950  -7.466  0.00  0.00     0.163 HD
BRANCH  97  99
ATOM     99  CA  GLU d   1      16.405   3.441  -6.861  0.00  0.00     0.090 C 
ATOM    100  H51 GLU d   1      17.076   3.685  -7.698  0.00  0.00     0.087 H 
BRANCH  99 101
ATOM    101  C   GLU d   1      17.235   2.772  -5.718  0.00  0.00     0.241 C 
ATOM    102  O   GLU d   1      18.473   2.713  -5.765  0.00  0.00    -0.271 OA
ATOM    103  N   TYR d   1      16.546   2.281  -4.686  0.00  0.00    -0.346 N 
ATOM    104  H56 TYR d   1      15.547   2.287  -4.729  0.00  0.00     0.163 HD
BRANCH 103 105
ATOM    105  CA  TYR d   1      17.208   1.724  -3.472  0.00  0.00     0.093 C 
ATOM    106  H57 TYR d   1      18.138   2.287  -3.308  0.00  0.00     0.088 H 
BRANCH 105 107
ATOM    107  C   TYR d   1      17.570   0.253  -3.605  0.00  0.00     0.241 C 
ATOM    108  O   TYR d   1      18.583  -0.168  -3.029  0.00  0.00    -0.271 OA
ATOM    109  N   LEU d   1      16.787  -0.535  -4.339  0.00  0.00    -0.345 N 
ATOM    110  H65 LEU d   1      15.979  -0.152  -4.787  0.00  0.00     0.163 HD
BRANCH 109 111
ATOM    111  CA  LEU d   1      17.097  -1.953  -4.496  0.00  0.00     0.093 C 
ATOM    112  H66 LEU d   1      18.188  -2.068  -4.421  0.00  0.00     0.089 H 
BRANCH 111 113
ATOM    113  C   LEU d   1      16.655  -2.491  -5.853  0.00  0.00     0.196 C 
ATOM    114  O   LEU d   1      15.637  -1.982  -6.379  0.00  0.00    -0.646 OA
ATOM    115  OXT LEU d   1      17.335  -3.412  -6.365  0.00  0.00    -0.646 OA
ENDBRANCH 111 113
BRANCH 111 116
ATOM    116  CB  LEU d   1      16.449  -2.784  -3.388  0.00  0.00    -0.048 C 
ATOM    117  H67 LEU d   1      16.699  -3.845  -3.532  0.00  0.00     0.030 H 
ATOM    118  H68 LEU d   1      15.357  -2.656  -3.425  0.00  0.00     0.030 H 
ATOM    119  H69 LEU d   1      16.825  -2.448  -2.410  0.00  0.00     0.030 H 
ENDBRANCH 111 116
ENDBRANCH 109 111
ENDBRANCH 105 107
BRANCH 105 120
ATOM    120  CB  TYR d   1      16.302   1.914  -2.256  0.00  0.00    -0.014 C 
ATOM    121  H58 TYR d   1      16.928   1.951  -1.352  0.00  0.00     0.043 H 
ATOM    122  H59 TYR d   1      15.614   1.058  -2.191  0.00  0.00     0.043 H 
BRANCH 120 123
ATOM    123  CG  TYR d   1      15.477   3.202  -2.335  0.00  0.00    -0.056 A 
ATOM    124  CD1 TYR d   1      16.040   4.432  -1.960  0.00  0.00    -0.074 A 
ATOM    125  CE1 TYR d   1      15.275   5.605  -2.041  0.00  0.00    -0.051 A 
ATOM    126  H60 TYR d   1      17.064   4.475  -1.608  0.00  0.00     0.084 H 
ATOM    127  CZ  TYR d   1      13.953   5.548  -2.496  0.00  0.00     0.065 A 
ATOM    128  H62 TYR d   1      15.708   6.556  -1.751  0.00  0.00     0.087 H 
ATOM    129  CE2 TYR d   1      13.395   4.321  -2.870  0.00  0.00    -0.051 A 
ATOM    130  CD2 TYR d   1      14.157   3.151  -2.788  0.00  0.00    -0.074 A 
ATOM    131  H63 TYR d   1      12.371   4.277  -3.224  0.00  0.00     0.087 H 
ATOM    132  H61 TYR d   1      13.722   2.201  -3.077  0.00  0.00     0.084 H 
BRANCH 127 133
ATOM    133  OH  TYR d   1      13.209   6.683  -2.576  0.00  0.00    -0.361 OA
ATOM    134  H64 TYR d   1      12.443   6.598  -2.020  0.00  0.00     0.217 HD
ENDBRANCH 127 133
ENDBRANCH 120 123
ENDBRANCH 105 120
ENDBRANCH 103 105
ENDBRANCH  99 101
BRANCH  99 135
ATOM    135  CB  GLU d   1      15.827   4.720  -6.275  0.00  0.00    -0.029 C 
ATOM    136  H52 GLU d   1      16.658   5.377  -5.978  0.00  0.00     0.037 H 
ATOM    137  H53 GLU d   1      15.229   4.461  -5.389  0.00  0.00     0.037 H 
BRANCH 135 138
ATOM    138  CG  GLU d   1      14.939   5.474  -7.257  0.00  0.00     0.018 C 
ATOM    139  H54 GLU d   1      15.248   5.213  -8.280  0.00  0.00     0.049 H 
ATOM    140  H55 GLU d   1      15.076   6.553  -7.096  0.00  0.00     0.049 H 
BRANCH 138 141
ATOM    141  CD  GLU d   1      13.457   5.143  -7.097  0.00  0.00     0.172 C 
ATOM    142  OE1 GLU d   1      12.959   4.979  -5.920  0.00  0.00    -0.648 OA
ATOM    143  OE2 GLU d   1      12.709   5.031  -8.140  0.00  0.00    -0.648 OA
ENDBRANCH 138 141
ENDBRANCH 135 138
ENDBRANCH  99 135
ENDBRANCH  97  99
ENDBRANCH  92  95
ENDBRANCH  90  92
ENDBRANCH  79  88
ENDBRANCH   1  76
BRANCH   1 144
ATOM    144  CB  ILE d   1      11.958  -1.305  -2.520  0.00  0.00    -0.030 C 
ATOM    145  H33 ILE d   1      12.776  -1.744  -3.110  0.00  0.00     0.043 H 
BRANCH 144 146
ATOM    146  CG1 ILE d   1      11.870  -2.053  -1.193  0.00  0.00    -0.063 C 
ATOM    147  H34 ILE d   1      12.711  -1.740  -0.558  0.00  0.00     0.033 H 
ATOM    148  H35 ILE d   1      11.944  -3.132  -1.393  0.00  0.00     0.033 H 
BRANCH 146 149
ATOM    149  CD1 ILE d   1      10.569  -1.786  -0.443  0.00  0.00    -0.076 C 
ATOM    150  H39 ILE d   1      10.567  -2.351   0.501  0.00  0.00     0.027 H 
ATOM    151  H40 ILE d   1       9.717  -2.103  -1.062  0.00  0.00     0.027 H 
ATOM    152  H41 ILE d   1      10.485  -0.711  -0.226  0.00  0.00     0.027 H 
ENDBRANCH 146 149
ENDBRANCH 144 146
BRANCH 144 153
ATOM    153  CG2 ILE d   1      12.332   0.138  -2.170  0.00  0.00    -0.071 C 
ATOM    154  H36 ILE d   1      12.411   0.731  -3.093  0.00  0.00     0.028 H 
ATOM    155  H37 ILE d   1      13.298   0.149  -1.644  0.00  0.00     0.028 H 
ATOM    156  H38 ILE d   1      11.556   0.571  -1.522  0.00  0.00     0.028 H 
ENDBRANCH 144 153
ENDBRANCH   1 144
TORSDOF 42
