REMARK  10 active torsions:
REMARK  status: ('A' for Active; 'I' for Inactive)
REMARK    1  A    between atoms: C3_3  and  S1_13 
REMARK    2  A    between atoms: C10_5  and  N16_22 
REMARK    3  A    between atoms: N8_21  and  C11_6 
REMARK    4  A    between atoms: C11_6  and  C12_7 
REMARK    5  A    between atoms: C12_7  and  O13_23 
REMARK    6  A    between atoms: O13_23  and  C14_8 
REMARK    7  A    between atoms: C14_8  and  C15_9 
REMARK    8  A    between atoms: S1_13  and  N21_12 
REMARK    9  A    between atoms: N16_22  and  C17_24 
REMARK   10  A    between atoms: C17_24  and  C18_25 
ROOT
ATOM      1  H1  BZU d   1      -4.188   5.065  12.271  0.00  0.00     0.061 H 
ATOM      2  H2  BZU d   1      -2.502   5.628  12.533  0.00  0.00     0.061 H 
ATOM      3  C3  BZU d   1      -5.445   2.067  16.049  0.00  0.00     0.121 A 
ATOM      4  C9  BZU d   1      -3.394   5.205  13.019  0.00  0.00     0.024 C 
ATOM      5  C10 BZU d   1      -3.055   3.867  13.710  0.00  0.00     0.141 C 
ATOM      6  C4  BZU d   1      -4.321   2.152  15.292  0.00  0.00    -0.043 A 
ATOM      7  C5  BZU d   1      -4.165   3.345  14.642  0.00  0.00     0.005 A 
ATOM      8  C6  BZU d   1      -5.216   4.200  14.931  0.00  0.00     0.125 A 
ATOM      9  S2  BZU d   1      -6.379   3.501  15.979  0.00  0.00    -0.063 SA
ATOM     10  S7  BZU d   1      -5.295   5.827  14.368  0.00  0.00     0.251 S 
ATOM     11  O3B BZU d   1      -6.160   5.873  13.244  0.00  0.00    -0.205 OA
ATOM     12  O4B BZU d   1      -5.858   6.680  15.373  0.00  0.00    -0.205 OA
ATOM     13  N8  BZU d   1      -3.848   6.065  14.090  0.00  0.00    -0.202 NA
ATOM     14  H3  BZU d   1      -2.148   4.009  14.316  0.00  0.00     0.094 H 
ATOM     15  H15 BZU d   1      -3.603   1.337  15.209  0.00  0.00     0.087 H 
ENDROOT
BRANCH  13  16
ATOM     16  C11 BZU d   1      -3.349   7.408  13.935  0.00  0.00     0.013 C 
ATOM     17  H4  BZU d   1      -4.075   8.141  14.317  0.00  0.00     0.060 H 
ATOM     18  H5  BZU d   1      -3.131   7.624  12.879  0.00  0.00     0.060 H 
BRANCH  16  19
ATOM     19  C12 BZU d   1      -2.076   7.426  14.764  0.00  0.00     0.031 C 
ATOM     20  H6  BZU d   1      -1.470   6.546  14.503  0.00  0.00     0.076 H 
ATOM     21  H7  BZU d   1      -2.346   7.383  15.830  0.00  0.00     0.076 H 
BRANCH  19  22
ATOM     22  O13 BZU d   1      -1.307   8.596  14.533  0.00  0.00    -0.390 OA
BRANCH  22  23
ATOM     23  C14 BZU d   1      -1.915   9.769  15.059  0.00  0.00     0.016 C 
ATOM     24  H8  BZU d   1      -2.327   9.549  16.055  0.00  0.00     0.073 H 
ATOM     25  H9  BZU d   1      -2.727  10.089  14.389  0.00  0.00     0.073 H 
BRANCH  23  26
ATOM     26  C15 BZU d   1      -0.878  10.903  15.178  0.00  0.00    -0.056 C 
ATOM     27  H10 BZU d   1      -1.363  11.802  15.586  0.00  0.00     0.030 H 
ATOM     28  H11 BZU d   1      -0.465  11.128  14.184  0.00  0.00     0.030 H 
ATOM     29  H12 BZU d   1      -0.066  10.588  15.850  0.00  0.00     0.030 H 
ENDBRANCH  23  26
ENDBRANCH  22  23
ENDBRANCH  19  22
ENDBRANCH  16  19
ENDBRANCH  13  16
BRANCH   5  30
ATOM     30  N16 BZU d   1      -2.776   2.895  12.649  0.00  0.00    -0.066 N 
ATOM     31  H16 BZU d   1      -3.554   2.933  12.010  0.00  0.00     0.278 HD
ATOM     32  H17 BZU d   1      -2.745   1.988  13.088  0.00  0.00     0.278 HD
BRANCH  30  33
ATOM     33  C17 BZU d   1      -1.564   3.011  11.841  0.00  0.00     0.079 C 
ATOM     34  H18 BZU d   1      -0.691   2.925  12.504  0.00  0.00     0.075 H 
ATOM     35  H19 BZU d   1      -1.560   3.998  11.354  0.00  0.00     0.075 H 
BRANCH  33  36
ATOM     36  C18 BZU d   1      -1.463   1.927  10.754  0.00  0.00    -0.053 C 
ATOM     37  H20 BZU d   1      -0.534   2.067  10.182  0.00  0.00     0.029 H 
ATOM     38  H21 BZU d   1      -2.326   2.006  10.076  0.00  0.00     0.029 H 
ATOM     39  H22 BZU d   1      -1.457   0.934  11.226  0.00  0.00     0.029 H 
ENDBRANCH  33  36
ENDBRANCH  30  33
ENDBRANCH   5  30
BRANCH   3  40
ATOM     40  S1  BZU d   1      -5.966   0.750  16.997  0.00  0.00     0.263 S 
ATOM     41  O1A BZU d   1      -5.425   0.994  18.287  0.00  0.00    -0.200 OA
ATOM     42  O2A BZU d   1      -7.398   0.817  16.995  0.00  0.00    -0.200 OA
BRANCH  40  43
ATOM     43  N21 BZU d   1      -5.486  -0.545  16.461  0.00  0.00    -0.324 N 
ATOM     44  H13 BZU d   1      -5.723  -1.398  16.927  0.00  0.00     0.169 HD
ATOM     45  H14 BZU d   1      -4.925  -0.567  15.634  0.00  0.00     0.169 HD
ENDBRANCH  40  43
ENDBRANCH   3  40
TORSDOF 10
