REMARK  14 active torsions:
REMARK  status: ('A' for Active; 'I' for Inactive)
REMARK    1  A    between atoms: C1_1  and  C8_11 
REMARK    2  A    between atoms: C6_6  and  N3_13 
REMARK    3  A    between atoms: C6_6  and  C9_14 
REMARK       I    between atoms: C8_11  and  N_21 
REMARK    4  A    between atoms: C9_14  and  C10_15 
REMARK    5  A    between atoms: N_21  and  CA_22 
REMARK    6  A    between atoms: CA_22  and  C_23 
REMARK    7  A    between atoms: CA_22  and  CB_25 
REMARK    8  A    between atoms: C_23  and  O_24 
REMARK    9  A    between atoms: C_23  and  C_31 
REMARK   10  A    between atoms: CB_25  and  CG_26 
REMARK   11  A    between atoms: CG_26  and  CD_27 
REMARK   12  A    between atoms: CD_27  and  CE_28 
REMARK   13  A    between atoms: CE_28  and  NZ_29 
REMARK       I    between atoms: C_31  and  N_30 
REMARK   14  A    between atoms: N_30  and  C1_33 
ROOT
ATOM      1  CA  00K d   1      14.494 -11.892  19.909  0.00  0.00     0.045 C 
ATOM      2  H22 00K d   1      14.373 -12.887  19.457  0.00  0.00     0.077 H 
ENDROOT
BRANCH   1   3
ATOM      3  N   00K d   1      15.647 -12.089  20.769  0.00  0.00    -0.352 N 
ATOM      4  C8  00K d   1      16.638 -13.061  20.755  0.00  0.00     0.243 C 
ATOM      5  O2  00K d   1      16.462 -13.962  19.837  0.00  0.00    -0.271 OA
ATOM      6  H21 00K d   1      15.744 -11.408  21.495  0.00  0.00     0.163 HD
BRANCH   4   7
ATOM      7  C1  00K d   1      17.833 -13.042  21.662  0.00  0.00     0.121 C 
ATOM      8  C2  00K d   1      18.887 -13.071  20.587  0.00  0.00    -0.011 C 
ATOM      9  C3  00K d   1      19.851 -14.220  21.117  0.00  0.00     0.107 C 
ATOM     10  H2  00K d   1      19.413 -12.108  20.514  0.00  0.00     0.039 H 
ATOM     11  H3  00K d   1      18.456 -13.328  19.608  0.00  0.00     0.039 H 
ATOM     12  N1  00K d   1      18.852 -15.242  21.444  0.00  0.00     0.014 N 
ATOM     13  H4  00K d   1      20.419 -13.903  22.004  0.00  0.00     0.079 H 
ATOM     14  H5  00K d   1      20.548 -14.562  20.338  0.00  0.00     0.079 H 
ATOM     15  C4  00K d   1      19.327 -16.444  22.156  0.00  0.00     0.107 C 
ATOM     16  N2  00K d   1      17.775 -14.509  22.048  0.00  0.00    -0.162 N 
ATOM     17  H10 00K d   1      18.504 -15.596  20.567  0.00  0.00     0.309 HD
ATOM     18  C5  00K d   1      18.134 -17.230  22.762  0.00  0.00    -0.000 C 
ATOM     19  H6  00K d   1      19.865 -17.093  21.450  0.00  0.00     0.079 H 
ATOM     20  H7  00K d   1      20.007 -16.139  22.965  0.00  0.00     0.079 H 
ATOM     21  C6  00K d   1      17.223 -16.329  23.597  0.00  0.00     0.210 C 
ATOM     22  H8  00K d   1      18.526 -18.032  23.404  0.00  0.00     0.040 H 
ATOM     23  H9  00K d   1      17.546 -17.670  21.944  0.00  0.00     0.040 H 
ATOM     24  C7  00K d   1      17.032 -14.923  23.046  0.00  0.00     0.281 C 
ATOM     25  O1  00K d   1      15.985 -14.290  23.380  0.00  0.00    -0.269 OA
ATOM     26  H1  00K d   1      17.906 -12.284  22.456  0.00  0.00     0.091 H 
BRANCH  21  27
ATOM     27  N3  00K d   1      15.809 -16.730  23.661  0.00  0.00    -0.061 N 
ATOM     28  H11 00K d   1      15.299 -16.074  24.232  0.00  0.00     0.275 HD
ATOM     29  H12 00K d   1      15.739 -17.651  24.064  0.00  0.00     0.275 HD
ATOM     30  H13 00K d   1      15.420 -16.739  22.731  0.00  0.00     0.275 HD
ENDBRANCH  21  27
BRANCH  21  31
ATOM     31  C9  00K d   1      17.415 -16.417  25.123  0.00  0.00    -0.001 C 
ATOM     32  H14 00K d   1      17.261 -17.461  25.433  0.00  0.00     0.044 H 
ATOM     33  H15 00K d   1      16.662 -15.777  25.605  0.00  0.00     0.044 H 
BRANCH  31  34
ATOM     34  C10 00K d   1      18.764 -15.984  25.582  0.00  0.00    -0.055 A 
ATOM     35  C11 00K d   1      19.051 -14.634  25.760  0.00  0.00    -0.077 A 
ATOM     36  C12 00K d   1      20.391 -14.252  26.076  0.00  0.00    -0.082 A 
ATOM     37  H16 00K d   1      18.273 -13.886  25.661  0.00  0.00     0.084 H 
ATOM     38  C13 00K d   1      21.429 -15.178  26.215  0.00  0.00    -0.083 A 
ATOM     39  H17 00K d   1      20.612 -13.200  26.214  0.00  0.00     0.083 H 
ATOM     40  C14 00K d   1      21.099 -16.548  26.098  0.00  0.00    -0.082 A 
ATOM     41  H18 00K d   1      22.447 -14.858  26.405  0.00  0.00     0.083 H 
ATOM     42  C15 00K d   1      19.789 -16.951  25.756  0.00  0.00    -0.077 A 
ATOM     43  H19 00K d   1      21.861 -17.299  26.273  0.00  0.00     0.083 H 
ATOM     44  H20 00K d   1      19.565 -18.004  25.626  0.00  0.00     0.084 H 
ENDBRANCH  31  34
ENDBRANCH  21  31
ENDBRANCH   4   7
ENDBRANCH   1   3
BRANCH   1  45
ATOM     45  C   00K d   1      14.496 -10.945  18.713  0.00  0.00     0.131 C 
ATOM     46  H23 00K d   1      14.904  -9.996  19.090  0.00  0.00     0.101 H 
BRANCH  45  47
ATOM     47  O   00K d   1      13.380 -10.684  18.077  0.00  0.00    -0.384 OA
ATOM     48  H24 00K d   1      13.557 -10.081  17.364  0.00  0.00     0.210 HD
ENDBRANCH  45  47
BRANCH  45  49
ATOM     49  C   00K d   1      15.345 -11.435  17.551  0.00  0.00     0.248 C 
ATOM     50  N   00K d   1      14.804 -11.921  16.457  0.00  0.00    -0.354 N 
ATOM     51  H36 00K d   1      13.810 -12.010  16.390  0.00  0.00     0.162 HD
ATOM     52  O   00K d   1      16.474 -11.089  17.731  0.00  0.00    -0.271 OA
BRANCH  50  53
ATOM     53  C1  00K d   1      15.651 -12.333  15.335  0.00  0.00     0.012 C 
ATOM     54  C2  00K d   1      16.039 -13.796  15.250  0.00  0.00    -0.046 C 
ATOM     55  C3  00K d   1      14.956 -14.603  14.539  0.00  0.00    -0.063 C 
ATOM     56  H38 00K d   1      16.175 -14.193  16.267  0.00  0.00     0.035 H 
ATOM     57  H39 00K d   1      16.982 -13.887  14.691  0.00  0.00     0.035 H 
ATOM     58  C4  00K d   1      14.599 -13.999  13.180  0.00  0.00    -0.065 C 
ATOM     59  H40 00K d   1      14.054 -14.621  15.169  0.00  0.00     0.033 H 
ATOM     60  H41 00K d   1      15.319 -15.630  14.388  0.00  0.00     0.033 H 
ATOM     61  C5  00K d   1      14.168 -12.561  13.354  0.00  0.00    -0.063 C 
ATOM     62  H42 00K d   1      13.777 -14.574  12.730  0.00  0.00     0.033 H 
ATOM     63  H43 00K d   1      15.479 -14.039  12.521  0.00  0.00     0.033 H 
ATOM     64  C6  00K d   1      15.277 -11.740  13.998  0.00  0.00    -0.046 C 
ATOM     65  H44 00K d   1      13.275 -12.527  13.995  0.00  0.00     0.033 H 
ATOM     66  H45 00K d   1      13.929 -12.134  12.369  0.00  0.00     0.033 H 
ATOM     67  H46 00K d   1      16.159 -11.740  13.340  0.00  0.00     0.035 H 
ATOM     68  H47 00K d   1      14.928 -10.707  14.143  0.00  0.00     0.035 H 
ATOM     69  H37 00K d   1      16.607 -11.842  15.569  0.00  0.00     0.072 H 
ENDBRANCH  50  53
ENDBRANCH  45  49
ENDBRANCH   1  45
BRANCH   1  70
ATOM     70  CB  00K d   1      13.195 -11.615  20.628  0.00  0.00    -0.043 C 
ATOM     71  H25 00K d   1      12.382 -11.695  19.892  0.00  0.00     0.036 H 
ATOM     72  H26 00K d   1      13.239 -10.586  21.015  0.00  0.00     0.036 H 
BRANCH  70  73
ATOM     73  CG  00K d   1      12.867 -12.504  21.757  0.00  0.00    -0.062 C 
ATOM     74  H27 00K d   1      13.667 -12.412  22.506  0.00  0.00     0.033 H 
ATOM     75  H28 00K d   1      12.836 -13.537  21.379  0.00  0.00     0.033 H 
BRANCH  73  76
ATOM     76  CD  00K d   1      11.561 -12.220  22.437  0.00  0.00    -0.043 C 
ATOM     77  H29 00K d   1      10.780 -12.089  21.674  0.00  0.00     0.035 H 
ATOM     78  H30 00K d   1      11.656 -11.296  23.027  0.00  0.00     0.035 H 
BRANCH  76  79
ATOM     79  CE  00K d   1      11.170 -13.351  23.353  0.00  0.00     0.080 C 
ATOM     80  H31 00K d   1      12.040 -13.587  23.983  0.00  0.00     0.075 H 
ATOM     81  H32 00K d   1      10.926 -14.220  22.725  0.00  0.00     0.075 H 
BRANCH  79  82
ATOM     82  NZ  00K d   1      10.038 -13.111  24.235  0.00  0.00    -0.079 N 
ATOM     83  H33 00K d   1       9.870 -13.931  24.797  0.00  0.00     0.274 HD
ATOM     84  H34 00K d   1       9.219 -12.908  23.683  0.00  0.00     0.274 HD
ATOM     85  H35 00K d   1      10.241 -12.328  24.836  0.00  0.00     0.274 HD
ENDBRANCH  79  82
ENDBRANCH  76  79
ENDBRANCH  73  76
ENDBRANCH  70  73
ENDBRANCH   1  70
TORSDOF 14
