REMARK  10 active torsions:
REMARK  status: ('A' for Active; 'I' for Inactive)
REMARK    1  A    between atoms: C2_4  and  C1_1 
REMARK    2  A    between atoms: C4_6  and  NE_20 
REMARK    3  A    between atoms: C5_7  and  N5_8 
REMARK       I    between atoms: N5_8  and  C10_9 
REMARK    4  A    between atoms: C10_9  and  C11_11 
REMARK    5  A    between atoms: C6_12  and  C7_14 
REMARK    6  A    between atoms: C7_14  and  C8_16 
REMARK    7  A    between atoms: C7_14  and  O7_15 
REMARK    8  A    between atoms: C8_16  and  C9_18 
REMARK    9  A    between atoms: C8_16  and  O8_17 
REMARK   10  A    between atoms: C9_18  and  O9_19 
REMARK       I    between atoms: NE_20  and  CZ_21 
REMARK       I    between atoms: CZ_21  and  NH1_22 
ROOT
ATOM      1  C2  ZMR d   1      -2.330  57.401  -6.798  0.00  0.00     0.144 C 
ATOM      2  C3  ZMR d   1      -1.468  56.385  -6.967  0.00  0.00    -0.040 C 
ATOM      3  C4  ZMR d   1      -1.502  55.541  -8.205  0.00  0.00     0.068 C 
ATOM      4  C5  ZMR d   1      -2.290  56.169  -9.297  0.00  0.00     0.063 C 
ATOM      5  C6  ZMR d   1      -3.594  56.764  -8.686  0.00  0.00     0.094 C 
ATOM      6  O6  ZMR d   1      -3.271  57.709  -7.670  0.00  0.00    -0.335 OA
ATOM      7  H1  ZMR d   1      -0.733  56.171  -6.192  0.00  0.00     0.084 H 
ATOM      8  H2  ZMR d   1      -2.011  54.605  -7.931  0.00  0.00     0.083 H 
ATOM      9  H3  ZMR d   1      -1.697  56.967  -9.767  0.00  0.00     0.080 H 
ATOM     10  H8  ZMR d   1      -4.085  55.919  -8.180  0.00  0.00     0.091 H 
ENDROOT
BRANCH   5  11
ATOM     11  C7  ZMR d   1      -4.646  57.312  -9.638  0.00  0.00     0.089 C 
ATOM     12  H9  ZMR d   1      -5.014  56.559 -10.350  0.00  0.00     0.091 H 
BRANCH  11  13
ATOM     13  C8  ZMR d   1      -5.827  57.857  -9.022  0.00  0.00     0.083 C 
ATOM     14  H11 ZMR d   1      -5.548  58.608  -8.269  0.00  0.00     0.090 H 
BRANCH  13  15
ATOM     15  C9  ZMR d   1      -6.836  58.483  -9.983  0.00  0.00     0.043 C 
ATOM     16  H13 ZMR d   1      -6.320  59.207 -10.631  0.00  0.00     0.078 H 
ATOM     17  H14 ZMR d   1      -7.616  59.000  -9.405  0.00  0.00     0.078 H 
BRANCH  15  18
ATOM     18  O9  ZMR d   1      -7.439  57.473 -10.791  0.00  0.00    -0.398 OA
ATOM     19  H15 ZMR d   1      -7.887  56.848 -10.233  0.00  0.00     0.209 HD
ENDBRANCH  15  18
ENDBRANCH  13  15
BRANCH  13  20
ATOM     20  O8  ZMR d   1      -6.401  56.698  -8.411  0.00  0.00    -0.391 OA
ATOM     21  H12 ZMR d   1      -6.630  56.067  -9.084  0.00  0.00     0.210 HD
ENDBRANCH  13  20
ENDBRANCH  11  13
BRANCH  11  22
ATOM     22  O7  ZMR d   1      -3.818  57.892 -10.082  0.00  0.00    -0.390 OA
ATOM     23  H10 ZMR d   1      -3.429  58.448  -9.416  0.00  0.00     0.210 HD
ENDBRANCH  11  22
ENDBRANCH   5  11
BRANCH   4  24
ATOM     24  N5  ZMR d   1      -2.654  55.178 -10.299  0.00  0.00    -0.352 N 
ATOM     25  C10 ZMR d   1      -2.114  55.123 -11.520  0.00  0.00     0.214 C 
ATOM     26  O10 ZMR d   1      -1.380  55.977 -11.975  0.00  0.00    -0.274 OA
ATOM     27  H4  ZMR d   1      -3.348  54.499 -10.060  0.00  0.00     0.163 HD
BRANCH  25  28
ATOM     28  C11 ZMR d   1      -2.468  53.883 -12.316  0.00  0.00    -0.003 C 
ATOM     29  H5  ZMR d   1      -1.980  53.928 -13.301  0.00  0.00     0.040 H 
ATOM     30  H6  ZMR d   1      -3.559  53.832 -12.449  0.00  0.00     0.040 H 
ATOM     31  H7  ZMR d   1      -2.122  52.989 -11.776  0.00  0.00     0.040 H 
ENDBRANCH  25  28
ENDBRANCH   4  24
BRANCH   3  32
ATOM     32  NE  ZMR d   1      -0.189  55.181  -8.695  0.00  0.00    -0.217 N 
ATOM     33  CZ  ZMR d   1       0.043  54.030  -9.320  0.00  0.00     0.665 C 
ATOM     34  NH2 ZMR d   1       1.216  53.867  -9.926  0.00  0.00    -0.235 N 
ATOM     35  NH1 ZMR d   1      -0.896  53.081  -9.402  0.00  0.00    -0.235 N 
ATOM     36  H19 ZMR d   1       1.936  54.600  -9.860  0.00  0.00     0.174 HD
ATOM     37  H20 ZMR d   1       1.404  53.007 -10.461  0.00  0.00     0.174 HD
ATOM     38  H17 ZMR d   1      -0.694  52.197  -9.891  0.00  0.00     0.174 HD
ATOM     39  H18 ZMR d   1      -1.821  53.234  -8.976  0.00  0.00     0.174 HD
ATOM     40  H16 ZMR d   1       0.592  55.838  -8.555  0.00  0.00     0.178 HD
ENDBRANCH   3  32
BRANCH   1  41
ATOM     41  C1  ZMR d   1      -2.250  58.242  -5.591  0.00  0.00     0.233 C 
ATOM     42  O1B ZMR d   1      -1.372  58.041  -4.813  0.00  0.00    -0.642 OA
ATOM     43  O1A ZMR d   1      -3.172  59.198  -5.452  0.00  0.00    -0.642 OA
ENDBRANCH   1  41
TORSDOF 10
