REMARK  13 active torsions:
REMARK  status: ('A' for Active; 'I' for Inactive)
REMARK    1  A    between atoms: C6_17  and  O2_2 
REMARK    2  A    between atoms: O2_2  and  C23_34 
REMARK    3  A    between atoms: C7_18  and  O3_3 
REMARK    4  A    between atoms: O3_3  and  C24_35 
REMARK    5  A    between atoms: C11_22  and  O5_5 
REMARK    6  A    between atoms: C12_23  and  O6_6 
REMARK    7  A    between atoms: O6_6  and  C27_38 
REMARK    8  A    between atoms: C17_28  and  O7_7 
REMARK    9  A    between atoms: O7_7  and  C29_40 
REMARK       I    between atoms: C24_35  and  N2_11 
REMARK   10  A    between atoms: C2_13  and  C22_33 
REMARK   11  A    between atoms: C8_19  and  C25_36 
REMARK   12  A    between atoms: C10_21  and  C26_37 
REMARK   13  A    between atoms: C14_25  and  C28_39 
ROOT
ATOM      1  O1  GDM d   1      11.898  -4.106  -0.077  0.00  0.00    -0.268 OA
ATOM      2  O8  GDM d   1      13.201  -6.302  -6.597  0.00  0.00    -0.285 OA
ATOM      3  O9  GDM d   1      10.477  -2.628  -3.899  0.00  0.00    -0.285 OA
ATOM      4  N1  GDM d   1      11.419  -4.621  -2.308  0.00  0.00    -0.320 N 
ATOM      5  C1  GDM d   1      11.946  -3.771  -1.272  0.00  0.00     0.251 C 
ATOM      6  C2  GDM d   1      12.587  -2.355  -1.405  0.00  0.00     0.006 C 
ATOM      7  C3  GDM d   1      13.818  -2.408  -2.034  0.00  0.00    -0.072 C 
ATOM      8  C4  GDM d   1      14.902  -1.403  -2.237  0.00  0.00    -0.083 C 
ATOM      9  C5  GDM d   1      16.195  -1.727  -2.568  0.00  0.00    -0.073 C 
ATOM     10  C6  GDM d   1      17.005  -3.009  -2.825  0.00  0.00     0.083 C 
ATOM     11  C7  GDM d   1      17.452  -3.252  -4.295  0.00  0.00     0.099 C 
ATOM     12  C8  GDM d   1      16.481  -3.208  -5.457  0.00  0.00    -0.055 C 
ATOM     13  C9  GDM d   1      16.680  -2.360  -6.483  0.00  0.00    -0.092 C 
ATOM     14  C10 GDM d   1      16.041  -1.975  -7.800  0.00  0.00    -0.014 C 
ATOM     15  C11 GDM d   1      15.434  -0.654  -8.327  0.00  0.00     0.067 C 
ATOM     16  C12 GDM d   1      14.432   0.062  -7.381  0.00  0.00     0.063 C 
ATOM     17  C13 GDM d   1      12.942  -0.268  -7.526  0.00  0.00    -0.035 C 
ATOM     18  C14 GDM d   1      12.371  -0.808  -6.199  0.00  0.00    -0.051 C 
ATOM     19  C15 GDM d   1      11.223  -1.847  -6.504  0.00  0.00    -0.031 C 
ATOM     20  C16 GDM d   1      11.362  -3.286  -6.025  0.00  0.00     0.032 C 
ATOM     21  C17 GDM d   1      11.723  -4.368  -6.823  0.00  0.00     0.128 C 
ATOM     22  C18 GDM d   1      12.456  -5.530  -6.018  0.00  0.00     0.208 C 
ATOM     23  C19 GDM d   1      12.204  -5.685  -4.540  0.00  0.00    -0.002 C 
ATOM     24  C20 GDM d   1      11.538  -4.718  -3.851  0.00  0.00     0.090 C 
ATOM     25  C21 GDM d   1      11.080  -3.478  -4.551  0.00  0.00     0.207 C 
ATOM     26  H2  GDM d   1      10.822  -5.332  -1.937  0.00  0.00     0.169 HD
ATOM     27  H5  GDM d   1      14.041  -3.381  -2.469  0.00  0.00     0.084 H 
ATOM     28  H6  GDM d   1      14.653  -0.350  -2.115  0.00  0.00     0.083 H 
ATOM     29  H7  GDM d   1      16.813  -0.837  -2.678  0.00  0.00     0.081 H 
ATOM     30  H8  GDM d   1      16.511  -3.884  -2.377  0.00  0.00     0.094 H 
ATOM     31  H9  GDM d   1      18.099  -2.379  -4.466  0.00  0.00     0.096 H 
ATOM     32  H10 GDM d   1      17.578  -1.768  -6.313  0.00  0.00     0.078 H 
ATOM     33  H11 GDM d   1      15.248  -2.718  -7.972  0.00  0.00     0.049 H 
ATOM     34  H12 GDM d   1      16.245   0.043  -8.586  0.00  0.00     0.087 H 
ATOM     35  H13 GDM d   1      14.727  -0.162  -6.345  0.00  0.00     0.087 H 
ATOM     36  H14 GDM d   1      12.816  -1.029  -8.310  0.00  0.00     0.037 H 
ATOM     37  H15 GDM d   1      12.396   0.644  -7.809  0.00  0.00     0.037 H 
ATOM     38  H16 GDM d   1      13.167  -1.461  -5.811  0.00  0.00     0.040 H 
ATOM     39  H17 GDM d   1      11.108  -1.884  -7.597  0.00  0.00     0.041 H 
ATOM     40  H18 GDM d   1      10.303  -1.448  -6.052  0.00  0.00     0.041 H 
ATOM     41  H19 GDM d   1      12.556  -6.575  -4.021  0.00  0.00     0.093 H 
ENDROOT
BRANCH  11  42
ATOM     42  O3  GDM d   1      18.306  -4.396  -4.570  0.00  0.00    -0.291 OA
BRANCH  42  43
ATOM     43  C24 GDM d   1      19.521  -4.168  -5.003  0.00  0.00     0.359 C 
ATOM     44  O4  GDM d   1      19.821  -3.257  -5.713  0.00  0.00    -0.239 OA
ATOM     45  N2  GDM d   1      20.461  -5.093  -4.851  0.00  0.00    -0.346 N 
ATOM     46  H3  GDM d   1      21.389  -4.921  -5.181  0.00  0.00     0.161 HD
ATOM     47  H4  GDM d   1      20.241  -5.961  -4.407  0.00  0.00     0.161 HD
ENDBRANCH  42  43
ENDBRANCH  11  42
BRANCH  10  48
ATOM     48  O2  GDM d   1      18.316  -2.734  -2.338  0.00  0.00    -0.384 OA
BRANCH  48  49
ATOM     49  C23 GDM d   1      18.522  -2.758  -0.942  0.00  0.00     0.005 C 
ATOM     50  H23 GDM d   1      19.575  -2.528  -0.723  0.00  0.00     0.066 H 
ATOM     51  H24 GDM d   1      18.276  -3.757  -0.552  0.00  0.00     0.066 H 
ATOM     52  H25 GDM d   1      17.876  -2.008  -0.463  0.00  0.00     0.066 H 
ENDBRANCH  48  49
ENDBRANCH  10  48
BRANCH  12  53
ATOM     53  C25 GDM d   1      15.788  -4.524  -5.398  0.00  0.00    -0.052 C 
ATOM     54  H26 GDM d   1      15.053  -4.588  -6.214  0.00  0.00     0.033 H 
ATOM     55  H27 GDM d   1      15.273  -4.624  -4.431  0.00  0.00     0.033 H 
ATOM     56  H28 GDM d   1      16.526  -5.332  -5.505  0.00  0.00     0.033 H 
ENDBRANCH  12  53
BRANCH  14  57
ATOM     57  C26 GDM d   1      17.263  -2.256  -8.665  0.00  0.00    -0.067 C 
ATOM     58  H29 GDM d   1      17.739  -3.191  -8.334  0.00  0.00     0.028 H 
ATOM     59  H30 GDM d   1      17.979  -1.426  -8.569  0.00  0.00     0.028 H 
ATOM     60  H31 GDM d   1      16.954  -2.354  -9.716  0.00  0.00     0.028 H 
ENDBRANCH  14  57
BRANCH  15  61
ATOM     61  O5  GDM d   1      14.676  -1.045  -9.501  0.00  0.00    -0.392 OA
ATOM     62  H1  GDM d   1      14.269  -0.277  -9.884  0.00  0.00     0.210 HD
ENDBRANCH  15  61
BRANCH   6  63
ATOM     63  C22 GDM d   1      12.012  -1.067  -0.662  0.00  0.00    -0.046 C 
ATOM     64  H20 GDM d   1      11.018  -1.295  -0.250  0.00  0.00     0.033 H 
ATOM     65  H21 GDM d   1      11.931  -0.236  -1.378  0.00  0.00     0.033 H 
ATOM     66  H22 GDM d   1      12.691  -0.781   0.155  0.00  0.00     0.033 H 
ENDBRANCH   6  63
BRANCH  16  67
ATOM     67  O6  GDM d   1      14.563   1.448  -7.639  0.00  0.00    -0.388 OA
BRANCH  67  68
ATOM     68  C27 GDM d   1      15.158   2.253  -6.638  0.00  0.00     0.005 C 
ATOM     69  H32 GDM d   1      15.191   3.298  -6.979  0.00  0.00     0.066 H 
ATOM     70  H33 GDM d   1      16.181   1.899  -6.443  0.00  0.00     0.066 H 
ATOM     71  H34 GDM d   1      14.565   2.187  -5.714  0.00  0.00     0.066 H 
ENDBRANCH  67  68
ENDBRANCH  16  67
BRANCH  18  72
ATOM     72  C28 GDM d   1      12.302   0.291  -5.071  0.00  0.00    -0.073 C 
ATOM     73  H35 GDM d   1      13.232   0.879  -5.074  0.00  0.00     0.028 H 
ATOM     74  H36 GDM d   1      12.179  -0.196  -4.092  0.00  0.00     0.028 H 
ATOM     75  H37 GDM d   1      11.447   0.957  -5.259  0.00  0.00     0.028 H 
ENDBRANCH  18  72
BRANCH  21  76
ATOM     76  O7  GDM d   1      11.438  -4.414  -8.256  0.00  0.00    -0.351 OA
BRANCH  76  77
ATOM     77  C29 GDM d   1      10.642  -5.362  -9.133  0.00  0.00     0.011 C 
ATOM     78  H38 GDM d   1      10.688  -5.021 -10.178  0.00  0.00     0.067 H 
ATOM     79  H39 GDM d   1       9.594  -5.379  -8.798  0.00  0.00     0.067 H 
ATOM     80  H40 GDM d   1      11.067  -6.374  -9.059  0.00  0.00     0.067 H 
ENDBRANCH  76  77
ENDBRANCH  21  76
TORSDOF 13
