REMARK  5 active torsions:
REMARK  status: ('A' for Active; 'I' for Inactive)
REMARK    1  A    between atoms: N9_10  and  C1'_11 
REMARK    2  A    between atoms: C2'_12  and  O2'_13 
REMARK    3  A    between atoms: C3'_14  and  O3'_15 
REMARK    4  A    between atoms: C4'_16  and  C5'_18 
REMARK    5  A    between atoms: C5'_18  and  O5'_19 
ROOT
ATOM      1  C1' PRH d   1      42.335  19.866  49.234  0.00  0.00     0.139 C 
ATOM      2  C2' PRH d   1      41.676  18.571  48.682  0.00  0.00     0.105 C 
ATOM      3  C3' PRH d   1      41.057  18.841  47.277  0.00  0.00     0.091 C 
ATOM      4  C4' PRH d   1      42.175  19.956  47.024  0.00  0.00     0.088 C 
ATOM      5  O4' PRH d   1      42.362  20.742  48.139  0.00  0.00    -0.353 OA
ATOM      6  H4  PRH d   1      43.354  19.661  49.595  0.00  0.00     0.122 H 
ATOM      7  H5  PRH d   1      40.877  18.258  49.371  0.00  0.00     0.093 H 
ATOM      8  H7  PRH d   1      40.013  19.186  47.257  0.00  0.00     0.091 H 
ATOM      9  H9  PRH d   1      43.120  19.430  46.822  0.00  0.00     0.090 H 
ENDROOT
BRANCH   1  10
ATOM     10  N9  PRH d   1      41.539  20.430  50.316  0.00  0.00    -0.294 N 
ATOM     11  C4  PRH d   1      42.022  20.884  51.512  0.00  0.00     0.164 A 
ATOM     12  N3  PRH d   1      43.310  20.969  52.035  0.00  0.00    -0.224 NA
ATOM     13  C5  PRH d   1      40.967  21.301  52.244  0.00  0.00     0.145 A 
ATOM     14  C2  PRH d   1      43.521  21.458  53.258  0.00  0.00     0.065 A 
ATOM     15  N1  PRH d   1      42.518  21.884  54.021  0.00  0.00    -0.341 N 
ATOM     16  H2  PRH d   1      44.539  21.510  53.641  0.00  0.00     0.143 H 
ATOM     17  C6  PRH d   1      41.200  21.832  53.561  0.00  0.00     0.277 A 
ATOM     18  H1  PRH d   1      42.710  22.245  54.934  0.00  0.00     0.164 HD
ATOM     19  O6  PRH d   1      40.546  23.295  53.683  0.00  0.00    -0.192 OA
ATOM     20  N7  PRH d   1      39.843  21.110  51.507  0.00  0.00    -0.239 NA
ATOM     21  C8  PRH d   1      40.196  20.578  50.335  0.00  0.00     0.070 A 
ATOM     22  H3  PRH d   1      39.515  20.308  49.529  0.00  0.00     0.144 H 
ENDBRANCH   1  10
BRANCH   2  23
ATOM     23  O2' PRH d   1      42.647  17.516  48.585  0.00  0.00    -0.388 OA
ATOM     24  H6  PRH d   1      42.229  16.733  48.247  0.00  0.00     0.210 HD
ENDBRANCH   2  23
BRANCH   3  25
ATOM     25  O3' PRH d   1      41.267  17.704  46.435  0.00  0.00    -0.390 OA
ATOM     26  H8  PRH d   1      40.889  17.871  45.580  0.00  0.00     0.210 HD
ENDBRANCH   3  25
BRANCH   4  27
ATOM     27  C5' PRH d   1      41.865  20.840  45.796  0.00  0.00     0.043 C 
ATOM     28  H10 PRH d   1      41.755  20.195  44.911  0.00  0.00     0.078 H 
ATOM     29  H11 PRH d   1      42.700  21.538  45.639  0.00  0.00     0.078 H 
BRANCH  27  30
ATOM     30  O5' PRH d   1      40.655  21.594  45.976  0.00  0.00    -0.398 OA
ATOM     31  H12 PRH d   1      40.744  22.157  46.736  0.00  0.00     0.209 HD
ENDBRANCH  27  30
ENDBRANCH   4  27
TORSDOF 5
