REMARK  11 active torsions:
REMARK  status: ('A' for Active; 'I' for Inactive)
REMARK    1  A    between atoms: C2_4  and  C1_1 
REMARK    2  A    between atoms: C4_6  and  NE_28 
REMARK    3  A    between atoms: C5_7  and  N5_8 
REMARK       I    between atoms: N5_8  and  C10_9 
REMARK    4  A    between atoms: C10_9  and  C11_11 
REMARK    5  A    between atoms: C6_12  and  C7_14 
REMARK       I    between atoms: C7_14  and  N8_16 
REMARK    6  A    between atoms: N8_16  and  C9_25 
REMARK    7  A    between atoms: N8_16  and  C81_17 
REMARK    8  A    between atoms: C81_17  and  C82_18 
REMARK    9  A    between atoms: C82_18  and  CG_19 
REMARK   10  A    between atoms: C9_25  and  C91_26 
REMARK   11  A    between atoms: C91_26  and  C92_27 
ROOT
ATOM      1  C7  DPC d   1      -4.255  57.505  -9.674  0.00  0.00     0.251 C 
ATOM      2  O7  DPC d   1      -3.743  58.263  -9.997  0.00  0.00    -0.270 OA
ATOM      3  N8  DPC d   1      -5.380  57.030 -10.191  0.00  0.00    -0.350 N 
ENDROOT
BRANCH   3   4
ATOM      4  C9  DPC d   1      -6.081  55.852  -9.685  0.00  0.00    -0.003 C 
ATOM      5  H18 DPC d   1      -5.337  55.096  -9.395  0.00  0.00     0.064 H 
ATOM      6  H19 DPC d   1      -6.719  55.450 -10.486  0.00  0.00     0.064 H 
BRANCH   4   7
ATOM      7  C91 DPC d   1      -6.962  56.171  -8.465  0.00  0.00    -0.053 C 
ATOM      8  H20 DPC d   1      -6.303  56.307  -7.595  0.00  0.00     0.034 H 
ATOM      9  H21 DPC d   1      -7.627  55.312  -8.291  0.00  0.00     0.034 H 
BRANCH   7  10
ATOM     10  C92 DPC d   1      -7.837  57.431  -8.602  0.00  0.00    -0.075 C 
ATOM     11  H22 DPC d   1      -8.425  57.571  -7.683  0.00  0.00     0.027 H 
ATOM     12  H23 DPC d   1      -8.517  57.314  -9.458  0.00  0.00     0.027 H 
ATOM     13  H24 DPC d   1      -7.194  58.309  -8.762  0.00  0.00     0.027 H 
ENDBRANCH   7  10
ENDBRANCH   4   7
ENDBRANCH   3   4
BRANCH   3  14
ATOM     14  C81 DPC d   1      -5.971  57.810 -11.301  0.00  0.00     0.001 C 
ATOM     15  H9  DPC d   1      -5.771  58.878 -11.128  0.00  0.00     0.064 H 
ATOM     16  H10 DPC d   1      -7.057  57.638 -11.314  0.00  0.00     0.064 H 
BRANCH  14  17
ATOM     17  C82 DPC d   1      -5.395  57.417 -12.665  0.00  0.00    -0.026 C 
ATOM     18  H11 DPC d   1      -5.631  56.364 -12.876  0.00  0.00     0.042 H 
ATOM     19  H12 DPC d   1      -4.304  57.554 -12.659  0.00  0.00     0.042 H 
BRANCH  17  20
ATOM     20  CG  DPC d   1      -6.013  58.301 -13.730  0.00  0.00    -0.057 A 
ATOM     21  CD2 DPC d   1      -7.038  57.816 -14.555  0.00  0.00    -0.077 A 
ATOM     22  CE2 DPC d   1      -7.651  58.656 -15.490  0.00  0.00    -0.082 A 
ATOM     23  H14 DPC d   1      -7.357  56.784 -14.467  0.00  0.00     0.084 H 
ATOM     24  CZ  DPC d   1      -7.249  59.992 -15.623  0.00  0.00    -0.083 A 
ATOM     25  H16 DPC d   1      -8.445  58.270 -16.118  0.00  0.00     0.083 H 
ATOM     26  CE1 DPC d   1      -6.202  60.485 -14.823  0.00  0.00    -0.082 A 
ATOM     27  H17 DPC d   1      -7.742  60.641 -16.338  0.00  0.00     0.083 H 
ATOM     28  CD1 DPC d   1      -5.586  59.639 -13.884  0.00  0.00    -0.077 A 
ATOM     29  H15 DPC d   1      -5.872  61.512 -14.930  0.00  0.00     0.083 H 
ATOM     30  H13 DPC d   1      -4.775  60.017 -13.272  0.00  0.00     0.084 H 
ENDBRANCH  17  20
ENDBRANCH  14  17
ENDBRANCH   3  14
BRANCH   1  31
ATOM     31  C6  DPC d   1      -3.528  56.729  -8.599  0.00  0.00     0.143 C 
ATOM     32  C5  DPC d   1      -2.212  56.191  -9.156  0.00  0.00     0.076 C 
ATOM     33  C4  DPC d   1      -1.379  55.627  -8.008  0.00  0.00     0.141 C 
ATOM     34  H3  DPC d   1      -1.659  57.000  -9.656  0.00  0.00     0.081 H 
ATOM     35  C3  DPC d   1      -1.412  56.518  -6.796  0.00  0.00    -0.033 C 
ATOM     36  H2  DPC d   1      -1.791  54.645  -7.731  0.00  0.00     0.093 H 
ATOM     37  C2  DPC d   1      -2.344  57.469  -6.673  0.00  0.00     0.144 C 
ATOM     38  H1  DPC d   1      -0.669  56.387  -6.011  0.00  0.00     0.084 H 
ATOM     39  O6  DPC d   1      -3.293  57.671  -7.587  0.00  0.00    -0.328 OA
ATOM     40  H8  DPC d   1      -4.143  55.897  -8.225  0.00  0.00     0.102 H 
BRANCH  32  41
ATOM     41  N5  DPC d   1      -2.499  55.126 -10.110  0.00  0.00    -0.351 N 
ATOM     42  C10 DPC d   1      -2.137  55.141 -11.402  0.00  0.00     0.214 C 
ATOM     43  O10 DPC d   1      -1.563  56.100 -11.889  0.00  0.00    -0.274 OA
ATOM     44  H4  DPC d   1      -3.001  54.328  -9.778  0.00  0.00     0.163 HD
BRANCH  42  45
ATOM     45  C11 DPC d   1      -2.443  53.871 -12.217  0.00  0.00    -0.003 C 
ATOM     46  H5  DPC d   1      -2.100  54.009 -13.253  0.00  0.00     0.040 H 
ATOM     47  H6  DPC d   1      -3.527  53.684 -12.211  0.00  0.00     0.040 H 
ATOM     48  H7  DPC d   1      -1.920  53.013 -11.769  0.00  0.00     0.040 H 
ENDBRANCH  42  45
ENDBRANCH  32  41
BRANCH  33  49
ATOM     49  NE  DPC d   1      -0.014  55.459  -8.430  0.00  0.00    -0.070 N 
ATOM     50  H25 DPC d   1       0.530  55.087  -7.668  0.00  0.00     0.275 HD
ATOM     51  H26 DPC d   1       0.364  56.351  -8.708  0.00  0.00     0.275 HD
ATOM     52  H27 DPC d   1       0.021  54.822  -9.210  0.00  0.00     0.275 HD
ENDBRANCH  33  49
BRANCH  37  53
ATOM     53  C1  DPC d   1      -2.416  58.309  -5.464  0.00  0.00     0.233 C 
ATOM     54  O1B DPC d   1      -1.599  58.189  -4.561  0.00  0.00    -0.642 OA
ATOM     55  O1A DPC d   1      -3.371  59.064  -5.323  0.00  0.00    -0.642 OA
ENDBRANCH  37  53
ENDBRANCH   1  31
TORSDOF 11
