REMARK  5 active torsions:
REMARK  status: ('A' for Active; 'I' for Inactive)
REMARK    1  A    between atoms: C3P_11  and  C3_1 
REMARK    2  A    between atoms: C2P_12  and  C3P_11 
REMARK    3  A    between atoms: C1P_13  and  C2P_12 
REMARK    4  A    between atoms: OP4_18  and  C1P_13 
REMARK    5  A    between atoms: P_14  and  OP4_18 
ROOT
ATOM      1  C3  FIP d   1      49.722  27.473  14.929  0.00  0.00    -0.030 A 
ATOM      2  C9  FIP d   1      50.274  26.156  14.824  0.00  0.00     0.001 A 
ATOM      3  C8  FIP d   1      51.670  26.273  14.992  0.00  0.00     0.043 A 
ATOM      4  C4  FIP d   1      49.721  24.886  14.611  0.00  0.00    -0.033 A 
ATOM      5  C2  FIP d   1      50.771  28.314  15.133  0.00  0.00    -0.016 A 
ATOM      6  N1  FIP d   1      51.949  27.599  15.184  0.00  0.00    -0.365 N 
ATOM      7  C7  FIP d   1      52.523  25.171  14.948  0.00  0.00    -0.053 A 
ATOM      8  C5  FIP d   1      50.567  23.787  14.581  0.00  0.00     0.117 A 
ATOM      9  C6  FIP d   1      51.956  23.940  14.748  0.00  0.00    -0.043 A 
ATOM     10  F   FIP d   1      50.048  22.565  14.403  0.00  0.00    -0.206 F 
ATOM     11  H1  FIP d   1      48.653  24.765  14.472  0.00  0.00     0.089 H 
ATOM     12  H2  FIP d   1      50.692  29.395  15.240  0.00  0.00     0.112 H 
ATOM     13  H3  FIP d   1      52.886  27.998  15.341  0.00  0.00     0.165 HD
ATOM     14  H4  FIP d   1      53.594  25.284  15.068  0.00  0.00     0.087 H 
ATOM     15  H5  FIP d   1      52.592  23.063  14.718  0.00  0.00     0.088 H 
ENDROOT
BRANCH   1  16
ATOM     16  C3P FIP d   1      48.285  27.843  14.811  0.00  0.00    -0.037 C 
ATOM     17  H6  FIP d   1      48.152  28.895  15.102  0.00  0.00     0.040 H 
ATOM     18  H7  FIP d   1      47.685  27.201  15.473  0.00  0.00     0.040 H 
BRANCH  16  19
ATOM     19  C2P FIP d   1      47.832  27.653  13.373  0.00  0.00    -0.041 C 
ATOM     20  H8  FIP d   1      46.734  27.702  13.328  0.00  0.00     0.036 H 
ATOM     21  H9  FIP d   1      48.170  26.671  13.011  0.00  0.00     0.036 H 
BRANCH  19  22
ATOM     22  C1P FIP d   1      48.422  28.745  12.491  0.00  0.00     0.033 C 
ATOM     23  H10 FIP d   1      49.519  28.724  12.569  0.00  0.00     0.075 H 
ATOM     24  H11 FIP d   1      48.049  29.725  12.824  0.00  0.00     0.075 H 
BRANCH  22  25
ATOM     25  OP4 FIP d   1      48.043  28.531  11.148  0.00  0.00    -0.283 OA
BRANCH  25  26
ATOM     26  P   FIP d   1      48.371  29.625   9.994  0.00  0.00     0.422 P 
ATOM     27  OP1 FIP d   1      49.521  30.441  10.479  0.00  0.00    -0.617 OA
ATOM     28  OP2 FIP d   1      47.101  30.438   9.966  0.00  0.00    -0.617 OA
ATOM     29  OP3 FIP d   1      48.594  28.724   8.850  0.00  0.00    -0.617 OA
ENDBRANCH  25  26
ENDBRANCH  22  25
ENDBRANCH  19  22
ENDBRANCH  16  19
ENDBRANCH   1  16
TORSDOF 5
