REMARK  3 active torsions:
REMARK  status: ('A' for Active; 'I' for Inactive)
REMARK    1  A    between atoms: C3_3  and  O3_4 
REMARK    2  A    between atoms: C13_14  and  C18_20 
REMARK    3  A    between atoms: C17_18  and  O17_19 
ROOT
ATOM      1  C1  EST d   1     107.008  15.860  99.456  0.00  0.00    -0.073 A 
ATOM      2  C2  EST d   1     106.932  16.930 100.366  0.00  0.00    -0.051 A 
ATOM      3  C3  EST d   1     106.833  18.229  99.892  0.00  0.00     0.066 A 
ATOM      4  C4  EST d   1     106.793  18.503  98.487  0.00  0.00    -0.044 A 
ATOM      5  C5  EST d   1     106.876  17.424  97.544  0.00  0.00    -0.049 A 
ATOM      6  C6  EST d   1     106.938  17.714  96.043  0.00  0.00    -0.040 C 
ATOM      7  C7  EST d   1     107.309  16.503  95.165  0.00  0.00    -0.057 C 
ATOM      8  C8  EST d   1     106.672  15.191  95.681  0.00  0.00    -0.042 C 
ATOM      9  C9  EST d   1     107.190  14.870  97.123  0.00  0.00    -0.024 C 
ATOM     10  C10 EST d   1     106.998  16.065  98.050  0.00  0.00    -0.047 A 
ATOM     11  C11 EST d   1     106.590  13.552  97.642  0.00  0.00    -0.057 C 
ATOM     12  C12 EST d   1     106.782  12.364  96.667  0.00  0.00    -0.055 C 
ATOM     13  C13 EST d   1     106.322  12.668  95.240  0.00  0.00    -0.014 C 
ATOM     14  C14 EST d   1     107.020  13.991  94.766  0.00  0.00    -0.041 C 
ATOM     15  C15 EST d   1     106.743  14.016  93.262  0.00  0.00    -0.058 C 
ATOM     16  C16 EST d   1     106.965  12.544  92.837  0.00  0.00    -0.040 C 
ATOM     17  C17 EST d   1     106.876  11.691  94.171  0.00  0.00     0.043 C 
ATOM     18  H1  EST d   1     107.076  14.848  99.839  0.00  0.00     0.084 H 
ATOM     19  H2  EST d   1     106.951  16.740 101.433  0.00  0.00     0.087 H 
ATOM     20  H4  EST d   1     106.700  19.524  98.136  0.00  0.00     0.088 H 
ATOM     21  H5  EST d   1     107.690  18.500  95.877  0.00  0.00     0.040 H 
ATOM     22  H6  EST d   1     105.950  18.078  95.724  0.00  0.00     0.040 H 
ATOM     23  H7  EST d   1     108.403  16.389  95.163  0.00  0.00     0.034 H 
ATOM     24  H8  EST d   1     106.957  16.688  94.139  0.00  0.00     0.034 H 
ATOM     25  H9  EST d   1     105.580  15.317  95.707  0.00  0.00     0.041 H 
ATOM     26  H10 EST d   1     108.275  14.708  97.048  0.00  0.00     0.048 H 
ATOM     27  H11 EST d   1     105.512  13.699  97.804  0.00  0.00     0.034 H 
ATOM     28  H12 EST d   1     107.074  13.301  98.597  0.00  0.00     0.034 H 
ATOM     29  H13 EST d   1     106.205  11.507  97.044  0.00  0.00     0.034 H 
ATOM     30  H14 EST d   1     107.850  12.104  96.641  0.00  0.00     0.034 H 
ATOM     31  H15 EST d   1     108.107  13.865  94.876  0.00  0.00     0.042 H 
ATOM     32  H16 EST d   1     107.444  14.686  92.743  0.00  0.00     0.033 H 
ATOM     33  H17 EST d   1     105.710  14.335  93.056  0.00  0.00     0.033 H 
ATOM     34  H18 EST d   1     107.954  12.425  92.371  0.00  0.00     0.036 H 
ATOM     35  H19 EST d   1     106.186  12.228  92.128  0.00  0.00     0.036 H 
ATOM     36  H20 EST d   1     107.900  11.431  94.479  0.00  0.00     0.084 H 
ENDROOT
BRANCH  13  37
ATOM     37  C18 EST d   1     104.760  12.691  95.140  0.00  0.00    -0.066 C 
ATOM     38  H22 EST d   1     104.355  13.381  95.894  0.00  0.00     0.028 H 
ATOM     39  H23 EST d   1     104.366  11.680  95.319  0.00  0.00     0.028 H 
ATOM     40  H24 EST d   1     104.462  13.028  94.136  0.00  0.00     0.028 H 
ENDBRANCH  13  37
BRANCH  17  41
ATOM     41  O17 EST d   1     106.197  10.417  93.968  0.00  0.00    -0.395 OA
ATOM     42  H21 EST d   1     106.671   9.906  93.322  0.00  0.00     0.210 HD
ENDBRANCH  17  41
BRANCH   3  43
ATOM     43  O3  EST d   1     106.801  19.239 100.813  0.00  0.00    -0.361 OA
ATOM     44  H3  EST d   1     106.050  19.122 101.383  0.00  0.00     0.217 HD
ENDBRANCH   3  43
TORSDOF 3
