REMARK  15 active torsions:
REMARK  status: ('A' for Active; 'I' for Inactive)
REMARK    1  A    between atoms: C8_11  and  C1_1 
REMARK    2  A    between atoms: C6_6  and  N3_13 
REMARK    3  A    between atoms: C6_6  and  C9_14 
REMARK       I    between atoms: N_21  and  C8_11 
REMARK    4  A    between atoms: C9_14  and  C10_15 
REMARK    5  A    between atoms: CA_22  and  N_21 
REMARK    6  A    between atoms: C_23  and  CA_22 
REMARK    7  A    between atoms: CA_22  and  CB_25 
REMARK    8  A    between atoms: C_23  and  O_24 
REMARK    9  A    between atoms: C9_41  and  C_23 
REMARK   10  A    between atoms: CB_25  and  CG_26 
REMARK   11  A    between atoms: CG_26  and  CD_27 
REMARK   12  A    between atoms: CD_27  and  NE_28 
REMARK       I    between atoms: NE_28  and  CZ_29 
REMARK       I    between atoms: CZ_29  and  NH1_30 
REMARK   13  A    between atoms: C7_38  and  C1_32 
REMARK   14  A    between atoms: C8_39  and  C7_38 
REMARK   15  A    between atoms: N1_40  and  C8_39 
REMARK       I    between atoms: N1_40  and  C9_41 
ROOT
ATOM      1  CA  00L d   1      14.388 -11.680  19.787  0.00  0.00     0.045 C 
ATOM      2  H22 00L d   1      14.017 -12.706  19.649  0.00  0.00     0.077 H 
ENDROOT
BRANCH   1   3
ATOM      3  N   00L d   1      15.803 -11.731  20.258  0.00  0.00    -0.352 N 
ATOM      4  C8  00L d   1      16.533 -12.894  20.382  0.00  0.00     0.243 C 
ATOM      5  O2  00L d   1      16.015 -13.984  20.056  0.00  0.00    -0.271 OA
ATOM      6  H21 00L d   1      16.249 -10.869  20.498  0.00  0.00     0.163 HD
BRANCH   4   7
ATOM      7  C1  00L d   1      17.937 -13.014  20.946  0.00  0.00     0.121 C 
ATOM      8  C2  00L d   1      19.134 -12.930  19.992  0.00  0.00    -0.011 C 
ATOM      9  C3  00L d   1      20.046 -14.141  20.341  0.00  0.00     0.107 C 
ATOM     10  H2  00L d   1      19.678 -11.986  20.143  0.00  0.00     0.039 H 
ATOM     11  H3  00L d   1      18.796 -12.995  18.947  0.00  0.00     0.039 H 
ATOM     12  N1  00L d   1      19.103 -15.116  20.913  0.00  0.00     0.014 N 
ATOM     13  H4  00L d   1      20.815 -13.858  21.075  0.00  0.00     0.079 H 
ATOM     14  H5  00L d   1      20.531 -14.543  19.439  0.00  0.00     0.079 H 
ATOM     15  C4  00L d   1      19.611 -16.200  21.799  0.00  0.00     0.107 C 
ATOM     16  N2  00L d   1      18.177 -14.316  21.616  0.00  0.00    -0.162 N 
ATOM     17  H10 00L d   1      18.637 -15.573  20.145  0.00  0.00     0.309 HD
ATOM     18  C5  00L d   1      18.475 -17.005  22.491  0.00  0.00    -0.000 C 
ATOM     19  H6  00L d   1      20.213 -16.894  21.194  0.00  0.00     0.079 H 
ATOM     20  H7  00L d   1      20.244 -15.748  22.577  0.00  0.00     0.079 H 
ATOM     21  C6  00L d   1      17.508 -16.158  23.278  0.00  0.00     0.210 C 
ATOM     22  H8  00L d   1      18.935 -17.731  23.177  0.00  0.00     0.040 H 
ATOM     23  H9  00L d   1      17.910 -17.542  21.715  0.00  0.00     0.040 H 
ATOM     24  C7  00L d   1      17.345 -14.749  22.644  0.00  0.00     0.281 C 
ATOM     25  O1  00L d   1      16.383 -14.086  22.991  0.00  0.00    -0.269 OA
ATOM     26  H1  00L d   1      18.035 -12.204  21.683  0.00  0.00     0.091 H 
BRANCH  21  27
ATOM     27  N3  00L d   1      16.125 -16.739  23.251  0.00  0.00    -0.061 N 
ATOM     28  H11 00L d   1      15.503 -16.152  23.785  0.00  0.00     0.275 HD
ATOM     29  H12 00L d   1      16.141 -17.663  23.653  0.00  0.00     0.275 HD
ATOM     30  H13 00L d   1      15.801 -16.792  22.298  0.00  0.00     0.275 HD
ENDBRANCH  21  27
BRANCH  21  31
ATOM     31  C9  00L d   1      17.760 -16.138  24.807  0.00  0.00    -0.001 C 
ATOM     32  H14 00L d   1      17.544 -17.139  25.210  0.00  0.00     0.044 H 
ATOM     33  H15 00L d   1      17.079 -15.404  25.264  0.00  0.00     0.044 H 
BRANCH  31  34
ATOM     34  C10 00L d   1      19.199 -15.764  25.178  0.00  0.00    -0.055 A 
ATOM     35  C11 00L d   1      20.205 -16.756  25.276  0.00  0.00    -0.077 A 
ATOM     36  C12 00L d   1      21.534 -16.400  25.581  0.00  0.00    -0.082 A 
ATOM     37  H16 00L d   1      19.951 -17.797  25.115  0.00  0.00     0.084 H 
ATOM     38  C13 00L d   1      21.908 -15.091  25.840  0.00  0.00    -0.083 A 
ATOM     39  H17 00L d   1      22.290 -17.177  25.614  0.00  0.00     0.083 H 
ATOM     40  C14 00L d   1      20.911 -14.117  25.825  0.00  0.00    -0.082 A 
ATOM     41  H18 00L d   1      22.940 -14.833  26.047  0.00  0.00     0.083 H 
ATOM     42  C15 00L d   1      19.594 -14.437  25.448  0.00  0.00    -0.077 A 
ATOM     43  H19 00L d   1      21.154 -13.099  26.108  0.00  0.00     0.083 H 
ATOM     44  H20 00L d   1      18.862 -13.642  25.363  0.00  0.00     0.084 H 
ENDBRANCH  31  34
ENDBRANCH  21  31
ENDBRANCH   4   7
ENDBRANCH   1   3
BRANCH   1  45
ATOM     45  C   00L d   1      14.352 -10.910  18.450  0.00  0.00     0.131 C 
ATOM     46  H23 00L d   1      14.775  -9.942  18.756  0.00  0.00     0.101 H 
BRANCH  45  47
ATOM     47  O   00L d   1      13.281 -10.534  17.859  0.00  0.00    -0.384 OA
ATOM     48  H24 00L d   1      13.507 -10.080  17.056  0.00  0.00     0.210 HD
ENDBRANCH  45  47
BRANCH  45  49
ATOM     49  C9  00L d   1      15.377 -11.449  17.451  0.00  0.00     0.248 C 
ATOM     50  N1  00L d   1      14.732 -12.347  16.493  0.00  0.00    -0.359 N 
ATOM     51  H45 00L d   1      13.752 -12.547  16.483  0.00  0.00     0.162 HD
ATOM     52  O1  00L d   1      16.514 -11.104  17.489  0.00  0.00    -0.271 OA
BRANCH  50  53
ATOM     53  C8  00L d   1      15.710 -12.926  15.536  0.00  0.00    -0.001 C 
ATOM     54  H43 00L d   1      16.712 -12.936  15.991  0.00  0.00     0.064 H 
ATOM     55  H44 00L d   1      15.413 -13.954  15.280  0.00  0.00     0.064 H 
BRANCH  53  56
ATOM     56  C7  00L d   1      15.727 -12.038  14.234  0.00  0.00    -0.026 C 
ATOM     57  H41 00L d   1      15.907 -10.981  14.478  0.00  0.00     0.042 H 
ATOM     58  H42 00L d   1      16.494 -12.387  13.527  0.00  0.00     0.042 H 
BRANCH  56  59
ATOM     59  C1  00L d   1      14.281 -12.246  13.650  0.00  0.00    -0.057 A 
ATOM     60  C2  00L d   1      13.747 -11.309  12.747  0.00  0.00    -0.077 A 
ATOM     61  C3  00L d   1      12.440 -11.524  12.256  0.00  0.00    -0.082 A 
ATOM     62  H36 00L d   1      14.323 -10.445  12.436  0.00  0.00     0.084 H 
ATOM     63  C4  00L d   1      11.674 -12.623  12.700  0.00  0.00    -0.083 A 
ATOM     64  H37 00L d   1      12.021 -10.837  11.530  0.00  0.00     0.083 H 
ATOM     65  C5  00L d   1      12.216 -13.523  13.661  0.00  0.00    -0.082 A 
ATOM     66  H38 00L d   1      10.675 -12.782  12.310  0.00  0.00     0.083 H 
ATOM     67  C6  00L d   1      13.528 -13.327  14.132  0.00  0.00    -0.077 A 
ATOM     68  H39 00L d   1      11.623 -14.353  14.027  0.00  0.00     0.083 H 
ATOM     69  H40 00L d   1      13.953 -14.006  14.862  0.00  0.00     0.084 H 
ENDBRANCH  56  59
ENDBRANCH  53  56
ENDBRANCH  50  53
ENDBRANCH  45  49
ENDBRANCH   1  45
BRANCH   1  70
ATOM     70  CB  00L d   1      13.455 -10.921  20.758  0.00  0.00    -0.042 C 
ATOM     71  H25 00L d   1      12.623 -10.474  20.194  0.00  0.00     0.036 H 
ATOM     72  H26 00L d   1      14.021 -10.127  21.267  0.00  0.00     0.036 H 
BRANCH  70  73
ATOM     73  CG  00L d   1      12.915 -11.877  21.772  0.00  0.00    -0.048 C 
ATOM     74  H27 00L d   1      13.774 -12.386  22.234  0.00  0.00     0.035 H 
ATOM     75  H28 00L d   1      12.299 -12.613  21.235  0.00  0.00     0.035 H 
BRANCH  73  76
ATOM     76  CD  00L d   1      12.110 -11.337  22.837  0.00  0.00     0.009 C 
ATOM     77  H29 00L d   1      11.398 -10.620  22.404  0.00  0.00     0.064 H 
ATOM     78  H30 00L d   1      12.773 -10.815  23.543  0.00  0.00     0.064 H 
BRANCH  76  79
ATOM     79  NE  00L d   1      11.372 -12.325  23.559  0.00  0.00    -0.227 N 
ATOM     80  CZ  00L d   1      10.588 -12.152  24.586  0.00  0.00     0.665 C 
ATOM     81  NH1 00L d   1      10.439 -10.899  25.079  0.00  0.00    -0.235 N 
ATOM     82  NH2 00L d   1       9.860 -13.136  25.120  0.00  0.00    -0.235 N 
ATOM     83  H32 00L d   1       9.825 -10.734  25.890  0.00  0.00     0.174 HD
ATOM     84  H33 00L d   1      10.939 -10.111  24.643  0.00  0.00     0.174 HD
ATOM     85  H34 00L d   1       9.954 -14.098  24.764  0.00  0.00     0.174 HD
ATOM     86  H35 00L d   1       9.204 -12.933  25.888  0.00  0.00     0.174 HD
ATOM     87  H31 00L d   1      11.472 -13.295  23.227  0.00  0.00     0.177 HD
ENDBRANCH  76  79
ENDBRANCH  73  76
ENDBRANCH  70  73
ENDBRANCH   1  70
TORSDOF 15
