REMARK  9 active torsions:
REMARK  status: ('A' for Active; 'I' for Inactive)
REMARK    1  A    between atoms: C8_1  and  C9_2 
REMARK    2  A    between atoms: C1_21  and  C8_1 
REMARK    3  A    between atoms: C12_7  and  C15_8 
REMARK    4  A    between atoms: C15_8  and  N16_9 
REMARK    5  A    between atoms: C15_8  and  N17_10 
REMARK    6  A    between atoms: C18_11  and  C19_12 
REMARK    7  A    between atoms: C5_26  and  C18_11 
REMARK    8  A    between atoms: C22_17  and  C25_18 
REMARK    9  A    between atoms: C25_18  and  N26_19 
ROOT
ATOM      1  C1  BBA d   1       8.635  36.944  49.561  0.00  0.00     0.008 C 
ATOM      2  C2  BBA d   1       8.992  36.613  48.127  0.00  0.00    -0.055 C 
ATOM      3  C3  BBA d   1       8.912  37.702  47.069  0.00  0.00    -0.064 C 
ATOM      4  C   BBA d   1       7.827  38.733  47.291  0.00  0.00    -0.064 C 
ATOM      5  C4  BBA d   1       8.034  39.654  48.512  0.00  0.00    -0.055 C 
ATOM      6  C5  BBA d   1       9.299  39.426  49.337  0.00  0.00     0.008 C 
ATOM      7  C6  BBA d   1       9.210  38.211  50.179  0.00  0.00     0.135 C 
ATOM      8  O7  BBA d   1       9.450  38.299  51.352  0.00  0.00    -0.297 OA
ATOM      9  H21 BBA d   1       7.587  37.262  49.455  0.00  0.00     0.052 H 
ATOM     10  H22 BBA d   1       8.318  35.805  47.807  0.00  0.00     0.034 H 
ATOM     11  H23 BBA d   1      10.029  36.246  48.131  0.00  0.00     0.034 H 
ATOM     12  H24 BBA d   1       8.731  37.220  46.097  0.00  0.00     0.033 H 
ATOM     13  H25 BBA d   1       9.879  38.225  47.044  0.00  0.00     0.033 H 
ATOM     14  H26 BBA d   1       6.874  38.200  47.425  0.00  0.00     0.033 H 
ATOM     15  H27 BBA d   1       7.771  39.366  46.393  0.00  0.00     0.033 H 
ATOM     16  H28 BBA d   1       7.171  39.520  49.181  0.00  0.00     0.034 H 
ATOM     17  H29 BBA d   1       8.057  40.691  48.147  0.00  0.00     0.034 H 
ATOM     18  H30 BBA d   1      10.005  39.099  48.560  0.00  0.00     0.052 H 
ENDROOT
BRANCH   1  19
ATOM     19  C8  BBA d   1       8.481  35.807  50.276  0.00  0.00    -0.031 C 
ATOM     20  H1  BBA d   1       7.398  35.734  50.456  0.00  0.00     0.041 H 
ATOM     21  H2  BBA d   1       8.795  35.003  49.594  0.00  0.00     0.041 H 
BRANCH  19  22
ATOM     22  C9  BBA d   1       9.100  35.464  51.570  0.00  0.00    -0.057 A 
ATOM     23  C14 BBA d   1      10.460  35.774  51.888  0.00  0.00    -0.076 A 
ATOM     24  C13 BBA d   1      11.014  35.469  53.142  0.00  0.00    -0.069 A 
ATOM     25  H3  BBA d   1      11.079  36.257  51.141  0.00  0.00     0.084 H 
ATOM     26  C12 BBA d   1      10.261  34.843  54.138  0.00  0.00     0.007 A 
ATOM     27  H4  BBA d   1      12.048  35.725  53.341  0.00  0.00     0.085 H 
ATOM     28  C11 BBA d   1       8.898  34.510  53.836  0.00  0.00    -0.069 A 
ATOM     29  C10 BBA d   1       8.313  34.824  52.568  0.00  0.00    -0.076 A 
ATOM     30  H6  BBA d   1       8.297  34.009  54.586  0.00  0.00     0.085 H 
ATOM     31  H5  BBA d   1       7.277  34.576  52.369  0.00  0.00     0.084 H 
BRANCH  26  32
ATOM     32  C15 BBA d   1      10.876  34.537  55.429  0.00  0.00     0.102 C 
BRANCH  32  33
ATOM     33  N16 BBA d   1      10.140  34.322  56.532  0.00  0.00    -0.385 N 
ATOM     34  H7  BBA d   1      10.603  34.108  57.427  0.00  0.00     0.157 HD
ATOM     35  H8  BBA d   1       9.112  34.371  56.483  0.00  0.00     0.157 HD
ENDBRANCH  32  33
BRANCH  32  36
ATOM     36  N17 BBA d   1      12.189  34.482  55.517  0.00  0.00    -0.385 N 
ATOM     37  H9  BBA d   1      12.768  34.644  54.681  0.00  0.00     0.157 HD
ATOM     38  H10 BBA d   1      12.636  34.277  56.422  0.00  0.00     0.157 HD
ENDBRANCH  32  36
ENDBRANCH  26  32
ENDBRANCH  19  22
ENDBRANCH   1  19
BRANCH   6  39
ATOM     39  C18 BBA d   1       9.976  40.517  49.835  0.00  0.00    -0.031 C 
ATOM     40  H11 BBA d   1      10.811  40.078  50.401  0.00  0.00     0.041 H 
ATOM     41  H12 BBA d   1      10.366  41.022  48.939  0.00  0.00     0.041 H 
BRANCH  39  42
ATOM     42  C19 BBA d   1       9.493  41.647  50.711  0.00  0.00    -0.057 A 
ATOM     43  C20 BBA d   1      10.432  42.356  51.529  0.00  0.00    -0.076 A 
ATOM     44  C21 BBA d   1      10.010  43.422  52.362  0.00  0.00    -0.069 A 
ATOM     45  H13 BBA d   1      11.478  42.073  51.510  0.00  0.00     0.084 H 
ATOM     46  C22 BBA d   1       8.635  43.826  52.422  0.00  0.00     0.007 A 
ATOM     47  H14 BBA d   1      10.743  43.944  52.967  0.00  0.00     0.085 H 
ATOM     48  C23 BBA d   1       7.715  43.127  51.620  0.00  0.00    -0.069 A 
ATOM     49  C24 BBA d   1       8.130  42.065  50.778  0.00  0.00    -0.076 A 
ATOM     50  H16 BBA d   1       6.668  43.406  51.646  0.00  0.00     0.085 H 
ATOM     51  H15 BBA d   1       7.392  41.556  50.168  0.00  0.00     0.084 H 
BRANCH  46  52
ATOM     52  C25 BBA d   1       8.171  44.955  53.297  0.00  0.00     0.102 C 
ATOM     53  N27 BBA d   1       8.918  46.072  53.457  0.00  0.00    -0.385 N 
ATOM     54  H19 BBA d   1       9.822  46.161  52.971  0.00  0.00     0.157 HD
ATOM     55  H20 BBA d   1       8.583  46.833  54.065  0.00  0.00     0.157 HD
BRANCH  52  56
ATOM     56  N26 BBA d   1       6.999  44.880  53.950  0.00  0.00    -0.385 N 
ATOM     57  H17 BBA d   1       6.691  45.661  54.547  0.00  0.00     0.157 HD
ATOM     58  H18 BBA d   1       6.408  44.042  53.853  0.00  0.00     0.157 HD
ENDBRANCH  52  56
ENDBRANCH  46  52
ENDBRANCH  39  42
ENDBRANCH   6  39
TORSDOF 9
