REMARK  7 active torsions:
REMARK  status: ('A' for Active; 'I' for Inactive)
REMARK    1  A    between atoms: C1_1  and  O23_23 
REMARK    2  A    between atoms: C3_3  and  S11_11 
REMARK    3  A    between atoms: C7_7  and  N15_15 
REMARK    4  A    between atoms: C9_9  and  S19_19 
REMARK    5  A    between atoms: S11_11  and  O12_12 
REMARK       I    between atoms: N15_15  and  C16_16 
REMARK    6  A    between atoms: C16_16  and  C18_18 
REMARK    7  A    between atoms: S19_19  and  O20_20 
ROOT
ATOM      1  C1   Y3 d   1      37.255  26.602  58.565  0.00  0.00     0.080 A 
ATOM      2  C2   Y3 d   1      36.765  25.398  58.114  0.00  0.00    -0.027 A 
ATOM      3  C3   Y3 d   1      37.634  24.372  57.815  0.00  0.00     0.075 A 
ATOM      4  C4   Y3 d   1      38.999  24.556  57.928  0.00  0.00    -0.049 A 
ATOM      5  C5   Y3 d   1      39.493  25.768  58.365  0.00  0.00    -0.018 A 
ATOM      6  C6   Y3 d   1      38.625  26.800  58.682  0.00  0.00     0.034 A 
ATOM      7  C7   Y3 d   1      39.129  28.021  59.111  0.00  0.00     0.050 A 
ATOM      8  C8   Y3 d   1      40.505  28.192  59.222  0.00  0.00    -0.034 A 
ATOM      9  C9   Y3 d   1      41.366  27.150  58.909  0.00  0.00     0.075 A 
ATOM     10  C10  Y3 d   1      40.858  25.942  58.482  0.00  0.00    -0.049 A 
ATOM     11  H1   Y3 d   1      35.697  25.257  57.994  0.00  0.00     0.090 H 
ATOM     12  H2   Y3 d   1      39.679  23.751  57.674  0.00  0.00     0.087 H 
ATOM     13  H3   Y3 d   1      40.906  29.143  59.554  0.00  0.00     0.089 H 
ATOM     14  H4   Y3 d   1      41.531  25.128  58.238  0.00  0.00     0.087 H 
ENDROOT
BRANCH   7  15
ATOM     15  N15  Y3 d   1      38.281  29.012  59.414  0.00  0.00    -0.327 N 
ATOM     16  C16  Y3 d   1      38.606  30.304  59.444  0.00  0.00     0.218 C 
ATOM     17  O17  Y3 d   1      39.733  30.730  59.198  0.00  0.00    -0.274 OA
ATOM     18  H6   Y3 d   1      37.337  28.765  59.633  0.00  0.00     0.169 HD
BRANCH  16  19
ATOM     19  C18  Y3 d   1      37.479  31.265  59.813  0.00  0.00    -0.003 C 
ATOM     20  H7   Y3 d   1      37.860  32.297  59.806  0.00  0.00     0.040 H 
ATOM     21  H8   Y3 d   1      37.102  31.020  60.817  0.00  0.00     0.040 H 
ATOM     22  H9   Y3 d   1      36.663  31.171  59.082  0.00  0.00     0.040 H 
ENDBRANCH  16  19
ENDBRANCH   7  15
BRANCH   1  23
ATOM     23  O23  Y3 d   1      36.378  27.600  58.885  0.00  0.00    -0.360 OA
ATOM     24  H11  Y3 d   1      35.489  27.295  58.747  0.00  0.00     0.217 HD
ENDBRANCH   1  23
BRANCH   9  25
ATOM     25  S19  Y3 d   1      43.154  27.344  59.048  0.00  0.00     0.129 S 
ATOM     26  O22  Y3 d   1      43.562  28.597  58.491  0.00  0.00    -0.598 OA
ATOM     27  O21  Y3 d   1      43.528  27.310  60.418  0.00  0.00    -0.598 OA
BRANCH  25  28
ATOM     28  O20  Y3 d   1      43.781  26.268  58.356  0.00  0.00    -0.292 OA
ATOM     29  H10  Y3 d   1      44.724  26.350  58.433  0.00  0.00     0.232 HD
ENDBRANCH  25  28
ENDBRANCH   9  25
BRANCH   3  30
ATOM     30  S11  Y3 d   1      36.984  22.788  57.287  0.00  0.00     0.129 S 
ATOM     31  O14  Y3 d   1      36.106  22.984  56.174  0.00  0.00    -0.598 OA
ATOM     32  O13  Y3 d   1      38.065  21.929  56.913  0.00  0.00    -0.598 OA
BRANCH  30  33
ATOM     33  O12  Y3 d   1      36.270  22.207  58.379  0.00  0.00    -0.292 OA
ATOM     34  H5   Y3 d   1      35.563  22.786  58.637  0.00  0.00     0.232 HD
ENDBRANCH  30  33
ENDBRANCH   3  30
TORSDOF 7
