REMARK  12 active torsions:
REMARK  status: ('A' for Active; 'I' for Inactive)
REMARK    1  A    between atoms: C7_11  and  C1_1 
REMARK    2  A    between atoms: C9_13  and  N1_7 
REMARK    3  A    between atoms: C9_13  and  C7_11 
REMARK    4  A    between atoms: C14_18  and  C15_19 
REMARK       I    between atoms: C15_19  and  N_21 
REMARK    5  A    between atoms: N_21  and  CA_22 
REMARK    6  A    between atoms: CA_22  and  C_23 
REMARK    7  A    between atoms: CA_22  and  CB_25 
REMARK    8  A    between atoms: C_23  and  O_24 
REMARK    9  A    between atoms: C_23  and  C1_32 
REMARK   10  A    between atoms: CB_25  and  CG_26 
REMARK   11  A    between atoms: CG_26  and  CD_27 
REMARK   12  A    between atoms: CD_27  and  NE_28 
REMARK       I    between atoms: NE_28  and  CZ_29 
REMARK       I    between atoms: CZ_29  and  NH1_30 
ROOT
ATOM      1  N2  00N d   1      17.688 -14.422  21.728  0.00  0.00    -0.163 N 
ATOM      2  N3  00N d   1      18.710 -15.214  21.063  0.00  0.00     0.014 N 
ATOM      3  O1  00N d   1      16.022 -14.022  23.236  0.00  0.00    -0.269 OA
ATOM      4  C8  00N d   1      16.912 -14.778  22.714  0.00  0.00     0.281 C 
ATOM      5  C9  00N d   1      17.012 -16.167  23.324  0.00  0.00     0.210 C 
ATOM      6  C10 00N d   1      17.949 -17.091  22.595  0.00  0.00    -0.000 C 
ATOM      7  C11 00N d   1      19.063 -16.486  21.710  0.00  0.00     0.107 C 
ATOM      8  C12 00N d   1      19.696 -14.192  20.721  0.00  0.00     0.107 C 
ATOM      9  C13 00N d   1      18.636 -13.209  20.003  0.00  0.00    -0.012 C 
ATOM     10  C14 00N d   1      17.712 -13.019  21.153  0.00  0.00     0.108 C 
ATOM     11  H9  00N d   1      18.320 -15.514  20.183  0.00  0.00     0.309 HD
ATOM     12  H12 00N d   1      17.332 -17.728  21.945  0.00  0.00     0.040 H 
ATOM     13  H13 00N d   1      18.444 -17.713  23.355  0.00  0.00     0.040 H 
ATOM     14  H14 00N d   1      19.948 -16.316  22.341  0.00  0.00     0.079 H 
ATOM     15  H15 00N d   1      19.309 -17.214  20.923  0.00  0.00     0.079 H 
ATOM     16  H16 00N d   1      20.474 -14.559  20.035  0.00  0.00     0.079 H 
ATOM     17  H17 00N d   1      20.170 -13.740  21.605  0.00  0.00     0.079 H 
ATOM     18  H18 00N d   1      18.140 -13.687  19.145  0.00  0.00     0.039 H 
ATOM     19  H19 00N d   1      19.098 -12.264  19.680  0.00  0.00     0.039 H 
ATOM     20  H20 00N d   1      17.939 -12.194  21.844  0.00  0.00     0.089 H 
ENDROOT
BRANCH  10  21
ATOM     21  C15 00N d   1      16.445 -12.993  20.509  0.00  0.00     0.176 C 
ATOM     22  O2  00N d   1      15.956 -13.992  19.799  0.00  0.00    -0.175 OA
ATOM     23  N   00N d   1      15.326 -12.068  20.552  0.00  0.00    -0.363 N 
ATOM     24  H21 00N d   1      15.402 -11.701  21.479  0.00  0.00     0.162 HD
BRANCH  23  25
ATOM     25  CA  00N d   1      14.145 -11.348  20.042  0.00  0.00     0.042 C 
ATOM     26  H22 00N d   1      13.543 -12.197  19.686  0.00  0.00     0.077 H 
BRANCH  25  27
ATOM     27  C   00N d   1      14.335 -10.594  18.750  0.00  0.00     0.103 C 
ATOM     28  H23 00N d   1      14.925  -9.753  19.144  0.00  0.00     0.097 H 
BRANCH  27  29
ATOM     29  O   00N d   1      13.431 -10.002  18.122  0.00  0.00    -0.387 OA
ATOM     30  H24 00N d   1      13.798  -9.604  17.341  0.00  0.00     0.210 HD
ENDBRANCH  27  29
BRANCH  27  31
ATOM     31  C1  00N d   1      15.243 -11.134  17.601  0.00  0.00     0.105 A 
ATOM     32  N1  00N d   1      16.619 -10.961  17.463  0.00  0.00    -0.255 NA
ATOM     33  C2  00N d   1      17.427 -11.397  16.370  0.00  0.00     0.009 A 
ATOM     34  C3  00N d   1      16.537 -11.999  15.541  0.00  0.00    -0.026 A 
ATOM     35  H36 00N d   1      18.501 -11.276  16.234  0.00  0.00     0.115 H 
ATOM     36  S1  00N d   1      14.877 -12.062  16.105  0.00  0.00    -0.083 SA
ATOM     37  H37 00N d   1      16.836 -12.418  14.582  0.00  0.00     0.097 H 
ENDBRANCH  27  31
ENDBRANCH  25  27
BRANCH  25  38
ATOM     38  CB  00N d   1      13.179 -10.750  21.051  0.00  0.00    -0.042 C 
ATOM     39  H25 00N d   1      12.298 -10.346  20.531  0.00  0.00     0.036 H 
ATOM     40  H26 00N d   1      13.675  -9.944  21.611  0.00  0.00     0.036 H 
BRANCH  38  41
ATOM     41  CG  00N d   1      12.756 -11.850  21.999  0.00  0.00    -0.048 C 
ATOM     42  H27 00N d   1      13.645 -12.279  22.485  0.00  0.00     0.035 H 
ATOM     43  H28 00N d   1      12.229 -12.636  21.439  0.00  0.00     0.035 H 
BRANCH  41  44
ATOM     44  CD  00N d   1      11.834 -11.271  23.049  0.00  0.00     0.009 C 
ATOM     45  H29 00N d   1      10.956 -10.830  22.555  0.00  0.00     0.064 H 
ATOM     46  H30 00N d   1      12.370 -10.491  23.610  0.00  0.00     0.064 H 
BRANCH  44  47
ATOM     47  NE  00N d   1      11.395 -12.304  23.970  0.00  0.00    -0.227 N 
ATOM     48  CZ  00N d   1      10.532 -12.093  24.979  0.00  0.00     0.665 C 
ATOM     49  NH1 00N d   1      10.213 -10.773  25.085  0.00  0.00    -0.235 N 
ATOM     50  NH2 00N d   1       9.529 -12.989  25.203  0.00  0.00    -0.235 N 
ATOM     51  H32 00N d   1       9.559 -10.458  25.816  0.00  0.00     0.174 HD
ATOM     52  H33 00N d   1      10.626 -10.090  24.434  0.00  0.00     0.174 HD
ATOM     53  H34 00N d   1       9.717 -13.999  25.136  0.00  0.00     0.174 HD
ATOM     54  H35 00N d   1       8.584 -12.655  25.440  0.00  0.00     0.174 HD
ATOM     55  H31 00N d   1      11.767 -13.256  23.843  0.00  0.00     0.177 HD
ENDBRANCH  44  47
ENDBRANCH  41  44
ENDBRANCH  38  41
ENDBRANCH  25  38
ENDBRANCH  23  25
ENDBRANCH  10  21
BRANCH   5  56
ATOM     56  N1  00N d   1      15.586 -16.555  23.345  0.00  0.00    -0.061 N 
ATOM     57  H6  00N d   1      15.495 -17.480  23.735  0.00  0.00     0.275 HD
ATOM     58  H7  00N d   1      15.222 -16.550  22.405  0.00  0.00     0.275 HD
ATOM     59  H8  00N d   1      15.068 -15.900  23.909  0.00  0.00     0.275 HD
ENDBRANCH   5  56
BRANCH   5  60
ATOM     60  C7  00N d   1      17.672 -16.278  24.800  0.00  0.00    -0.001 C 
ATOM     61  H10 00N d   1      16.933 -15.856  25.497  0.00  0.00     0.044 H 
ATOM     62  H11 00N d   1      17.793 -17.353  25.000  0.00  0.00     0.044 H 
BRANCH  60  63
ATOM     63  C1  00N d   1      19.037 -15.615  25.165  0.00  0.00    -0.055 A 
ATOM     64  C2  00N d   1      20.069 -16.597  25.135  0.00  0.00    -0.077 A 
ATOM     65  C3  00N d   1      21.383 -16.210  25.473  0.00  0.00    -0.082 A 
ATOM     66  H1  00N d   1      19.849 -17.622  24.858  0.00  0.00     0.084 H 
ATOM     67  C4  00N d   1      21.744 -14.883  25.723  0.00  0.00    -0.083 A 
ATOM     68  H2  00N d   1      22.147 -16.976  25.542  0.00  0.00     0.083 H 
ATOM     69  C5  00N d   1      20.708 -13.943  25.740  0.00  0.00    -0.082 A 
ATOM     70  H3  00N d   1      22.775 -14.597  25.895  0.00  0.00     0.083 H 
ATOM     71  C6  00N d   1      19.355 -14.288  25.428  0.00  0.00    -0.077 A 
ATOM     72  H4  00N d   1      20.939 -12.916  25.999  0.00  0.00     0.083 H 
ATOM     73  H5  00N d   1      18.587 -13.524  25.397  0.00  0.00     0.084 H 
ENDBRANCH  60  63
ENDBRANCH   5  60
TORSDOF 12
