REMARK  4 active torsions:
REMARK  status: ('A' for Active; 'I' for Inactive)
REMARK    1  A    between atoms: N4_4  and  C7_7 
REMARK    2  A    between atoms: C7_7  and  C8_8 
REMARK    3  A    between atoms: C8_8  and  S_9 
REMARK    4  A    between atoms: S_9  and  O1S_10 
ROOT
ATOM      1  O1  MES d   1      34.694  41.148  37.869  0.00  0.00    -0.388 OA
ATOM      2  C2  MES d   1      35.853  41.828  37.473  0.00  0.00     0.042 C 
ATOM      3  C3  MES d   1      35.442  43.096  36.673  0.00  0.00     0.103 C 
ATOM      4  N4  MES d   1      34.553  42.711  35.584  0.00  0.00    -0.066 N 
ATOM      5  C5  MES d   1      33.430  41.879  35.939  0.00  0.00     0.103 C 
ATOM      6  C6  MES d   1      33.906  40.691  36.770  0.00  0.00     0.042 C 
ATOM      7  H1  MES d   1      36.467  41.173  36.837  0.00  0.00     0.076 H 
ATOM      8  H2  MES d   1      36.430  42.123  38.362  0.00  0.00     0.076 H 
ATOM      9  H3  MES d   1      36.341  43.578  36.261  0.00  0.00     0.079 H 
ATOM     10  H4  MES d   1      34.922  43.799  37.340  0.00  0.00     0.079 H 
ATOM     11  H5  MES d   1      35.136  42.081  35.055  0.00  0.00     0.280 HD
ATOM     12  H6  MES d   1      32.944  41.512  35.023  0.00  0.00     0.079 H 
ATOM     13  H7  MES d   1      32.710  42.469  36.525  0.00  0.00     0.079 H 
ATOM     14  H8  MES d   1      33.033  40.141  37.151  0.00  0.00     0.076 H 
ATOM     15  H9  MES d   1      34.513  40.025  36.139  0.00  0.00     0.076 H 
ENDROOT
BRANCH   4  16
ATOM     16  C7  MES d   1      34.221  43.716  34.611  0.00  0.00     0.097 C 
ATOM     17  H10 MES d   1      33.630  44.504  35.100  0.00  0.00     0.077 H 
ATOM     18  H11 MES d   1      33.625  43.254  33.811  0.00  0.00     0.077 H 
BRANCH  16  19
ATOM     19  C8  MES d   1      35.454  44.336  34.005  0.00  0.00     0.061 C 
ATOM     20  H12 MES d   1      36.325  43.769  34.367  0.00  0.00     0.061 H 
ATOM     21  H13 MES d   1      35.517  45.374  34.364  0.00  0.00     0.061 H 
BRANCH  19  22
ATOM     22  S   MES d   1      35.537  44.375  32.220  0.00  0.00     0.095 S 
ATOM     23  O2S MES d   1      34.342  44.729  31.570  0.00  0.00    -0.601 OA
ATOM     24  O3S MES d   1      36.492  45.384  31.887  0.00  0.00    -0.601 OA
BRANCH  22  25
ATOM     25  O1S MES d   1      35.961  43.085  31.737  0.00  0.00    -0.296 OA
ATOM     26  H14 MES d   1      35.288  42.441  31.924  0.00  0.00     0.232 HD
ENDBRANCH  22  25
ENDBRANCH  19  22
ENDBRANCH  16  19
ENDBRANCH   4  16
TORSDOF 4
