REMARK  22 active torsions:
REMARK  status: ('A' for Active; 'I' for Inactive)
REMARK    1  A    between atoms: C9_14  and  O6_20 
REMARK    2  A    between atoms: C10_15  and  C34_21 
REMARK    3  A    between atoms: C12_17  and  O7_22 
REMARK    4  A    between atoms: O7_22  and  C42_23 
REMARK    5  A    between atoms: C14_24  and  O8_25 
REMARK    6  A    between atoms: O8_25  and  C43_26 
REMARK    7  A    between atoms: C16_28  and  C35_29 
REMARK    8  A    between atoms: C18_31  and  C36_32 
REMARK    9  A    between atoms: C20_34  and  C37_35 
REMARK   10  A    between atoms: C37_35  and  C51_56 
REMARK   11  A    between atoms: C23_39  and  O10_40 
REMARK   12  A    between atoms: C24_41  and  C40_42 
REMARK   13  A    between atoms: C25_43  and  C26_44 
REMARK   14  A    between atoms: C26_44  and  C41_45 
REMARK   15  A    between atoms: C27_46  and  C28_47 
REMARK   16  A    between atoms: C30_49  and  O11_53 
REMARK   17  A    between atoms: C31_50  and  O12_55 
REMARK   18  A    between atoms: O11_53  and  C44_54 
REMARK   19  A    between atoms: C51_56  and  O17_57 
REMARK   20  A    between atoms: O17_57  and  C50_58 
REMARK       I    between atoms: C50_58  and  N2_60 
REMARK   21  A    between atoms: N2_60  and  C49_61 
REMARK   22  A    between atoms: C49_61  and  C47_62 
ROOT
ATOM      1  O1  FKA d   1      14.479  12.414  26.578  0.00  0.00    -0.309 OA
ATOM      2  C1  FKA d   1      15.550  12.969  27.131  0.00  0.00     0.282 C 
ATOM      3  O2  FKA d   1      15.566  14.161  27.468  0.00  0.00    -0.263 OA
ATOM      4  C2  FKA d   1      16.763  12.080  27.320  0.00  0.00     0.099 C 
ATOM      5  C3  FKA d   1      17.895  12.564  26.452  0.00  0.00    -0.037 C 
ATOM      6  C4  FKA d   1      17.793  12.159  24.986  0.00  0.00    -0.061 C 
ATOM      7  C5  FKA d   1      17.554  10.681  24.857  0.00  0.00    -0.050 C 
ATOM      8  C6  FKA d   1      16.245  10.450  25.541  0.00  0.00    -0.001 C 
ATOM      9  N1  FKA d   1      16.503  10.688  26.949  0.00  0.00    -0.331 N 
ATOM     10  C7  FKA d   1      16.340   9.736  27.856  0.00  0.00     0.296 C 
ATOM     11  O3  FKA d   1      16.397  10.078  29.041  0.00  0.00    -0.264 OA
ATOM     12  C8  FKA d   1      16.118   8.389  27.484  0.00  0.00     0.278 C 
ATOM     13  O4  FKA d   1      17.058   7.635  27.219  0.00  0.00    -0.281 OA
ATOM     14  C9  FKA d   1      14.721   7.802  27.373  0.00  0.00     0.238 C 
ATOM     15  C10 FKA d   1      13.692   8.483  28.290  0.00  0.00     0.007 C 
ATOM     16  C11 FKA d   1      12.308   8.188  27.750  0.00  0.00    -0.030 C 
ATOM     17  C12 FKA d   1      12.119   8.372  26.248  0.00  0.00     0.066 C 
ATOM     18  C13 FKA d   1      13.190   7.541  25.502  0.00  0.00     0.092 C 
ATOM     19  O5  FKA d   1      14.453   8.018  25.985  0.00  0.00    -0.338 OA
ATOM     20  C14 FKA d   1      13.249   7.712  23.968  0.00  0.00     0.066 C 
ATOM     21  C15 FKA d   1      13.163   9.195  23.575  0.00  0.00    -0.035 C 
ATOM     22  C16 FKA d   1      13.344   9.553  22.085  0.00  0.00    -0.052 C 
ATOM     23  C17 FKA d   1      12.030   9.244  21.317  0.00  0.00    -0.042 C 
ATOM     24  C18 FKA d   1      10.973  10.346  21.499  0.00  0.00    -0.086 C 
ATOM     25  C19 FKA d   1      10.081  10.301  22.478  0.00  0.00    -0.090 C 
ATOM     26  C20 FKA d   1       9.121  11.418  22.788  0.00  0.00     0.022 C 
ATOM     27  C21 FKA d   1       9.680  12.169  23.972  0.00  0.00     0.137 C 
ATOM     28  O9  FKA d   1       9.427  11.856  25.139  0.00  0.00    -0.297 OA
ATOM     29  C22 FKA d   1      10.591  13.321  23.616  0.00  0.00     0.015 C 
ATOM     30  C23 FKA d   1      11.472  13.778  24.754  0.00  0.00     0.048 C 
ATOM     31  C24 FKA d   1      12.706  12.854  25.037  0.00  0.00    -0.003 C 
ATOM     32  C25 FKA d   1      13.431  13.346  26.287  0.00  0.00     0.074 C 
ATOM     33  H1  FKA d   1      17.065  12.120  28.377  0.00  0.00     0.088 H 
ATOM     34  H2  FKA d   1      18.834  12.157  26.855  0.00  0.00     0.036 H 
ATOM     35  H3  FKA d   1      17.920  13.662  26.503  0.00  0.00     0.036 H 
ATOM     36  H4  FKA d   1      18.731  12.419  24.474  0.00  0.00     0.033 H 
ATOM     37  H5  FKA d   1      16.958  12.702  24.519  0.00  0.00     0.033 H 
ATOM     38  H6  FKA d   1      18.356  10.113  25.351  0.00  0.00     0.035 H 
ATOM     39  H7  FKA d   1      17.496  10.388  23.798  0.00  0.00     0.035 H 
ATOM     40  H8  FKA d   1      15.903   9.417  25.381  0.00  0.00     0.064 H 
ATOM     41  H9  FKA d   1      15.485  11.150  25.165  0.00  0.00     0.064 H 
ATOM     42  H10 FKA d   1      13.865   9.569  28.271  0.00  0.00     0.048 H 
ATOM     43  H11 FKA d   1      11.599   8.855  28.262  0.00  0.00     0.037 H 
ATOM     44  H12 FKA d   1      12.069   7.142  27.993  0.00  0.00     0.037 H 
ATOM     45  H13 FKA d   1      12.280   9.431  26.000  0.00  0.00     0.087 H 
ATOM     46  H14 FKA d   1      13.047   6.476  25.740  0.00  0.00     0.091 H 
ATOM     47  H22 FKA d   1      14.222   7.330  23.626  0.00  0.00     0.087 H 
ATOM     48  H26 FKA d   1      13.942   9.730  24.139  0.00  0.00     0.037 H 
ATOM     49  H27 FKA d   1      12.172   9.560  23.883  0.00  0.00     0.037 H 
ATOM     50  H28 FKA d   1      13.549  10.630  22.002  0.00  0.00     0.040 H 
ATOM     51  H32 FKA d   1      11.618   8.294  21.689  0.00  0.00     0.040 H 
ATOM     52  H33 FKA d   1      12.261   9.149  20.246  0.00  0.00     0.040 H 
ATOM     53  H37 FKA d   1      10.040   9.404  23.094  0.00  0.00     0.078 H 
ATOM     54  H38 FKA d   1       9.028  12.084  21.917  0.00  0.00     0.058 H 
ATOM     55  H41 FKA d   1       9.968  14.170  23.298  0.00  0.00     0.048 H 
ATOM     56  H42 FKA d   1      11.237  13.007  22.782  0.00  0.00     0.048 H 
ATOM     57  H43 FKA d   1      10.879  13.889  25.674  0.00  0.00     0.084 H 
ATOM     58  H45 FKA d   1      12.349  11.823  25.179  0.00  0.00     0.047 H 
ATOM     59  H49 FKA d   1      13.845  14.348  26.101  0.00  0.00     0.092 H 
ENDROOT
BRANCH  32  60
ATOM     60  C26 FKA d   1      12.529  13.386  27.494  0.00  0.00    -0.058 C 
ATOM     61  C27 FKA d   1      12.301  14.550  28.033  0.00  0.00    -0.095 C 
ATOM     62  H53 FKA d   1      12.767  15.437  27.606  0.00  0.00     0.077 H 
BRANCH  60  63
ATOM     63  C41 FKA d   1      11.939  12.077  28.018  0.00  0.00    -0.052 C 
ATOM     64  H50 FKA d   1      11.309  12.284  28.896  0.00  0.00     0.033 H 
ATOM     65  H51 FKA d   1      12.754  11.396  28.304  0.00  0.00     0.033 H 
ATOM     66  H52 FKA d   1      11.329  11.609  27.232  0.00  0.00     0.033 H 
ENDBRANCH  60  63
BRANCH  61  67
ATOM     67  C28 FKA d   1      11.406  14.692  29.233  0.00  0.00    -0.035 C 
ATOM     68  C29 FKA d   1      12.113  15.514  30.294  0.00  0.00    -0.032 C 
ATOM     69  C30 FKA d   1      11.243  15.818  31.474  0.00  0.00     0.063 C 
ATOM     70  H55 FKA d   1      12.437  16.464  29.843  0.00  0.00     0.037 H 
ATOM     71  H56 FKA d   1      12.993  14.954  30.642  0.00  0.00     0.037 H 
ATOM     72  C31 FKA d   1      10.016  16.573  30.986  0.00  0.00     0.060 C 
ATOM     73  H57 FKA d   1      10.917  14.855  31.894  0.00  0.00     0.087 H 
ATOM     74  C32 FKA d   1       9.271  15.779  29.939  0.00  0.00    -0.038 C 
ATOM     75  H58 FKA d   1      10.326  17.538  30.559  0.00  0.00     0.086 H 
ATOM     76  C33 FKA d   1      10.150  15.404  28.772  0.00  0.00    -0.056 C 
ATOM     77  H59 FKA d   1       8.430  16.384  29.569  0.00  0.00     0.036 H 
ATOM     78  H60 FKA d   1       8.885  14.858  30.401  0.00  0.00     0.036 H 
ATOM     79  H61 FKA d   1       9.588  14.739  28.100  0.00  0.00     0.034 H 
ATOM     80  H62 FKA d   1      10.435  16.318  28.230  0.00  0.00     0.034 H 
ATOM     81  H54 FKA d   1      11.152  13.702  29.639  0.00  0.00     0.046 H 
BRANCH  69  82
ATOM     82  O11 FKA d   1      11.858  16.551  32.535  0.00  0.00    -0.388 OA
BRANCH  82  83
ATOM     83  C44 FKA d   1      12.649  15.747  33.430  0.00  0.00     0.005 C 
ATOM     84  H63 FKA d   1      13.083  16.388  34.212  0.00  0.00     0.066 H 
ATOM     85  H64 FKA d   1      13.457  15.258  32.866  0.00  0.00     0.066 H 
ATOM     86  H65 FKA d   1      12.011  14.981  33.896  0.00  0.00     0.066 H 
ENDBRANCH  82  83
ENDBRANCH  69  82
BRANCH  72  87
ATOM     87  O12 FKA d   1       9.151  16.789  32.097  0.00  0.00    -0.393 OA
ATOM     88  H66 FKA d   1       9.610  17.288  32.762  0.00  0.00     0.210 HD
ENDBRANCH  72  87
ENDBRANCH  61  67
ENDBRANCH  32  60
BRANCH  31  89
ATOM     89  C40 FKA d   1      13.763  12.882  23.936  0.00  0.00    -0.068 C 
ATOM     90  H46 FKA d   1      14.592  12.212  24.207  0.00  0.00     0.028 H 
ATOM     91  H47 FKA d   1      14.143  13.907  23.819  0.00  0.00     0.028 H 
ATOM     92  H48 FKA d   1      13.315  12.547  22.989  0.00  0.00     0.028 H 
ENDBRANCH  31  89
BRANCH  30  93
ATOM     93  O10 FKA d   1      11.973  15.022  24.298  0.00  0.00    -0.395 OA
ATOM     94  H44 FKA d   1      12.547  15.392  24.958  0.00  0.00     0.210 HD
ENDBRANCH  30  93
BRANCH  26  95
ATOM     95  C37 FKA d   1       7.764  10.888  23.169  0.00  0.00    -0.032 C 
ATOM     96  H39 FKA d   1       7.234  11.661  23.745  0.00  0.00     0.037 H 
ATOM     97  H40 FKA d   1       7.900   9.993  23.794  0.00  0.00     0.037 H 
BRANCH  95  98
ATOM     98  C51 FKA d   1       6.904  10.509  21.949  0.00  0.00     0.032 C 
ATOM     99  H67 FKA d   1       7.354   9.655  21.423  0.00  0.00     0.075 H 
ATOM    100  H68 FKA d   1       6.829  11.365  21.262  0.00  0.00     0.075 H 
BRANCH  98 101
ATOM    101  O17 FKA d   1       5.696  10.180  22.399  0.00  0.00    -0.304 OA
BRANCH 101 102
ATOM    102  C50 FKA d   1       4.788  11.061  22.065  0.00  0.00     0.360 C 
ATOM    103  O23 FKA d   1       5.066  12.142  21.547  0.00  0.00    -0.239 OA
ATOM    104  N2  FKA d   1       3.552  10.661  22.375  0.00  0.00    -0.333 N 
ATOM    105  H69 FKA d   1       3.390   9.832  22.910  0.00  0.00     0.165 HD
BRANCH 104 106
ATOM    106  C49 FKA d   1       2.460  11.481  21.903  0.00  0.00     0.021 C 
ATOM    107  H70 FKA d   1       2.273  11.175  20.863  0.00  0.00     0.071 H 
ATOM    108  H71 FKA d   1       2.825  12.518  21.920  0.00  0.00     0.071 H 
BRANCH 106 109
ATOM    109  C47 FKA d   1       1.166  11.497  22.559  0.00  0.00    -0.040 A 
ATOM    110  C46 FKA d   1       1.205  11.491  23.943  0.00  0.00    -0.075 A 
ATOM    111  C45 FKA d   1       0.035  11.492  24.671  0.00  0.00    -0.082 A 
ATOM    112  H72 FKA d   1       2.160  11.486  24.456  0.00  0.00     0.084 H 
ATOM    113  C39 FKA d   1      -1.181  11.490  24.027  0.00  0.00    -0.083 A 
ATOM    114  H73 FKA d   1       0.073  11.494  25.754  0.00  0.00     0.083 H 
ATOM    115  C38 FKA d   1      -1.218  11.498  22.648  0.00  0.00    -0.082 A 
ATOM    116  H74 FKA d   1      -2.102  11.482  24.598  0.00  0.00     0.083 H 
ATOM    117  C48 FKA d   1      -0.050  11.496  21.906  0.00  0.00    -0.075 A 
ATOM    118  H75 FKA d   1      -2.175  11.506  22.139  0.00  0.00     0.083 H 
ATOM    119  H76 FKA d   1      -0.090  11.494  20.823  0.00  0.00     0.084 H 
ENDBRANCH 106 109
ENDBRANCH 104 106
ENDBRANCH 101 102
ENDBRANCH  98 101
ENDBRANCH  95  98
ENDBRANCH  26  95
BRANCH  14 120
ATOM    120  O6  FKA d   1      14.706   6.419  27.680  0.00  0.00    -0.359 OA
ATOM    121  H15 FKA d   1      15.371   5.975  27.167  0.00  0.00     0.213 HD
ENDBRANCH  14 120
BRANCH  24 122
ATOM    122  C36 FKA d   1      11.071  11.475  20.469  0.00  0.00    -0.055 C 
ATOM    123  H34 FKA d   1      10.286  12.220  20.665  0.00  0.00     0.033 H 
ATOM    124  H35 FKA d   1      10.940  11.062  19.458  0.00  0.00     0.033 H 
ATOM    125  H36 FKA d   1      12.058  11.955  20.544  0.00  0.00     0.033 H 
ENDBRANCH  24 122
BRANCH  15 126
ATOM    126  C34 FKA d   1      13.800   8.004  29.730  0.00  0.00    -0.067 C 
ATOM    127  H16 FKA d   1      14.807   8.222  30.114  0.00  0.00     0.028 H 
ATOM    128  H17 FKA d   1      13.619   6.920  29.770  0.00  0.00     0.028 H 
ATOM    129  H18 FKA d   1      13.052   8.524  30.346  0.00  0.00     0.028 H 
ENDBRANCH  15 126
BRANCH  22 130
ATOM    130  C35 FKA d   1      14.533   8.794  21.508  0.00  0.00    -0.073 C 
ATOM    131  H29 FKA d   1      14.654   9.055  20.446  0.00  0.00     0.028 H 
ATOM    132  H30 FKA d   1      14.358   7.712  21.602  0.00  0.00     0.028 H 
ATOM    133  H31 FKA d   1      15.445   9.067  22.059  0.00  0.00     0.028 H 
ENDBRANCH  22 130
BRANCH  17 134
ATOM    134  O7  FKA d   1      10.767   8.036  25.881  0.00  0.00    -0.388 OA
BRANCH 134 135
ATOM    135  C42 FKA d   1       9.834   9.072  26.279  0.00  0.00     0.005 C 
ATOM    136  H19 FKA d   1       8.815   8.781  25.983  0.00  0.00     0.066 H 
ATOM    137  H20 FKA d   1      10.103  10.017  25.785  0.00  0.00     0.066 H 
ATOM    138  H21 FKA d   1       9.876   9.203  27.370  0.00  0.00     0.066 H 
ENDBRANCH 134 135
ENDBRANCH  17 134
BRANCH  20 139
ATOM    139  O8  FKA d   1      12.228   6.950  23.315  0.00  0.00    -0.388 OA
BRANCH 139 140
ATOM    140  C43 FKA d   1      12.605   5.571  23.152  0.00  0.00     0.005 C 
ATOM    141  H23 FKA d   1      11.793   5.026  22.648  0.00  0.00     0.066 H 
ATOM    142  H24 FKA d   1      12.790   5.122  24.139  0.00  0.00     0.066 H 
ATOM    143  H25 FKA d   1      13.520   5.510  22.544  0.00  0.00     0.066 H 
ENDBRANCH 139 140
ENDBRANCH  20 139
TORSDOF 22
