REMARK  13 active torsions:
REMARK  status: ('A' for Active; 'I' for Inactive)
REMARK       I    between atoms: C1_3  and  N_1 
REMARK    1  A    between atoms: N_1  and  OH_2 
REMARK    2  A    between atoms: CA_5  and  C1_3 
REMARK    3  A    between atoms: C_10  and  CA_5 
REMARK    4  A    between atoms: CA_5  and  CB_6 
REMARK    5  A    between atoms: CB_6  and  CG_7 
REMARK    6  A    between atoms: CG_7  and  CD2_9 
REMARK    7  A    between atoms: CG_7  and  CD1_8 
REMARK       I    between atoms: N_14  and  C_10 
REMARK    8  A    between atoms: CA_15  and  N_14 
REMARK    9  A    between atoms: C_16  and  CA_15 
REMARK   10  A    between atoms: CA_15  and  CB_18 
REMARK       I    between atoms: C_16  and  N_23 
REMARK   11  A    between atoms: CB_18  and  CG_19 
REMARK   12  A    between atoms: N_23  and  CB_24 
REMARK   13  A    between atoms: CB_24  and  CG_25 
ROOT
ATOM      1  CA  0ZB d   1      29.174  59.096  50.269  0.00  0.00     0.098 C 
ATOM      2  H14 0ZB d   1      29.285  60.093  49.818  0.00  0.00     0.088 H 
ENDROOT
BRANCH   1   3
ATOM      3  C   0ZB d   1      28.214  58.270  49.404  0.00  0.00     0.241 C 
ATOM      4  O   0ZB d   1      28.573  57.816  48.312  0.00  0.00    -0.271 OA
ATOM      5  N   0ZB d   1      26.994  58.071  49.902  0.00  0.00    -0.355 N 
ATOM      6  H17 0ZB d   1      26.788  58.456  50.802  0.00  0.00     0.162 HD
BRANCH   5   7
ATOM      7  CB  0ZB d   1      25.938  57.328  49.221  0.00  0.00     0.019 C 
ATOM      8  H18 0ZB d   1      25.859  57.783  48.223  0.00  0.00     0.071 H 
ATOM      9  H19 0ZB d   1      25.021  57.535  49.792  0.00  0.00     0.071 H 
BRANCH   7  10
ATOM     10  CG  0ZB d   1      25.932  55.840  48.983  0.00  0.00    -0.041 A 
ATOM     11  CD2 0ZB d   1      25.116  55.283  47.987  0.00  0.00    -0.075 A 
ATOM     12  CE2 0ZB d   1      25.080  53.904  47.788  0.00  0.00    -0.082 A 
ATOM     13  H22 0ZB d   1      24.508  55.931  47.366  0.00  0.00     0.084 H 
ATOM     14  CZ  0ZB d   1      25.861  53.049  48.582  0.00  0.00    -0.083 A 
ATOM     15  H23 0ZB d   1      24.444  53.489  47.014  0.00  0.00     0.083 H 
ATOM     16  CE1 0ZB d   1      26.682  53.594  49.577  0.00  0.00    -0.082 A 
ATOM     17  H24 0ZB d   1      25.829  51.977  48.426  0.00  0.00     0.083 H 
ATOM     18  CD1 0ZB d   1      26.710  54.985  49.769  0.00  0.00    -0.075 A 
ATOM     19  H21 0ZB d   1      27.292  52.946  50.196  0.00  0.00     0.083 H 
ATOM     20  H20 0ZB d   1      27.346  55.403  50.541  0.00  0.00     0.084 H 
ENDBRANCH   7  10
ENDBRANCH   5   7
ENDBRANCH   1   3
BRANCH   1  21
ATOM     21  CB  0ZB d   1      30.555  58.437  50.332  0.00  0.00     0.043 C 
ATOM     22  H15 0ZB d   1      30.426  57.372  50.576  0.00  0.00     0.052 H 
ATOM     23  H16 0ZB d   1      31.143  58.926  51.123  0.00  0.00     0.052 H 
BRANCH  21  24
ATOM     24  CG  0ZB d   1      31.315  58.546  49.025  0.00  0.00     0.175 C 
ATOM     25  OD1 0ZB d   1      31.839  59.640  48.724  0.00  0.00    -0.648 OA
ATOM     26  OD2 0ZB d   1      31.389  57.533  48.302  0.00  0.00    -0.648 OA
ENDBRANCH  21  24
ENDBRANCH   1  21
BRANCH   1  27
ATOM     27  N   0ZB d   1      28.619  59.248  51.603  0.00  0.00    -0.347 N 
ATOM     28  C   0ZB d   1      28.019  60.378  51.955  0.00  0.00     0.231 C 
ATOM     29  O   0ZB d   1      27.903  61.336  51.185  0.00  0.00    -0.273 OA
ATOM     30  H13 0ZB d   1      28.689  58.497  52.260  0.00  0.00     0.163 HD
BRANCH  28  31
ATOM     31  CA  0ZB d   1      27.438  60.437  53.371  0.00  0.00     0.103 C 
ATOM     32  H3  0ZB d   1      26.902  61.396  53.423  0.00  0.00     0.069 H 
BRANCH  31  33
ATOM     33  C1  0ZB d   1      26.383  59.371  53.747  0.00  0.00     0.254 C 
ATOM     34  N   0ZB d   1      25.165  59.639  53.320  0.00  0.00    -0.237 N 
ATOM     35  H1  0ZB d   1      24.886  60.238  52.569  0.00  0.00     0.197 HD
ATOM     36  O1  0ZB d   1      26.680  58.242  54.183  0.00  0.00    -0.270 OA
BRANCH  34  37
ATOM     37  OH  0ZB d   1      24.359  58.882  54.173  0.00  0.00    -0.287 OA
ATOM     38  H2  0ZB d   1      23.447  59.010  53.941  0.00  0.00     0.244 HD
ENDBRANCH  34  37
ENDBRANCH  31  33
BRANCH  31  39
ATOM     39  CB  0ZB d   1      28.569  60.518  54.416  0.00  0.00    -0.043 C 
ATOM     40  H4  0ZB d   1      29.473  60.850  53.884  0.00  0.00     0.035 H 
ATOM     41  H5  0ZB d   1      28.723  59.499  54.800  0.00  0.00     0.035 H 
BRANCH  39  42
ATOM     42  CG  0ZB d   1      28.407  61.439  55.642  0.00  0.00    -0.060 C 
ATOM     43  H6  0ZB d   1      29.267  61.273  56.308  0.00  0.00     0.038 H 
BRANCH  42  44
ATOM     44  CD2 0ZB d   1      27.142  61.131  56.416  0.00  0.00    -0.073 C 
ATOM     45  H10 0ZB d   1      27.147  60.074  56.722  0.00  0.00     0.028 H 
ATOM     46  H11 0ZB d   1      26.266  61.324  55.779  0.00  0.00     0.028 H 
ATOM     47  H12 0ZB d   1      27.094  61.771  57.309  0.00  0.00     0.028 H 
ENDBRANCH  42  44
BRANCH  42  48
ATOM     48  CD1 0ZB d   1      28.401  62.896  55.220  0.00  0.00    -0.073 C 
ATOM     49  H7  0ZB d   1      28.285  63.535  56.108  0.00  0.00     0.028 H 
ATOM     50  H8  0ZB d   1      27.564  63.074  54.528  0.00  0.00     0.028 H 
ATOM     51  H9  0ZB d   1      29.350  63.136  54.718  0.00  0.00     0.028 H 
ENDBRANCH  42  48
ENDBRANCH  39  42
ENDBRANCH  31  39
ENDBRANCH  28  31
ENDBRANCH   1  27
TORSDOF 13
