REMARK  9 active torsions:
REMARK  status: ('A' for Active; 'I' for Inactive)
REMARK    1  A    between atoms: C5_5  and  C6_6 
REMARK    2  A    between atoms: C7_7  and  C12_12 
REMARK    3  A    between atoms: C15_15  and  C18_18 
REMARK    4  A    between atoms: C18_18  and  N19_19 
REMARK    5  A    between atoms: C20_20  and  C21_21 
REMARK    6  A    between atoms: C21_21  and  C22_22 
REMARK    7  A    between atoms: C22_22  and  C23_23 
REMARK    8  A    between atoms: C23_23  and  C24_24 
REMARK    9  A    between atoms: C29_29  and  O30_30 
ROOT
ATOM      1  N19 061 d   1       6.565  39.943   0.270  0.00  0.00    -0.297 N 
ATOM      2  C20 061 d   1       6.449  41.168  -0.279  0.00  0.00     0.110 A 
ATOM      3  N25 061 d   1       6.644  42.260   0.424  0.00  0.00    -0.234 NA
ATOM      4  C26 061 d   1       6.942  42.248   1.717  0.00  0.00     0.074 A 
ATOM      5  C27 061 d   1       7.062  43.436   2.453  0.00  0.00    -0.051 A 
ATOM      6  C28 061 d   1       7.389  43.371   3.812  0.00  0.00    -0.049 A 
ATOM      7  C29 061 d   1       7.541  42.130   4.465  0.00  0.00     0.066 A 
ATOM      8  C31 061 d   1       7.386  40.942   3.741  0.00  0.00    -0.034 A 
ATOM      9  C32 061 d   1       7.097  41.010   2.375  0.00  0.00     0.064 A 
ATOM     10  C33 061 d   1       6.894  39.800   1.548  0.00  0.00     0.262 A 
ATOM     11  O34 061 d   1       6.982  38.703   2.064  0.00  0.00    -0.267 OA
ATOM     12  H21 061 d   1       6.903  44.395   1.974  0.00  0.00     0.087 H 
ATOM     13  H22 061 d   1       7.528  44.289   4.372  0.00  0.00     0.087 H 
ATOM     14  H24 061 d   1       7.489  39.982   4.233  0.00  0.00     0.089 H 
ENDROOT
BRANCH   1  15
ATOM     15  C18 061 d   1       6.295  38.746  -0.504  0.00  0.00     0.028 C 
ATOM     16  H10 061 d   1       6.137  37.943   0.230  0.00  0.00     0.072 H 
ATOM     17  H11 061 d   1       5.356  38.941  -1.042  0.00  0.00     0.072 H 
BRANCH  15  18
ATOM     18  C15 061 d   1       7.247  38.186  -1.528  0.00  0.00    -0.040 A 
ATOM     19  C14 061 d   1       8.340  38.870  -2.070  0.00  0.00    -0.074 A 
ATOM     20  C13 061 d   1       9.128  38.222  -3.051  0.00  0.00    -0.072 A 
ATOM     21  H7  061 d   1       8.579  39.876  -1.745  0.00  0.00     0.084 H 
ATOM     22  C12 061 d   1       8.797  36.928  -3.457  0.00  0.00    -0.025 A 
ATOM     23  H6  061 d   1       9.983  38.727  -3.485  0.00  0.00     0.084 H 
ATOM     24  C17 061 d   1       7.745  36.203  -2.862  0.00  0.00    -0.072 A 
ATOM     25  C16 061 d   1       6.940  36.885  -1.942  0.00  0.00    -0.074 A 
ATOM     26  H9  061 d   1       7.567  35.162  -3.106  0.00  0.00     0.084 H 
ATOM     27  H8  061 d   1       6.060  36.395  -1.542  0.00  0.00     0.084 H 
BRANCH  22  28
ATOM     28  C7  061 d   1       9.664  36.172  -4.395  0.00  0.00    -0.012 A 
ATOM     29  C6  061 d   1      10.183  34.924  -3.943  0.00  0.00     0.024 A 
ATOM     30  C11 061 d   1      10.984  34.187  -4.804  0.00  0.00    -0.068 A 
ATOM     31  C10 061 d   1      11.276  34.667  -6.098  0.00  0.00    -0.082 A 
ATOM     32  H5  061 d   1      11.388  33.235  -4.480  0.00  0.00     0.085 H 
ATOM     33  C9  061 d   1      10.772  35.898  -6.507  0.00  0.00    -0.082 A 
ATOM     34  H4  061 d   1      11.890  34.080  -6.771  0.00  0.00     0.083 H 
ATOM     35  C8  061 d   1       9.959  36.649  -5.666  0.00  0.00    -0.071 A 
ATOM     36  H3  061 d   1      11.016  36.276  -7.493  0.00  0.00     0.083 H 
ATOM     37  H2  061 d   1       9.558  37.599  -5.999  0.00  0.00     0.084 H 
BRANCH  29  38
ATOM     38  C5  061 d   1       9.792  34.422  -2.613  0.00  0.00     0.180 A 
ATOM     39  N1  061 d   1      10.492  33.975  -1.556  0.00  0.00    -0.239 N 
ATOM     40  N2  061 d   1       9.669  33.668  -0.577  0.00  0.00    -0.046 NA
ATOM     41  H1  061 d   1      11.518  33.886  -1.518  0.00  0.00     0.192 HD
ATOM     42  N3  061 d   1       8.459  33.910  -0.993  0.00  0.00    -0.023 NA
ATOM     43  N4  061 d   1       8.465  34.436  -2.243  0.00  0.00    -0.108 NA
ENDBRANCH  29  38
ENDBRANCH  22  28
ENDBRANCH  15  18
ENDBRANCH   1  15
BRANCH   2  44
ATOM     44  C21 061 d   1       6.131  41.373  -1.729  0.00  0.00    -0.010 C 
ATOM     45  H12 061 d   1       7.074  41.241  -2.280  0.00  0.00     0.044 H 
ATOM     46  H13 061 d   1       5.788  42.413  -1.833  0.00  0.00     0.044 H 
BRANCH  44  47
ATOM     47  C22 061 d   1       5.111  40.515  -2.411  0.00  0.00    -0.059 C 
ATOM     48  H14 061 d   1       4.110  40.873  -2.129  0.00  0.00     0.033 H 
ATOM     49  H15 061 d   1       5.240  39.479  -2.066  0.00  0.00     0.033 H 
BRANCH  47  50
ATOM     50  C23 061 d   1       5.221  40.535  -3.936  0.00  0.00    -0.068 C 
ATOM     51  H16 061 d   1       4.545  39.778  -4.359  0.00  0.00     0.032 H 
ATOM     52  H17 061 d   1       6.256  40.307  -4.229  0.00  0.00     0.032 H 
BRANCH  50  53
ATOM     53  C24 061 d   1       4.828  41.940  -4.483  0.00  0.00    -0.077 C 
ATOM     54  H18 061 d   1       4.911  41.943  -5.580  0.00  0.00     0.027 H 
ATOM     55  H19 061 d   1       5.504  42.699  -4.062  0.00  0.00     0.027 H 
ATOM     56  H20 061 d   1       3.792  42.170  -4.193  0.00  0.00     0.027 H 
ENDBRANCH  50  53
ENDBRANCH  47  50
ENDBRANCH  44  47
ENDBRANCH   2  44
BRANCH   7  57
ATOM     57  O30 061 d   1       7.842  42.130   5.807  0.00  0.00    -0.361 OA
ATOM     58  H23 061 d   1       7.915  41.234   6.114  0.00  0.00     0.217 HD
ENDBRANCH   7  57
TORSDOF 9
