REMARK  3 active torsions:
REMARK  status: ('A' for Active; 'I' for Inactive)
REMARK    1  A    between atoms: S1_3  and  C1_2 
REMARK    2  A    between atoms: S1_3  and  CA3_6 
REMARK    3  A    between atoms: CC5_20  and  CB4_13 
ROOT
ATOM      1  CA1 SB2 d   1       0.463  17.215  27.773  0.00  0.00    -0.068 A 
ATOM      2  CA2 SB2 d   1       0.075  18.563  27.590  0.00  0.00    -0.064 A 
ATOM      3  CA3 SB2 d   1       1.069  19.579  27.613  0.00  0.00     0.031 A 
ATOM      4  CA4 SB2 d   1       2.444  19.278  27.802  0.00  0.00    -0.064 A 
ATOM      5  CA5 SB2 d   1       2.826  17.933  27.981  0.00  0.00    -0.068 A 
ATOM      6  CA6 SB2 d   1       1.852  16.853  27.972  0.00  0.00     0.010 A 
ATOM      7  NC1 SB2 d   1       1.347  14.432  28.206  0.00  0.00    -0.338 N 
ATOM      8  CC2 SB2 d   1       2.255  15.490  28.183  0.00  0.00     0.139 A 
ATOM      9  NC3 SB2 d   1       3.576  15.169  28.381  0.00  0.00    -0.227 NA
ATOM     10  CC4 SB2 d   1       3.553  13.784  28.563  0.00  0.00     0.097 A 
ATOM     11  CC5 SB2 d   1       2.150  13.303  28.479  0.00  0.00     0.074 A 
ATOM     12  CD1 SB2 d   1       5.338  13.337  30.169  0.00  0.00    -0.068 A 
ATOM     13  CD2 SB2 d   1       6.535  12.707  30.543  0.00  0.00    -0.045 A 
ATOM     14  CD3 SB2 d   1       7.189  11.834  29.638  0.00  0.00     0.116 A 
ATOM     15  CD4 SB2 d   1       6.636  11.584  28.339  0.00  0.00    -0.045 A 
ATOM     16  CD5 SB2 d   1       5.427  12.219  27.960  0.00  0.00    -0.068 A 
ATOM     17  CD6 SB2 d   1       4.755  13.110  28.880  0.00  0.00    -0.005 A 
ATOM     18  FD3 SB2 d   1       8.355  11.233  30.035  0.00  0.00    -0.206 F 
ATOM     19  H4  SB2 d   1      -0.293  16.438  27.764  0.00  0.00     0.085 H 
ATOM     20  H5  SB2 d   1      -0.967  18.818  27.434  0.00  0.00     0.085 H 
ATOM     21  H6  SB2 d   1       3.186  20.068  27.808  0.00  0.00     0.085 H 
ATOM     22  H7  SB2 d   1       3.874  17.697  28.129  0.00  0.00     0.085 H 
ATOM     23  H12 SB2 d   1       0.328  14.466  28.058  0.00  0.00     0.167 HD
ATOM     24  H13 SB2 d   1       4.847  14.006  30.866  0.00  0.00     0.085 H 
ATOM     25  H14 SB2 d   1       6.959  12.888  31.524  0.00  0.00     0.088 H 
ATOM     26  H15 SB2 d   1       7.139  10.914  27.651  0.00  0.00     0.088 H 
ATOM     27  H16 SB2 d   1       5.005  12.037  26.978  0.00  0.00     0.085 H 
ENDROOT
BRANCH  11  28
ATOM     28  CB4 SB2 d   1       1.572  11.953  28.598  0.00  0.00    -0.004 A 
ATOM     29  CB5 SB2 d   1       1.989  11.057  29.683  0.00  0.00    -0.054 A 
ATOM     30  CB6 SB2 d   1       1.408   9.765  29.789  0.00  0.00     0.003 A 
ATOM     31  H10 SB2 d   1       2.736  11.379  30.399  0.00  0.00     0.087 H 
ATOM     32  NB1 SB2 d   1       0.469   9.354  28.905  0.00  0.00    -0.273 NA
ATOM     33  H11 SB2 d   1       1.720   9.101  30.587  0.00  0.00     0.114 H 
ATOM     34  CB2 SB2 d   1       0.033  10.130  27.884  0.00  0.00     0.003 A 
ATOM     35  CB3 SB2 d   1       0.560  11.449  27.685  0.00  0.00    -0.054 A 
ATOM     36  H8  SB2 d   1      -0.724   9.749  27.208  0.00  0.00     0.114 H 
ATOM     37  H9  SB2 d   1       0.208  12.062  26.864  0.00  0.00     0.087 H 
ENDBRANCH  11  28
BRANCH   3  38
ATOM     38  S1  SB2 d   1       0.588  21.264  27.403  0.00  0.00     0.045 S 
ATOM     39  O2  SB2 d   1      -0.940  21.570  27.801  0.00  0.00    -0.253 OA
BRANCH  38  40
ATOM     40  C1  SB2 d   1       1.767  22.346  28.287  0.00  0.00    -0.004 C 
ATOM     41  H1  SB2 d   1       2.794  22.097  27.980  0.00  0.00     0.045 H 
ATOM     42  H2  SB2 d   1       1.661  22.195  29.371  0.00  0.00     0.045 H 
ATOM     43  H3  SB2 d   1       1.556  23.397  28.041  0.00  0.00     0.045 H 
ENDBRANCH  38  40
ENDBRANCH   3  38
TORSDOF 3
