REMARK  5 active torsions:
REMARK  status: ('A' for Active; 'I' for Inactive)
REMARK    1  A    between atoms: C1_1  and  O1_7 
REMARK    2  A    between atoms: C2_2  and  O2_8 
REMARK    3  A    between atoms: C3_3  and  O3_9 
REMARK    4  A    between atoms: C4_4  and  O4_10 
REMARK    5  A    between atoms: C5_5  and  C6_6 
ROOT
ATOM      1  C1  FCA d   1      14.220  56.953  55.173  0.00  0.00     0.156 C 
ATOM      2  C2  FCA d   1      12.784  57.219  54.807  0.00  0.00     0.110 C 
ATOM      3  C3  FCA d   1      12.273  56.271  53.780  0.00  0.00     0.092 C 
ATOM      4  C4  FCA d   1      13.122  56.443  52.526  0.00  0.00     0.087 C 
ATOM      5  C5  FCA d   1      14.603  56.178  52.877  0.00  0.00     0.065 C 
ATOM      6  O5  FCA d   1      15.019  57.054  53.912  0.00  0.00    -0.351 OA
ATOM      7  H1  FCA d   1      14.557  57.717  55.889  0.00  0.00     0.133 H 
ATOM      8  H2  FCA d   1      12.741  58.221  54.355  0.00  0.00     0.094 H 
ATOM      9  H3  FCA d   1      12.374  55.241  54.151  0.00  0.00     0.091 H 
ATOM     10  H4  FCA d   1      12.795  55.715  51.769  0.00  0.00     0.091 H 
ATOM     11  H5  FCA d   1      14.689  55.132  53.207  0.00  0.00     0.086 H 
ENDROOT
BRANCH   5  12
ATOM     12  C6  FCA d   1      15.606  56.429  51.764  0.00  0.00    -0.050 C 
ATOM     13  H6  FCA d   1      16.620  56.208  52.128  0.00  0.00     0.031 H 
ATOM     14  H7  FCA d   1      15.550  57.482  51.451  0.00  0.00     0.031 H 
ATOM     15  H8  FCA d   1      15.374  55.779  50.908  0.00  0.00     0.031 H 
ENDBRANCH   5  12
BRANCH   4  16
ATOM     16  O4  FCA d   1      12.972  57.772  51.989  0.00  0.00    -0.390 OA
ATOM     17  H12 FCA d   1      13.500  57.856  51.203  0.00  0.00     0.210 HD
ENDBRANCH   4  16
BRANCH   3  18
ATOM     18  O3  FCA d   1      10.870  56.530  53.492  0.00  0.00    -0.390 OA
ATOM     19  H11 FCA d   1      10.359  56.418  54.285  0.00  0.00     0.210 HD
ENDBRANCH   3  18
BRANCH   1  20
ATOM     20  O1  FCA d   1      14.403  55.718  55.733  0.00  0.00    -0.369 OA
ATOM     21  H9  FCA d   1      15.324  55.595  55.931  0.00  0.00     0.212 HD
ENDBRANCH   1  20
BRANCH   2  22
ATOM     22  O2  FCA d   1      11.952  57.262  56.060  0.00  0.00    -0.388 OA
ATOM     23  H10 FCA d   1      11.067  57.531  55.842  0.00  0.00     0.210 HD
ENDBRANCH   2  22
TORSDOF 5
