REMARK  31 active torsions:
REMARK  status: ('A' for Active; 'I' for Inactive)
REMARK    1  A    between atoms: CA_2  and  N_1 
REMARK    2  A    between atoms: CA_2  and  CB_5 
REMARK    3  A    between atoms: C_3  and  CA_2 
REMARK       I    between atoms: N_25  and  C_3 
REMARK    4  A    between atoms: CB_5  and  CG_6 
REMARK    5  A    between atoms: CG_6  and  CD_7 
REMARK    6  A    between atoms: CD_7  and  CE_8 
REMARK    7  A    between atoms: CE_8  and  NZ_9 
REMARK    8  A    between atoms: CA_26  and  N_25 
REMARK    9  A    between atoms: CA_26  and  CB_29 
REMARK   10  A    between atoms: C_27  and  CA_26 
REMARK       I    between atoms: N_42  and  C_27 
REMARK   11  A    between atoms: CB_29  and  CG_30 
REMARK   12  A    between atoms: CA_43  and  N_42 
REMARK   13  A    between atoms: CA_43  and  CB_46 
REMARK   14  A    between atoms: C_44  and  CA_43 
REMARK       I    between atoms: N_66  and  C_44 
REMARK   15  A    between atoms: CB_46  and  CG_47 
REMARK   16  A    between atoms: CA_67  and  N_66 
REMARK   17  A    between atoms: CA_67  and  CB_70 
REMARK   18  A    between atoms: C_68  and  CA_67 
REMARK       I    between atoms: N_82  and  C_68 
REMARK   19  A    between atoms: CB_70  and  CG2_72 
REMARK   20  A    between atoms: CB_70  and  CG1_71 
REMARK   21  A    between atoms: CA_83  and  N_82 
REMARK   22  A    between atoms: CA_83  and  CB_86 
REMARK   23  A    between atoms: C_84  and  CA_83 
REMARK       I    between atoms: C_84  and  N_103 
REMARK   24  A    between atoms: CB_86  and  CG_87 
REMARK   25  A    between atoms: CZ_92  and  OH_93 
REMARK   26  A    between atoms: N_103  and  CA_104 
REMARK   27  A    between atoms: CA_104  and  CB_107 
REMARK   28  A    between atoms: CA_104  and  C_105 
REMARK   29  A    between atoms: C_105  and  O1_124 
REMARK   30  A    between atoms: CB_107  and  CG_108 
REMARK   31  A    between atoms: CZ_113  and  OH_114 
ROOT
ATOM      1  CA  TRP d   1      -5.245   0.372   6.488  0.00  0.00     0.093 C 
ATOM      2  H24 TRP d   1      -5.193   0.233   7.578  0.00  0.00     0.088 H 
ENDROOT
BRANCH   1   3
ATOM      3  N   TRP d   1      -4.780   1.742   6.191  0.00  0.00    -0.346 N 
ATOM      4  H23 TRP d   1      -4.914   2.101   5.268  0.00  0.00     0.163 HD
ATOM      5  C   HIS d   1      -4.194   2.516   7.090  0.00  0.00     0.241 C 
ATOM      6  O   HIS d   1      -3.883   2.159   8.225  0.00  0.00    -0.271 OA
BRANCH   5   7
ATOM      7  CA  HIS d   1      -3.878   3.932   6.589  0.00  0.00     0.094 C 
ATOM      8  H17 HIS d   1      -4.651   4.236   5.868  0.00  0.00     0.088 H 
BRANCH   7   9
ATOM      9  N   HIS d   1      -3.881   4.883   7.718  0.00  0.00    -0.346 N 
ATOM     10  H16 HIS d   1      -3.545   4.559   8.602  0.00  0.00     0.163 HD
ATOM     11  C   LYS d   1      -4.299   6.136   7.638  0.00  0.00     0.249 C 
ATOM     12  O   LYS d   1      -4.867   6.622   6.660  0.00  0.00    -0.271 OA
BRANCH  11  13
ATOM     13  CA  LYS d   1      -3.984   6.958   8.906  0.00  0.00     0.176 C 
ATOM     14  H4  LYS d   1      -3.892   6.242   9.736  0.00  0.00     0.099 H 
BRANCH  13  15
ATOM     15  N   LYS d   1      -2.701   7.693   8.802  0.00  0.00    -0.067 N 
ATOM     16  H1  LYS d   1      -2.541   8.212   9.651  0.00  0.00     0.275 HD
ATOM     17  H2  LYS d   1      -2.741   8.330   8.022  0.00  0.00     0.275 HD
ATOM     18  H3  LYS d   1      -1.948   7.037   8.663  0.00  0.00     0.275 HD
ENDBRANCH  13  15
BRANCH  13  19
ATOM     19  CB  LYS d   1      -5.099   7.947   9.268  0.00  0.00    -0.030 C 
ATOM     20  H5  LYS d   1      -5.291   8.598   8.402  0.00  0.00     0.036 H 
ATOM     21  H6  LYS d   1      -4.769   8.559  10.120  0.00  0.00     0.036 H 
BRANCH  19  22
ATOM     22  CG  LYS d   1      -6.402   7.230   9.648  0.00  0.00    -0.061 C 
ATOM     23  H7  LYS d   1      -6.202   6.535  10.477  0.00  0.00     0.033 H 
ATOM     24  H8  LYS d   1      -6.769   6.666   8.778  0.00  0.00     0.033 H 
BRANCH  22  25
ATOM     25  CD  LYS d   1      -7.473   8.233  10.083  0.00  0.00    -0.043 C 
ATOM     26  H9  LYS d   1      -7.612   8.977   9.285  0.00  0.00     0.035 H 
ATOM     27  H10 LYS d   1      -7.138   8.738  11.001  0.00  0.00     0.035 H 
BRANCH  25  28
ATOM     28  CE  LYS d   1      -8.810   7.542  10.356  0.00  0.00     0.080 C 
ATOM     29  H11 LYS d   1      -9.107   6.976   9.461  0.00  0.00     0.075 H 
ATOM     30  H12 LYS d   1      -9.569   8.308  10.574  0.00  0.00     0.075 H 
BRANCH  28  31
ATOM     31  NZ  LYS d   1      -8.725   6.618  11.498  0.00  0.00    -0.079 N 
ATOM     32  H13 LYS d   1      -9.622   6.184  11.646  0.00  0.00     0.274 HD
ATOM     33  H14 LYS d   1      -8.459   7.129  12.325  0.00  0.00     0.274 HD
ATOM     34  H15 LYS d   1      -8.036   5.908  11.305  0.00  0.00     0.274 HD
ENDBRANCH  28  31
ENDBRANCH  25  28
ENDBRANCH  22  25
ENDBRANCH  19  22
ENDBRANCH  13  19
ENDBRANCH  11  13
ENDBRANCH   7   9
BRANCH   7  35
ATOM     35  CB  HIS d   1      -2.517   3.942   5.888  0.00  0.00     0.004 C 
ATOM     36  H18 HIS d   1      -2.561   3.252   5.032  0.00  0.00     0.046 H 
ATOM     37  H19 HIS d   1      -1.756   3.593   6.601  0.00  0.00     0.046 H 
BRANCH  35  38
ATOM     38  CG  HIS d   1      -2.105   5.319   5.377  0.00  0.00     0.053 A 
ATOM     39  ND1 HIS d   1      -1.358   6.204   6.040  0.00  0.00    -0.247 NA
ATOM     40  CE1 HIS d   1      -1.327   7.331   5.341  0.00  0.00     0.064 A 
ATOM     41  NE2 HIS d   1      -2.029   7.144   4.232  0.00  0.00    -0.359 N 
ATOM     42  H21 HIS d   1      -0.815   8.248   5.628  0.00  0.00     0.143 H 
ATOM     43  CD2 HIS d   1      -2.496   5.891   4.238  0.00  0.00     0.002 A 
ATOM     44  H22 HIS d   1      -2.187   7.844   3.493  0.00  0.00     0.166 HD
ATOM     45  H20 HIS d   1      -3.089   5.422   3.454  0.00  0.00     0.114 H 
ENDBRANCH  35  38
ENDBRANCH   7  35
ENDBRANCH   5   7
ENDBRANCH   1   3
BRANCH   1  46
ATOM     46  CB  TRP d   1      -6.702   0.241   6.046  0.00  0.00    -0.012 C 
ATOM     47  H25 TRP d   1      -6.890  -0.805   5.761  0.00  0.00     0.044 H 
ATOM     48  H26 TRP d   1      -6.865   0.893   5.175  0.00  0.00     0.044 H 
BRANCH  46  49
ATOM     49  CG  TRP d   1      -7.689   0.633   7.140  0.00  0.00    -0.028 A 
ATOM     50  CD1 TRP d   1      -8.321  -0.252   7.898  0.00  0.00    -0.015 A 
ATOM     51  NE1 TRP d   1      -9.041   0.370   8.831  0.00  0.00    -0.365 N 
ATOM     52  H27 TRP d   1      -8.261  -1.332   7.776  0.00  0.00     0.112 H 
ATOM     53  CE2 TRP d   1      -8.894   1.688   8.685  0.00  0.00     0.042 A 
ATOM     54  H28 TRP d   1      -9.618  -0.092   9.549  0.00  0.00     0.165 HD
ATOM     55  CD2 TRP d   1      -8.037   1.898   7.591  0.00  0.00    -0.002 A 
ATOM     56  CZ2 TRP d   1      -9.472   2.781   9.374  0.00  0.00    -0.056 A 
ATOM     57  CE3 TRP d   1      -7.740   3.214   7.165  0.00  0.00    -0.070 A 
ATOM     58  CZ3 TRP d   1      -8.314   4.304   7.846  0.00  0.00    -0.082 A 
ATOM     59  H29 TRP d   1      -7.078   3.381   6.323  0.00  0.00     0.084 H 
ATOM     60  CH2 TRP d   1      -9.181   4.094   8.936  0.00  0.00    -0.081 A 
ATOM     61  H31 TRP d   1      -8.086   5.315   7.528  0.00  0.00     0.083 H 
ATOM     62  H32 TRP d   1      -9.627   4.943   9.442  0.00  0.00     0.083 H 
ATOM     63  H30 TRP d   1     -10.126   2.615  10.222  0.00  0.00     0.086 H 
ENDBRANCH  46  49
ENDBRANCH   1  46
BRANCH   1  64
ATOM     64  C   TRP d   1      -4.420  -0.745   5.842  0.00  0.00     0.241 C 
ATOM     65  O   TRP d   1      -3.888  -0.603   4.738  0.00  0.00    -0.271 OA
ATOM     66  N   VAL d   1      -4.222  -1.768   6.666  0.00  0.00    -0.346 N 
ATOM     67  H33 VAL d   1      -4.353  -1.619   7.646  0.00  0.00     0.163 HD
BRANCH  66  68
ATOM     68  CA  VAL d   1      -3.820  -3.111   6.212  0.00  0.00     0.092 C 
ATOM     69  H34 VAL d   1      -3.045  -2.961   5.446  0.00  0.00     0.088 H 
BRANCH  68  70
ATOM     70  CB  VAL d   1      -3.212  -4.017   7.299  0.00  0.00    -0.033 C 
ATOM     71  H35 VAL d   1      -3.152  -5.024   6.859  0.00  0.00     0.042 H 
BRANCH  70  72
ATOM     72  CG2 VAL d   1      -4.085  -4.142   8.564  0.00  0.00    -0.071 C 
ATOM     73  H39 VAL d   1      -5.106  -4.433   8.277  0.00  0.00     0.028 H 
ATOM     74  H40 VAL d   1      -4.112  -3.175   9.088  0.00  0.00     0.028 H 
ATOM     75  H41 VAL d   1      -3.659  -4.907   9.229  0.00  0.00     0.028 H 
ENDBRANCH  70  72
BRANCH  70  76
ATOM     76  CG1 VAL d   1      -1.781  -3.612   7.671  0.00  0.00    -0.071 C 
ATOM     77  H36 VAL d   1      -1.398  -4.290   8.448  0.00  0.00     0.028 H 
ATOM     78  H37 VAL d   1      -1.779  -2.580   8.052  0.00  0.00     0.028 H 
ATOM     79  H38 VAL d   1      -1.139  -3.675   6.780  0.00  0.00     0.028 H 
ENDBRANCH  70  76
ENDBRANCH  68  70
BRANCH  68  80
ATOM     80  C   VAL d   1      -4.990  -3.863   5.557  0.00  0.00     0.241 C 
ATOM     81  O   VAL d   1      -6.110  -3.902   6.054  0.00  0.00    -0.271 OA
ATOM     82  N   TYR d   1      -4.675  -4.390   4.388  0.00  0.00    -0.346 N 
ATOM     83  H42 TYR d   1      -3.807  -4.117   3.973  0.00  0.00     0.163 HD
BRANCH  82  84
ATOM     84  CA  TYR d   1      -5.513  -5.352   3.654  0.00  0.00     0.093 C 
ATOM     85  H43 TYR d   1      -6.377  -5.612   4.284  0.00  0.00     0.088 H 
BRANCH  84  86
ATOM     86  CB  TYR d   1      -6.039  -4.740   2.355  0.00  0.00    -0.014 C 
ATOM     87  H44 TYR d   1      -6.239  -5.545   1.632  0.00  0.00     0.043 H 
ATOM     88  H45 TYR d   1      -5.280  -4.058   1.944  0.00  0.00     0.043 H 
BRANCH  86  89
ATOM     89  CG  TYR d   1      -7.334  -3.957   2.607  0.00  0.00    -0.056 A 
ATOM     90  CD1 TYR d   1      -8.568  -4.643   2.528  0.00  0.00    -0.074 A 
ATOM     91  CE1 TYR d   1      -9.761  -3.912   2.708  0.00  0.00    -0.051 A 
ATOM     92  H46 TYR d   1      -8.597  -5.709   2.333  0.00  0.00     0.084 H 
ATOM     93  CZ  TYR d   1      -9.690  -2.531   2.958  0.00  0.00     0.065 A 
ATOM     94  H48 TYR d   1     -10.722  -4.410   2.654  0.00  0.00     0.087 H 
ATOM     95  CE2 TYR d   1      -8.455  -1.845   3.037  0.00  0.00    -0.051 A 
ATOM     96  CD2 TYR d   1      -7.263  -2.576   2.858  0.00  0.00    -0.074 A 
ATOM     97  H49 TYR d   1      -8.426  -0.779   3.231  0.00  0.00     0.087 H 
ATOM     98  H47 TYR d   1      -6.302  -2.078   2.913  0.00  0.00     0.084 H 
BRANCH  93  99
ATOM     99  OH  TYR d   1     -10.833  -1.826   3.159  0.00  0.00    -0.361 OA
ATOM    100  H50 TYR d   1     -11.580  -2.407   3.077  0.00  0.00     0.217 HD
ENDBRANCH  93  99
ENDBRANCH  86  89
ENDBRANCH  84  86
BRANCH  84 101
ATOM    101  C   TYR d   1      -4.715  -6.628   3.382  0.00  0.00     0.241 C 
ATOM    102  O   TYR d   1      -3.505  -6.603   3.143  0.00  0.00    -0.271 OA
ATOM    103  N   TYR d   1      -5.453  -7.735   3.416  0.00  0.00    -0.345 N 
ATOM    104  H51 TYR d   1      -6.444  -7.646   3.511  0.00  0.00     0.163 HD
BRANCH 103 105
ATOM    105  CA  TYR d   1      -4.872  -9.089   3.320  0.00  0.00     0.097 C 
ATOM    106  H52 TYR d   1      -3.782  -8.951   3.258  0.00  0.00     0.089 H 
BRANCH 105 107
ATOM    107  CB  TYR d   1      -5.160  -9.873   4.608  0.00  0.00    -0.013 C 
ATOM    108  H53 TYR d   1      -5.001 -10.943   4.407  0.00  0.00     0.043 H 
ATOM    109  H54 TYR d   1      -6.210  -9.705   4.891  0.00  0.00     0.043 H 
BRANCH 107 110
ATOM    110  CG  TYR d   1      -4.266  -9.462   5.790  0.00  0.00    -0.056 A 
ATOM    111  CD1 TYR d   1      -4.574  -8.288   6.516  0.00  0.00    -0.074 A 
ATOM    112  CE1 TYR d   1      -3.928  -8.037   7.737  0.00  0.00    -0.051 A 
ATOM    113  H55 TYR d   1      -5.305  -7.586   6.132  0.00  0.00     0.084 H 
ATOM    114  CZ  TYR d   1      -2.969  -8.970   8.204  0.00  0.00     0.065 A 
ATOM    115  H57 TYR d   1      -4.158  -7.147   8.311  0.00  0.00     0.087 H 
ATOM    116  CE2 TYR d   1      -2.651 -10.133   7.479  0.00  0.00    -0.051 A 
ATOM    117  CD2 TYR d   1      -3.297 -10.375   6.254  0.00  0.00    -0.074 A 
ATOM    118  H58 TYR d   1      -1.917 -10.834   7.860  0.00  0.00     0.087 H 
ATOM    119  H56 TYR d   1      -3.052 -11.256   5.671  0.00  0.00     0.084 H 
BRANCH 114 120
ATOM    120  OH  TYR d   1      -2.320  -8.718   9.368  0.00  0.00    -0.361 OA
ATOM    121  H59 TYR d   1      -2.640  -7.904   9.738  0.00  0.00     0.217 HD
ENDBRANCH 114 120
ENDBRANCH 107 110
ENDBRANCH 105 107
BRANCH 105 122
ATOM    122  C   TYR d   1      -5.266  -9.909   2.083  0.00  0.00     0.163 C 
ATOM    123  O   TYR d   1      -4.617 -10.969   1.893  0.00  0.00    -0.648 OA
BRANCH 122 124
ATOM    124  O1  TYR d   1      -6.237  -9.521   1.261  0.00  0.00    -0.775 OA
ATOM    125  H60 TYR d   1      -5.881  -9.400   0.388  0.00  0.00     0.167 HD
ENDBRANCH 122 124
ENDBRANCH 105 122
ENDBRANCH 103 105
ENDBRANCH  84 101
ENDBRANCH  82  84
ENDBRANCH  68  80
ENDBRANCH  66  68
ENDBRANCH   1  64
TORSDOF 31
