REMARK  1 active torsions:
REMARK  status: ('A' for Active; 'I' for Inactive)
REMARK    1  A    between atoms: C10_10  and  N15_15 
ROOT
ATOM      1  C1  THA d   1       6.362  71.261  69.025  0.00  0.00    -0.081 A 
ATOM      2  C2  THA d   1       6.697  70.955  67.712  0.00  0.00    -0.054 A 
ATOM      3  C3  THA d   1       5.719  70.518  66.819  0.00  0.00     0.069 A 
ATOM      4  C4  THA d   1       4.351  70.381  67.260  0.00  0.00     0.019 A 
ATOM      5  C5  THA d   1       4.056  70.702  68.603  0.00  0.00    -0.069 A 
ATOM      6  C6  THA d   1       5.053  71.136  69.468  0.00  0.00    -0.082 A 
ATOM      7  N7  THA d   1       6.068  70.236  65.585  0.00  0.00    -0.252 NA
ATOM      8  C8  THA d   1       5.207  69.821  64.683  0.00  0.00     0.043 A 
ATOM      9  C9  THA d   1       3.833  69.634  64.995  0.00  0.00    -0.006 A 
ATOM     10  C10 THA d   1       3.396  69.933  66.309  0.00  0.00     0.046 A 
ATOM     11  C11 THA d   1       5.776  69.459  63.289  0.00  0.00    -0.024 C 
ATOM     12  C12 THA d   1       4.736  69.363  62.145  0.00  0.00    -0.060 C 
ATOM     13  C13 THA d   1       3.515  68.540  62.597  0.00  0.00    -0.061 C 
ATOM     14  C14 THA d   1       2.860  69.177  63.848  0.00  0.00    -0.037 C 
ATOM     15  H1  THA d   1       7.130  71.601  69.710  0.00  0.00     0.083 H 
ATOM     16  H2  THA d   1       7.724  71.056  67.380  0.00  0.00     0.087 H 
ATOM     17  H3  THA d   1       3.038  70.609  68.964  0.00  0.00     0.085 H 
ATOM     18  H4  THA d   1       4.807  71.379  70.495  0.00  0.00     0.083 H 
ATOM     19  H5  THA d   1       6.279  68.484  63.372  0.00  0.00     0.042 H 
ATOM     20  H6  THA d   1       6.512  70.229  63.014  0.00  0.00     0.042 H 
ATOM     21  H7  THA d   1       5.199  68.876  61.274  0.00  0.00     0.033 H 
ATOM     22  H8  THA d   1       4.408  70.376  61.867  0.00  0.00     0.033 H 
ATOM     23  H9  THA d   1       3.838  67.517  62.840  0.00  0.00     0.033 H 
ATOM     24  H10 THA d   1       2.779  68.508  61.781  0.00  0.00     0.033 H 
ATOM     25  H11 THA d   1       2.296  70.061  63.516  0.00  0.00     0.040 H 
ATOM     26  H12 THA d   1       2.165  68.438  64.274  0.00  0.00     0.040 H 
ENDROOT
BRANCH  10  27
ATOM     27  N15 THA d   1       2.092  69.798  66.625  0.00  0.00    -0.398 N 
ATOM     28  H13 THA d   1       1.768  70.014  67.579  0.00  0.00     0.156 HD
ATOM     29  H14 THA d   1       1.420  69.479  65.913  0.00  0.00     0.156 HD
ENDBRANCH  10  27
TORSDOF 1
