REMARK  13 active torsions:
REMARK  status: ('A' for Active; 'I' for Inactive)
REMARK    1  A    between atoms: N2_34  and  C1_33 
REMARK    2  A    between atoms: C6_35  and  N2_34 
REMARK    3  A    between atoms: C6_35  and  C7_36 
REMARK    4  A    between atoms: C55_66  and  C6_35 
REMARK       I    between atoms: C7_36  and  N8_37 
REMARK    5  A    between atoms: C18_42  and  C21_43 
REMARK       I    between atoms: C21_43  and  N23_44 
REMARK    6  A    between atoms: N23_44  and  C25_46 
REMARK    7  A    between atoms: C25_46  and  C26_47 
REMARK    8  A    between atoms: C25_46  and  C44_57 
REMARK    9  A    between atoms: C26_47  and  C27_48 
REMARK   10  A    between atoms: C44_57  and  O46_58 
REMARK   11  A    between atoms: C44_57  and  C47_59 
REMARK   12  A    between atoms: C47_59  and  C50_62 
REMARK   13  A    between atoms: C57_67  and  C55_66 
ROOT
ATOM      1  H7  MDL d   1      18.817 -10.038  20.784  0.00  0.00     0.064 H 
ATOM      2  H8  MDL d   1      19.621  -9.504  22.299  0.00  0.00     0.064 H 
ATOM      3  H9  MDL d   1      20.244  -8.444  19.823  0.00  0.00     0.035 H 
ATOM      4  H10 MDL d   1      20.376  -7.501  21.346  0.00  0.00     0.035 H 
ATOM      5  H11 MDL d   1      18.275  -7.449  19.216  0.00  0.00     0.036 H 
ATOM      6  H12 MDL d   1      18.939  -6.115  20.219  0.00  0.00     0.036 H 
ATOM      7  H13 MDL d   1      17.389  -6.446  21.887  0.00  0.00     0.087 H 
ATOM      8  C7  MDL d   1      16.865  -8.997  22.866  0.00  0.00     0.251 C 
ATOM      9  N8  MDL d   1      17.730  -8.570  21.909  0.00  0.00    -0.337 N 
ATOM     10  O9  MDL d   1      15.872  -8.352  23.222  0.00  0.00    -0.271 OA
ATOM     11  C11 MDL d   1      19.008  -9.180  21.445  0.00  0.00    -0.001 C 
ATOM     12  C12 MDL d   1      19.688  -8.048  20.685  0.00  0.00    -0.048 C 
ATOM     13  C15 MDL d   1      18.589  -7.158  20.229  0.00  0.00    -0.036 C 
ATOM     14  C18 MDL d   1      17.413  -7.291  21.184  0.00  0.00     0.091 C 
ENDROOT
BRANCH  14  15
ATOM     15  C21 MDL d   1      16.079  -7.350  20.453  0.00  0.00     0.241 C 
ATOM     16  N23 MDL d   1      15.479  -6.137  20.352  0.00  0.00    -0.352 N 
ATOM     17  H14 MDL d   1      15.878  -5.359  20.837  0.00  0.00     0.163 HD
ATOM     18  O24 MDL d   1      15.612  -8.418  20.079  0.00  0.00    -0.271 OA
BRANCH  16  19
ATOM     19  C25 MDL d   1      14.268  -5.928  19.557  0.00  0.00     0.047 C 
ATOM     20  H15 MDL d   1      13.834  -6.898  19.272  0.00  0.00     0.077 H 
BRANCH  19  21
ATOM     21  C26 MDL d   1      13.286  -5.153  20.420  0.00  0.00    -0.017 C 
ATOM     22  H16 MDL d   1      12.492  -4.731  19.786  0.00  0.00     0.043 H 
ATOM     23  H17 MDL d   1      13.814  -4.339  20.938  0.00  0.00     0.043 H 
BRANCH  21  24
ATOM     24  C27 MDL d   1      12.697  -6.057  21.403  0.00  0.00    -0.028 A 
ATOM     25  C30 MDL d   1      12.390  -7.392  21.187  0.00  0.00    -0.015 A 
ATOM     26  H18 MDL d   1      12.721  -8.007  20.352  0.00  0.00     0.112 H 
ATOM     27  N33 MDL d   1      11.600  -7.783  22.213  0.00  0.00    -0.365 N 
ATOM     28  H19 MDL d   1      11.206  -8.729  22.319  0.00  0.00     0.165 HD
ATOM     29  C32 MDL d   1      11.389  -6.730  23.111  0.00  0.00     0.042 A 
ATOM     30  C31 MDL d   1      12.105  -5.648  22.630  0.00  0.00    -0.002 A 
ATOM     31  C34 MDL d   1      10.656  -6.594  24.318  0.00  0.00    -0.056 A 
ATOM     32  C37 MDL d   1      12.129  -4.438  23.385  0.00  0.00    -0.070 A 
ATOM     33  H23 MDL d   1      12.712  -3.604  23.011  0.00  0.00     0.084 H 
ATOM     34  C36 MDL d   1      11.425  -4.282  24.599  0.00  0.00    -0.082 A 
ATOM     35  H22 MDL d   1      11.465  -3.355  25.159  0.00  0.00     0.083 H 
ATOM     36  C35 MDL d   1      10.670  -5.378  25.052  0.00  0.00    -0.081 A 
ATOM     37  H21 MDL d   1      10.095  -5.295  25.967  0.00  0.00     0.083 H 
ATOM     38  H20 MDL d   1      10.075  -7.432  24.686  0.00  0.00     0.086 H 
ENDBRANCH  21  24
ENDBRANCH  19  21
BRANCH  19  39
ATOM     39  C44 MDL d   1      14.596  -5.133  18.304  0.00  0.00     0.127 C 
ATOM     40  H24 MDL d   1      15.164  -4.221  18.541  0.00  0.00     0.096 H 
BRANCH  39  41
ATOM     41  O46 MDL d   1      13.321  -4.812  17.785  0.00  0.00    -0.387 OA
ATOM     42  H25 MDL d   1      12.839  -4.302  18.425  0.00  0.00     0.210 HD
ENDBRANCH  39  41
BRANCH  39  43
ATOM     43  C47 MDL d   1      15.428  -6.035  17.324  0.00  0.00     0.366 C 
ATOM     44  F48 MDL d   1      14.826  -7.223  17.164  0.00  0.00    -0.193 F 
ATOM     45  F49 MDL d   1      16.603  -6.276  17.885  0.00  0.00    -0.193 F 
BRANCH  43  46
ATOM     46  C50 MDL d   1      15.777  -5.426  15.994  0.00  0.00     0.457 C 
ATOM     47  F51 MDL d   1      16.375  -6.377  15.335  0.00  0.00    -0.165 F 
ATOM     48  F52 MDL d   1      16.591  -4.395  16.133  0.00  0.00    -0.165 F 
ATOM     49  F53 MDL d   1      14.678  -5.086  15.409  0.00  0.00    -0.165 F 
ENDBRANCH  43  46
ENDBRANCH  39  43
ENDBRANCH  19  39
ENDBRANCH  16  19
ENDBRANCH  14  15
BRANCH   8  50
ATOM     50  C6  MDL d   1      17.172 -10.351  23.512  0.00  0.00     0.181 C 
ATOM     51  H6  MDL d   1      17.905 -10.912  22.914  0.00  0.00     0.100 H 
BRANCH  50  52
ATOM     52  N2  MDL d   1      15.895 -11.037  23.594  0.00  0.00    -0.066 N 
ATOM     53  H4  MDL d   1      16.067 -11.935  24.018  0.00  0.00     0.277 HD
ATOM     54  H5  MDL d   1      15.302 -10.489  24.197  0.00  0.00     0.277 HD
BRANCH  52  55
ATOM     55  C1  MDL d   1      15.149 -11.279  22.363  0.00  0.00     0.066 C 
ATOM     56  H1  MDL d   1      14.212 -11.804  22.599  0.00  0.00     0.067 H 
ATOM     57  H2  MDL d   1      15.754 -11.897  21.683  0.00  0.00     0.067 H 
ATOM     58  H3  MDL d   1      14.919 -10.319  21.879  0.00  0.00     0.067 H 
ENDBRANCH  52  55
ENDBRANCH  50  52
BRANCH  50  59
ATOM     59  C55 MDL d   1      17.659 -10.194  24.963  0.00  0.00    -0.006 C 
ATOM     60  H26 MDL d   1      17.506 -11.153  25.480  0.00  0.00     0.043 H 
ATOM     61  H27 MDL d   1      17.050  -9.415  25.445  0.00  0.00     0.043 H 
BRANCH  59  62
ATOM     62  C57 MDL d   1      19.133  -9.804  25.110  0.00  0.00    -0.056 A 
ATOM     63  C60 MDL d   1      20.180 -10.549  24.486  0.00  0.00    -0.077 A 
ATOM     64  H28 MDL d   1      19.945 -11.449  23.929  0.00  0.00     0.084 H 
ATOM     65  C61 MDL d   1      21.528 -10.114  24.593  0.00  0.00    -0.082 A 
ATOM     66  H29 MDL d   1      22.320 -10.677  24.112  0.00  0.00     0.083 H 
ATOM     67  C62 MDL d   1      21.834  -8.955  25.322  0.00  0.00    -0.083 A 
ATOM     68  H30 MDL d   1      22.857  -8.598  25.364  0.00  0.00     0.083 H 
ATOM     69  C63 MDL d   1      20.814  -8.252  26.001  0.00  0.00    -0.082 A 
ATOM     70  H31 MDL d   1      21.062  -7.389  26.608  0.00  0.00     0.083 H 
ATOM     71  C64 MDL d   1      19.473  -8.674  25.889  0.00  0.00    -0.077 A 
ATOM     72  H32 MDL d   1      18.694  -8.126  26.406  0.00  0.00     0.084 H 
ENDBRANCH  59  62
ENDBRANCH  50  59
ENDBRANCH   8  50
TORSDOF 13
