REMARK  5 active torsions:
REMARK  status: ('A' for Active; 'I' for Inactive)
REMARK    1  A    between atoms: O5_1  and  C5_2 
REMARK    2  A    between atoms: C5_2  and  C4_3 
REMARK    3  A    between atoms: C3_5  and  O3_6 
REMARK    4  A    between atoms: C2_7  and  O2_8 
REMARK    5  A    between atoms: C1_9  and  N1_10 
ROOT
ATOM      1  C4    U d   1      35.468  51.692  11.719  0.00  0.00     0.088 C 
ATOM      2  O4    U d   1      35.623  50.337  11.345  0.00  0.00    -0.353 OA
ATOM      3  C3    U d   1      36.078  52.588  10.632  0.00  0.00     0.091 C 
ATOM      4  C2    U d   1      35.865  51.864   9.382  0.00  0.00     0.105 C 
ATOM      5  C1    U d   1      35.843  50.471   9.926  0.00  0.00     0.141 C 
ATOM      6  H4    U d   1      36.076  51.839  12.624  0.00  0.00     0.090 H 
ATOM      7  H5    U d   1      35.591  53.574  10.616  0.00  0.00     0.091 H 
ATOM      8  H7    U d   1      34.917  52.144   8.899  0.00  0.00     0.093 H 
ATOM      9  H9    U d   1      36.923  50.291   9.820  0.00  0.00     0.123 H 
ENDROOT
BRANCH   5  10
ATOM     10  N1    U d   1      35.297  49.022   9.450  0.00  0.00    -0.280 N 
ATOM     11  C2    U d   1      36.066  48.356   8.522  0.00  0.00     0.331 C 
ATOM     12  O2    U d   1      37.283  48.475   8.392  0.00  0.00    -0.246 OA
ATOM     13  N3    U d   1      35.375  47.566   7.641  0.00  0.00    -0.275 N 
ATOM     14  C4    U d   1      34.015  47.499   7.496  0.00  0.00     0.250 C 
ATOM     15  H10   U d   1      35.920  46.978   7.043  0.00  0.00     0.173 HD
ATOM     16  O4    U d   1      33.586  46.981   6.505  0.00  0.00    -0.268 OA
ATOM     17  C5    U d   1      33.254  48.110   8.550  0.00  0.00    -0.002 C 
ATOM     18  C6    U d   1      33.869  48.852   9.484  0.00  0.00    -0.008 C 
ATOM     19  H11   U d   1      32.175  47.971   8.591  0.00  0.00     0.094 H 
ATOM     20  H12   U d   1      33.285  49.327  10.271  0.00  0.00     0.112 H 
ENDBRANCH   5  10
BRANCH   4  21
ATOM     21  O2    U d   1      36.960  52.021   8.442  0.00  0.00    -0.388 OA
ATOM     22  H8    U d   1      37.761  51.693   8.833  0.00  0.00     0.210 HD
ENDBRANCH   4  21
BRANCH   1  23
ATOM     23  C5    U d   1      34.090  52.060  12.104  0.00  0.00     0.043 C 
ATOM     24  H2    U d   1      33.761  51.446  12.956  0.00  0.00     0.078 H 
ATOM     25  H3    U d   1      34.049  53.124  12.381  0.00  0.00     0.078 H 
BRANCH  23  26
ATOM     26  O5    U d   1      33.244  51.815  10.965  0.00  0.00    -0.398 OA
ATOM     27  H1    U d   1      32.348  52.043  11.183  0.00  0.00     0.209 HD
ENDBRANCH  23  26
ENDBRANCH   1  23
BRANCH   3  28
ATOM     28  O3    U d   1      37.463  52.729  10.819  0.00  0.00    -0.390 OA
ATOM     29  H6    U d   1      37.628  53.122  11.668  0.00  0.00     0.210 HD
ENDBRANCH   3  28
TORSDOF 5
