REMARK  13 active torsions:
REMARK  status: ('A' for Active; 'I' for Inactive)
REMARK    1  A    between atoms: O2_19  and  C1_1 
REMARK    2  A    between atoms: C2_2  and  O2_7 
REMARK    3  A    between atoms: C3_3  and  O3_8 
REMARK    4  A    between atoms: C4_4  and  O4_9 
REMARK    5  A    between atoms: C5_5  and  C6_6 
REMARK    6  A    between atoms: C6_6  and  O6_11 
REMARK    7  A    between atoms: C2_13  and  C1_12 
REMARK    8  A    between atoms: C1_12  and  O1_18 
REMARK    9  A    between atoms: O2_19  and  C2_13 
REMARK   10  A    between atoms: C3_14  and  O3_20 
REMARK   11  A    between atoms: C4_15  and  O4_21 
REMARK   12  A    between atoms: C5_16  and  C6_17 
REMARK   13  A    between atoms: C6_17  and  O6_23 
ROOT
ATOM      1  O2  GLC d   1      13.297  40.042  86.538  0.00  0.00    -0.318 OA
ENDROOT
BRANCH   1   2
ATOM      2  C2  GLC d   1      12.804  41.255  87.181  0.00  0.00     0.217 C 
ATOM      3  C3  GLC d   1      13.917  41.779  88.149  0.00  0.00     0.118 C 
ATOM      4  C4  GLC d   1      14.843  42.484  87.127  0.00  0.00     0.092 C 
ATOM      5  H14 GLC d   1      13.526  42.470  88.910  0.00  0.00     0.095 H 
ATOM      6  C5  GLC d   1      13.769  43.214  86.297  0.00  0.00     0.089 C 
ATOM      7  H15 GLC d   1      15.399  41.758  86.516  0.00  0.00     0.091 H 
ATOM      8  O5  GLC d   1      12.665  42.285  86.141  0.00  0.00    -0.341 OA
ATOM      9  H16 GLC d   1      13.440  44.104  86.853  0.00  0.00     0.090 H 
BRANCH   2  10
ATOM     10  C1  GLC d   1      11.443  40.952  87.858  0.00  0.00     0.071 C 
ATOM     11  H12 GLC d   1      11.559  40.065  88.498  0.00  0.00     0.082 H 
ATOM     12  H13 GLC d   1      10.700  40.744  87.074  0.00  0.00     0.082 H 
BRANCH  10  13
ATOM     13  O1  GLC d   1      10.965  42.037  88.664  0.00  0.00    -0.395 OA
ATOM     14  H19 GLC d   1      10.132  41.798  89.053  0.00  0.00     0.209 HD
ENDBRANCH  10  13
ENDBRANCH   2  10
BRANCH   3  15
ATOM     15  O3  GLC d   1      14.593  40.672  88.773  0.00  0.00    -0.387 OA
ATOM     16  H20 GLC d   1      14.850  40.044  88.108  0.00  0.00     0.210 HD
ENDBRANCH   3  15
BRANCH   4  17
ATOM     17  O4  GLC d   1      15.770  43.364  87.747  0.00  0.00    -0.390 OA
ATOM     18  H21 GLC d   1      15.305  43.950  88.332  0.00  0.00     0.210 HD
ENDBRANCH   4  17
BRANCH   6  19
ATOM     19  C6  GLC d   1      14.204  43.646  84.925  0.00  0.00     0.043 C 
ATOM     20  H17 GLC d   1      14.224  42.776  84.253  0.00  0.00     0.078 H 
ATOM     21  H18 GLC d   1      15.209  44.091  84.979  0.00  0.00     0.078 H 
BRANCH  19  22
ATOM     22  O6  GLC d   1      13.282  44.609  84.431  0.00  0.00    -0.398 OA
ATOM     23  H22 GLC d   1      13.266  45.359  85.014  0.00  0.00     0.209 HD
ENDBRANCH  19  22
ENDBRANCH   6  19
ENDBRANCH   1   2
BRANCH   1  24
ATOM     24  C1  GLC d   1      12.419  39.288  85.767  0.00  0.00     0.162 C 
ATOM     25  C2  GLC d   1      13.012  37.862  85.675  0.00  0.00     0.110 C 
ATOM     26  C3  GLC d   1      14.426  37.919  85.050  0.00  0.00     0.092 C 
ATOM     27  H2  GLC d   1      12.363  37.232  85.049  0.00  0.00     0.094 H 
ATOM     28  C4  GLC d   1      14.337  38.569  83.665  0.00  0.00     0.090 C 
ATOM     29  H3  GLC d   1      15.083  38.526  85.689  0.00  0.00     0.091 H 
ATOM     30  C5  GLC d   1      13.524  39.861  83.647  0.00  0.00     0.089 C 
ATOM     31  H4  GLC d   1      13.845  37.850  82.993  0.00  0.00     0.091 H 
ATOM     32  O5  GLC d   1      12.314  39.853  84.457  0.00  0.00    -0.348 OA
ATOM     33  H5  GLC d   1      14.176  40.667  84.014  0.00  0.00     0.090 H 
ATOM     34  H1  GLC d   1      11.426  39.259  86.239  0.00  0.00     0.133 H 
BRANCH  25  35
ATOM     35  O2  GLC d   1      13.085  37.316  86.989  0.00  0.00    -0.388 OA
ATOM     36  H8  GLC d   1      13.645  37.863  87.527  0.00  0.00     0.210 HD
ENDBRANCH  25  35
BRANCH  26  37
ATOM     37  O3  GLC d   1      14.957  36.594  84.962  0.00  0.00    -0.390 OA
ATOM     38  H9  GLC d   1      15.828  36.628  84.584  0.00  0.00     0.210 HD
ENDBRANCH  26  37
BRANCH  28  39
ATOM     39  O4  GLC d   1      15.648  38.850  83.152  0.00  0.00    -0.390 OA
ATOM     40  H10 GLC d   1      16.166  38.054  83.157  0.00  0.00     0.210 HD
ENDBRANCH  28  39
BRANCH  30  41
ATOM     41  C6  GLC d   1      13.083  40.178  82.209  0.00  0.00     0.043 C 
ATOM     42  H6  GLC d   1      12.474  39.352  81.813  0.00  0.00     0.078 H 
ATOM     43  H7  GLC d   1      13.966  40.322  81.569  0.00  0.00     0.078 H 
BRANCH  41  44
ATOM     44  O6  GLC d   1      12.313  41.372  82.247  0.00  0.00    -0.398 OA
ATOM     45  H11 GLC d   1      11.555  41.241  82.805  0.00  0.00     0.209 HD
ENDBRANCH  41  44
ENDBRANCH  30  41
ENDBRANCH   1  24
TORSDOF 13
