REMARK  3 active torsions:
REMARK  status: ('A' for Active; 'I' for Inactive)
REMARK    1  A    between atoms: C10_30  and  C3_23 
REMARK    2  A    between atoms: C1'_31  and  C10_30 
REMARK    3  A    between atoms: N4'_42  and  C4'_34 
REMARK       I    between atoms: N1'_37  and  C11_38 
ROOT
ATOM      1  H7  SU2 d   1       9.878   6.436  23.319  0.00  0.00     0.084 H 
ATOM      2  H8  SU2 d   1      11.207   5.781  25.291  0.00  0.00     0.086 H 
ATOM      3  H9  SU2 d   1       9.125   2.052  25.445  0.00  0.00     0.086 H 
ATOM      4  H10 SU2 d   1       7.802   2.706  23.467  0.00  0.00     0.084 H 
ATOM      5  C1' SU2 d   1       8.750   4.616  23.254  0.00  0.00    -0.035 A 
ATOM      6  C2' SU2 d   1       9.710   5.470  23.781  0.00  0.00    -0.071 A 
ATOM      7  C3' SU2 d   1      10.461   5.100  24.898  0.00  0.00    -0.057 A 
ATOM      8  C4' SU2 d   1      10.264   3.868  25.513  0.00  0.00     0.030 A 
ATOM      9  C5' SU2 d   1       9.298   3.017  24.982  0.00  0.00    -0.057 A 
ATOM     10  C6' SU2 d   1       8.548   3.386  23.863  0.00  0.00    -0.071 A 
ENDROOT
BRANCH   5  11
ATOM     11  C10 SU2 d   1       7.942   5.053  22.036  0.00  0.00    -0.057 C 
ATOM     12  H6  SU2 d   1       7.973   6.112  21.786  0.00  0.00     0.086 H 
BRANCH  11  13
ATOM     13  C3  SU2 d   1       7.095   4.165  21.131  0.00  0.00     0.045 A 
ATOM     14  C2  SU2 d   1       6.434   2.994  21.427  0.00  0.00     0.257 A 
ATOM     15  N1  SU2 d   1       5.763   2.531  20.322  0.00  0.00    -0.322 N 
ATOM     16  O2  SU2 d   1       6.373   2.382  22.494  0.00  0.00    -0.267 OA
ATOM     17  H1  SU2 d   1       5.200   1.705  20.289  0.00  0.00     0.169 HD
ATOM     18  C8  SU2 d   1       5.988   3.383  19.272  0.00  0.00     0.046 A 
ATOM     19  C9  SU2 d   1       6.824   4.424  19.740  0.00  0.00     0.006 A 
ATOM     20  C7  SU2 d   1       5.517   3.338  17.955  0.00  0.00    -0.056 A 
ATOM     21  C4  SU2 d   1       7.197   5.445  18.850  0.00  0.00    -0.070 A 
ATOM     22  H2  SU2 d   1       7.842   6.253  19.176  0.00  0.00     0.084 H 
ATOM     23  C5  SU2 d   1       6.724   5.400  17.547  0.00  0.00    -0.082 A 
ATOM     24  H3  SU2 d   1       7.003   6.183  16.851  0.00  0.00     0.083 H 
ATOM     25  C6  SU2 d   1       5.890   4.356  17.114  0.00  0.00    -0.081 A 
ATOM     26  H4  SU2 d   1       5.532   4.354  16.091  0.00  0.00     0.083 H 
ATOM     27  H5  SU2 d   1       4.881   2.530  17.612  0.00  0.00     0.086 H 
ENDBRANCH  11  13
ENDBRANCH   5  11
BRANCH   8  28
ATOM     28  N4' SU2 d   1      11.030   3.489  26.650  0.00  0.00    -0.378 N 
ATOM     29  C5' SU2 d   1      11.751   4.522  27.468  0.00  0.00     0.010 C 
ATOM     30  H16 SU2 d   1      11.002   5.062  28.065  0.00  0.00     0.066 H 
ATOM     31  H17 SU2 d   1      12.239   5.221  26.773  0.00  0.00     0.066 H 
ATOM     32  C6' SU2 d   1      12.819   3.991  28.426  0.00  0.00     0.012 C 
ATOM     33  H18 SU2 d   1      13.736   3.821  27.843  0.00  0.00     0.066 H 
ATOM     34  H19 SU2 d   1      13.005   4.767  29.183  0.00  0.00     0.066 H 
ATOM     35  N1' SU2 d   1      12.493   2.711  29.152  0.00  0.00    -0.356 N 
ATOM     36  C2' SU2 d   1      11.764   1.713  28.306  0.00  0.00     0.012 C 
ATOM     37  C11 SU2 d   1      13.263   2.277  30.281  0.00  0.00     0.171 C 
ATOM     38  H12 SU2 d   1      12.503   1.218  27.658  0.00  0.00     0.066 H 
ATOM     39  H13 SU2 d   1      11.310   0.970  28.979  0.00  0.00     0.066 H 
ATOM     40  C3' SU2 d   1      10.669   2.264  27.421  0.00  0.00     0.010 C 
ATOM     41  H14 SU2 d   1      10.386   1.481  26.702  0.00  0.00     0.066 H 
ATOM     42  H15 SU2 d   1       9.806   2.506  28.059  0.00  0.00     0.066 H 
ATOM     43  H11 SU2 d   1      12.955   1.342  30.746  0.00  0.00     0.180 H 
ATOM     44  O3  SU2 d   1      14.236   2.845  30.785  0.00  0.00    -0.284 OA
ENDBRANCH   8  28
TORSDOF 3
