REMARK  6 active torsions:
REMARK  status: ('A' for Active; 'I' for Inactive)
REMARK    1  A    between atoms: C1_1  and  C2_4 
REMARK    2  A    between atoms: C2_4  and  O2_5 
REMARK    3  A    between atoms: C2_4  and  C3_6 
REMARK    4  A    between atoms: C3_6  and  C1'_7 
REMARK    5  A    between atoms: C4'_10  and  C_13 
REMARK    6  A    between atoms: C_13  and  N1_14 
ROOT
ATOM      1  C1' APA d   1      13.704 -11.472  20.653  0.00  0.00    -0.055 A 
ATOM      2  C2' APA d   1      12.897 -12.594  20.741  0.00  0.00    -0.076 A 
ATOM      3  C3' APA d   1      11.968 -12.752  21.772  0.00  0.00    -0.069 A 
ATOM      4  C4' APA d   1      11.816 -11.767  22.761  0.00  0.00     0.007 A 
ATOM      5  C5' APA d   1      12.621 -10.640  22.681  0.00  0.00    -0.069 A 
ATOM      6  C6' APA d   1      13.535 -10.524  21.642  0.00  0.00    -0.076 A 
ATOM      7  H5  APA d   1      12.989 -13.370  19.990  0.00  0.00     0.084 H 
ATOM      8  H6  APA d   1      11.357 -13.646  21.809  0.00  0.00     0.085 H 
ATOM      9  H7  APA d   1      12.537  -9.855  23.424  0.00  0.00     0.085 H 
ATOM     10  H8  APA d   1      14.154  -9.635  21.605  0.00  0.00     0.084 H 
ENDROOT
BRANCH   1  11
ATOM     11  C3  APA d   1      14.752 -11.147  19.572  0.00  0.00    -0.008 C 
ATOM     12  H3  APA d   1      15.516 -10.478  19.996  0.00  0.00     0.044 H 
ATOM     13  H4  APA d   1      15.227 -12.080  19.235  0.00  0.00     0.044 H 
BRANCH  11  14
ATOM     14  C2  APA d   1      14.067 -10.443  18.350  0.00  0.00     0.122 C 
ATOM     15  H1  APA d   1      14.281  -9.371  18.474  0.00  0.00     0.100 H 
BRANCH  14  16
ATOM     16  C1  APA d   1      14.997 -10.893  17.198  0.00  0.00     0.203 C 
ATOM     17  O1  APA d   1      16.250 -10.964  17.251  0.00  0.00    -0.646 OA
ATOM     18  OXT APA d   1      14.377 -11.177  16.158  0.00  0.00    -0.646 OA
ENDBRANCH  14  16
BRANCH  14  19
ATOM     19  O2  APA d   1      12.745 -10.430  18.263  0.00  0.00    -0.385 OA
ATOM     20  H2  APA d   1      12.378 -10.120  19.082  0.00  0.00     0.210 HD
ENDBRANCH  14  19
ENDBRANCH  11  14
ENDBRANCH   1  11
BRANCH   4  21
ATOM     21  C   APA d   1      10.881 -11.768  23.971  0.00  0.00     0.102 C 
ATOM     22  N2  APA d   1      10.624 -10.632  24.631  0.00  0.00    -0.385 N 
ATOM     23  H11 APA d   1      11.173  -9.784  24.430  0.00  0.00     0.157 HD
ATOM     24  H12 APA d   1       9.877 -10.606  25.340  0.00  0.00     0.157 HD
BRANCH  21  25
ATOM     25  N1  APA d   1      10.168 -12.853  24.239  0.00  0.00    -0.385 N 
ATOM     26  H9  APA d   1       9.535 -12.866  25.051  0.00  0.00     0.157 HD
ATOM     27  H10 APA d   1      10.247 -13.684  23.635  0.00  0.00     0.157 HD
ENDBRANCH  21  25
ENDBRANCH   4  21
TORSDOF 6
