REMARK  3 active torsions:
REMARK  status: ('A' for Active; 'I' for Inactive)
REMARK    1  A    between atoms: C1_1  and  C2_4 
REMARK    2  A    between atoms: C2_4  and  C3_5 
REMARK    3  A    between atoms: C3_5  and  C1'_6 
ROOT
ATOM      1  C1' HCI d   1      -9.212  53.568  23.978  0.00  0.00    -0.058 A 
ATOM      2  C2' HCI d   1      -8.051  52.891  24.381  0.00  0.00    -0.077 A 
ATOM      3  C3' HCI d   1      -8.073  52.009  25.468  0.00  0.00    -0.082 A 
ATOM      4  C4' HCI d   1      -9.278  51.792  26.139  0.00  0.00    -0.083 A 
ATOM      5  C5' HCI d   1     -10.449  52.435  25.734  0.00  0.00    -0.082 A 
ATOM      6  C6' HCI d   1     -10.412  53.303  24.648  0.00  0.00    -0.077 A 
ATOM      7  H5  HCI d   1      -7.124  53.053  23.843  0.00  0.00     0.084 H 
ATOM      8  H6  HCI d   1      -7.168  51.502  25.784  0.00  0.00     0.083 H 
ATOM      9  H7  HCI d   1      -9.305  51.115  26.985  0.00  0.00     0.083 H 
ATOM     10  H8  HCI d   1     -11.380  52.259  26.262  0.00  0.00     0.083 H 
ATOM     11  H9  HCI d   1     -11.326  53.781  24.316  0.00  0.00     0.084 H 
ENDROOT
BRANCH   1  12
ATOM     12  C3  HCI d   1      -9.220  54.517  22.786  0.00  0.00    -0.032 C 
ATOM     13  H3  HCI d   1      -8.404  54.218  22.112  0.00  0.00     0.040 H 
ATOM     14  H4  HCI d   1     -10.184  54.400  22.269  0.00  0.00     0.040 H 
BRANCH  12  15
ATOM     15  C2  HCI d   1      -9.035  56.037  23.118  0.00  0.00     0.019 C 
ATOM     16  H1  HCI d   1      -8.141  56.140  23.751  0.00  0.00     0.049 H 
ATOM     17  H2  HCI d   1      -8.878  56.575  22.171  0.00  0.00     0.049 H 
BRANCH  15  18
ATOM     18  C1  HCI d   1     -10.234  56.711  23.863  0.00  0.00     0.172 C 
ATOM     19  O1  HCI d   1     -11.272  56.705  23.239  0.00  0.00    -0.648 OA
ATOM     20  O2  HCI d   1     -10.136  57.279  25.031  0.00  0.00    -0.648 OA
ENDBRANCH  15  18
ENDBRANCH  12  15
ENDBRANCH   1  12
TORSDOF 3
