REMARK  2 active torsions:
REMARK  status: ('A' for Active; 'I' for Inactive)
REMARK    1  A    between atoms: C1_1  and  C2_4 
REMARK    2  A    between atoms: C3_5  and  C4_6 
ROOT
ATOM      1  C2  MAE d   1      -9.107  54.102  23.705  0.00  0.00    -0.003 C 
ATOM      2  C3  MAE d   1      -9.424  55.349  23.349  0.00  0.00    -0.003 C 
ATOM      3  H1  MAE d   1      -8.419  53.594  23.031  0.00  0.00     0.094 H 
ATOM      4  H2  MAE d   1      -8.945  55.698  22.435  0.00  0.00     0.094 H 
ENDROOT
BRANCH   1   5
ATOM      5  C1  MAE d   1      -9.548  53.292  24.884  0.00  0.00     0.198 C 
ATOM      6  O1  MAE d   1      -9.174  52.080  24.977  0.00  0.00    -0.645 OA
ATOM      7  O2  MAE d   1     -10.288  53.891  25.742  0.00  0.00    -0.645 OA
ENDBRANCH   1   5
BRANCH   2   8
ATOM      8  C4  MAE d   1     -10.332  56.346  24.003  0.00  0.00     0.198 C 
ATOM      9  O3  MAE d   1     -11.426  56.605  23.454  0.00  0.00    -0.645 OA
ATOM     10  O4  MAE d   1      -9.972  56.927  25.055  0.00  0.00    -0.645 OA
ENDBRANCH   2   8
TORSDOF 2
