REMARK  3 active torsions:
REMARK  status: ('A' for Active; 'I' for Inactive)
REMARK    1  A    between atoms: C8_1  and  C7_4 
REMARK    2  A    between atoms: C7_4  and  C1_5 
REMARK    3  A    between atoms: C4_8  and  O4_11 
ROOT
ATOM      1  C1  4HP d   1      11.917  36.218  33.846  0.00  0.00    -0.048 A 
ATOM      2  C2  4HP d   1      11.213  35.161  34.433  0.00  0.00    -0.074 A 
ATOM      3  C3  4HP d   1      10.057  34.735  33.835  0.00  0.00    -0.051 A 
ATOM      4  C4  4HP d   1       9.658  35.331  32.636  0.00  0.00     0.065 A 
ATOM      5  C5  4HP d   1      10.332  36.401  32.067  0.00  0.00    -0.051 A 
ATOM      6  C6  4HP d   1      11.497  36.826  32.690  0.00  0.00    -0.074 A 
ATOM      7  H3  4HP d   1      11.574  34.690  35.340  0.00  0.00     0.084 H 
ATOM      8  H4  4HP d   1       9.461  33.949  34.284  0.00  0.00     0.087 H 
ATOM      9  H5  4HP d   1       9.963  36.886  31.171  0.00  0.00     0.087 H 
ATOM     10  H6  4HP d   1      12.075  37.638  32.264  0.00  0.00     0.084 H 
ENDROOT
BRANCH   1  11
ATOM     11  C7  4HP d   1      13.185  36.768  34.431  0.00  0.00     0.039 C 
ATOM     12  H1  4HP d   1      13.740  35.948  34.911  0.00  0.00     0.056 H 
ATOM     13  H2  4HP d   1      13.793  37.197  33.621  0.00  0.00     0.056 H 
BRANCH  11  14
ATOM     14  C8  4HP d   1      12.909  37.864  35.481  0.00  0.00     0.176 C 
ATOM     15  O1  4HP d   1      13.474  37.764  36.565  0.00  0.00    -0.648 OA
ATOM     16  O2  4HP d   1      12.120  38.799  35.207  0.00  0.00    -0.648 OA
ENDBRANCH  11  14
ENDBRANCH   1  11
BRANCH   4  17
ATOM     17  O4  4HP d   1       8.527  34.827  32.026  0.00  0.00    -0.361 OA
ATOM     18  H7  4HP d   1       7.869  35.510  31.968  0.00  0.00     0.217 HD
ENDBRANCH   4  17
TORSDOF 3
