REMARK  18 active torsions:
REMARK  status: ('A' for Active; 'I' for Inactive)
REMARK    1  A    between atoms: C1_1  and  O1_2 
REMARK    2  A    between atoms: O1_2  and  C27_7 
REMARK       I    between atoms: C12_4  and  N1_3 
REMARK    3  A    between atoms: O5_6  and  C12_4 
REMARK    4  A    between atoms: C28_8  and  O5_6 
REMARK    5  A    between atoms: C29_9  and  O6_10 
REMARK    6  A    between atoms: C30_11  and  O8_16 
REMARK    7  A    between atoms: C31_13  and  C26_15 
REMARK    8  A    between atoms: C31_13  and  C23_14 
REMARK    9  A    between atoms: O8_16  and  C3_17 
REMARK   10  A    between atoms: C4_18  and  C2_19 
REMARK   11  A    between atoms: C7_27  and  N2_30 
REMARK   12  A    between atoms: C8_28  and  O9_29 
REMARK       I    between atoms: N2_30  and  C13_31 
REMARK   13  A    between atoms: C13_31  and  C14_33 
REMARK   14  A    between atoms: C16_35  and  C20_40 
REMARK   15  A    between atoms: C17_36  and  O3_37 
REMARK   16  A    between atoms: C20_40  and  C21_41 
REMARK   17  A    between atoms: C22_42  and  C25_44 
REMARK   18  A    between atoms: C22_42  and  C24_43 
ROOT
ATOM      1  C3  NOV d   1      58.237  -7.159  35.625  0.00  0.00     0.081 A 
ATOM      2  C4  NOV d   1      59.009  -8.190  36.154  0.00  0.00     0.006 A 
ATOM      3  C5  NOV d   1      59.165  -9.313  35.425  0.00  0.00     0.101 A 
ATOM      4  C9  NOV d   1      58.637  -9.434  34.125  0.00  0.00     0.034 A 
ATOM      5  C10 NOV d   1      57.799  -8.431  33.599  0.00  0.00    -0.065 A 
ATOM      6  C11 NOV d   1      57.580  -7.284  34.371  0.00  0.00    -0.049 A 
ATOM      7  O10 NOV d   1      59.960 -10.295  36.039  0.00  0.00    -0.272 OA
ATOM      8  C6  NOV d   1      60.271 -11.385  35.362  0.00  0.00     0.318 A 
ATOM      9  O11 NOV d   1      61.022 -12.203  35.797  0.00  0.00    -0.257 OA
ATOM     10  C7  NOV d   1      59.730 -11.588  33.996  0.00  0.00     0.146 A 
ATOM     11  C8  NOV d   1      58.964 -10.672  33.396  0.00  0.00     0.111 A 
ATOM     12  H20 NOV d   1      57.337  -8.544  32.625  0.00  0.00     0.085 H 
ATOM     13  H21 NOV d   1      56.918  -6.502  34.017  0.00  0.00     0.087 H 
ENDROOT
BRANCH   1  14
ATOM     14  O8  NOV d   1      58.113  -6.107  36.516  0.00  0.00    -0.317 OA
BRANCH  14  15
ATOM     15  C30 NOV d   1      57.198  -5.074  36.249  0.00  0.00     0.165 C 
ATOM     16  C29 NOV d   1      57.181  -4.381  37.605  0.00  0.00     0.111 C 
ATOM     17  C28 NOV d   1      58.587  -3.919  37.957  0.00  0.00     0.106 C 
ATOM     18  H8  NOV d   1      56.873  -5.139  38.340  0.00  0.00     0.094 H 
ATOM     19  C27 NOV d   1      59.025  -2.985  36.835  0.00  0.00     0.095 C 
ATOM     20  H7  NOV d   1      59.285  -4.761  38.073  0.00  0.00     0.092 H 
ATOM     21  C31 NOV d   1      58.931  -3.577  35.401  0.00  0.00     0.085 C 
ATOM     22  H6  NOV d   1      58.313  -2.146  36.847  0.00  0.00     0.092 H 
ATOM     23  O7  NOV d   1      57.702  -4.255  35.185  0.00  0.00    -0.345 OA
ATOM     24  H10 NOV d   1      56.202  -5.456  35.980  0.00  0.00     0.134 H 
BRANCH  16  25
ATOM     25  O6  NOV d   1      56.295  -3.281  37.757  0.00  0.00    -0.388 OA
ATOM     26  H9  NOV d   1      56.372  -2.933  38.638  0.00  0.00     0.210 HD
ENDBRANCH  16  25
BRANCH  17  27
ATOM     27  O5  NOV d   1      58.450  -3.164  39.196  0.00  0.00    -0.293 OA
BRANCH  27  28
ATOM     28  C12 NOV d   1      58.544  -3.804  40.332  0.00  0.00     0.358 C 
ATOM     29  O4  NOV d   1      58.706  -4.986  40.406  0.00  0.00    -0.239 OA
ATOM     30  N1  NOV d   1      58.487  -3.022  41.378  0.00  0.00    -0.346 N 
ATOM     31  H4  NOV d   1      58.550  -3.411  42.297  0.00  0.00     0.161 HD
ATOM     32  H5  NOV d   1      58.381  -2.035  41.259  0.00  0.00     0.161 HD
ENDBRANCH  27  28
ENDBRANCH  17  27
BRANCH  19  33
ATOM     33  O1  NOV d   1      60.309  -2.425  37.138  0.00  0.00    -0.385 OA
BRANCH  33  34
ATOM     34  C1  NOV d   1      60.208  -1.177  37.838  0.00  0.00     0.005 C 
ATOM     35  H1  NOV d   1      61.217  -0.791  38.046  0.00  0.00     0.066 H 
ATOM     36  H2  NOV d   1      59.672  -1.331  38.786  0.00  0.00     0.066 H 
ATOM     37  H3  NOV d   1      59.658  -0.453  37.219  0.00  0.00     0.066 H 
ENDBRANCH  33  34
ENDBRANCH  19  33
BRANCH  21  38
ATOM     38  C26 NOV d   1      58.880  -2.410  34.374  0.00  0.00    -0.045 C 
ATOM     39  H14 NOV d   1      58.813  -2.821  33.356  0.00  0.00     0.031 H 
ATOM     40  H15 NOV d   1      59.792  -1.801  34.465  0.00  0.00     0.031 H 
ATOM     41  H16 NOV d   1      57.999  -1.783  34.575  0.00  0.00     0.031 H 
ENDBRANCH  21  38
BRANCH  21  42
ATOM     42  C23 NOV d   1      60.134  -4.517  35.150  0.00  0.00    -0.045 C 
ATOM     43  H11 NOV d   1      60.067  -4.936  34.135  0.00  0.00     0.031 H 
ATOM     44  H12 NOV d   1      60.120  -5.335  35.886  0.00  0.00     0.031 H 
ATOM     45  H13 NOV d   1      61.071  -3.949  35.251  0.00  0.00     0.031 H 
ENDBRANCH  21  42
ENDBRANCH  14  15
ENDBRANCH   1  14
BRANCH   2  46
ATOM     46  C2  NOV d   1      59.618  -8.180  37.496  0.00  0.00    -0.046 C 
ATOM     47  H17 NOV d   1      59.419  -7.213  37.982  0.00  0.00     0.033 H 
ATOM     48  H18 NOV d   1      60.704  -8.329  37.407  0.00  0.00     0.033 H 
ATOM     49  H19 NOV d   1      59.185  -8.990  38.101  0.00  0.00     0.033 H 
ENDBRANCH   2  46
BRANCH  11  50
ATOM     50  O9  NOV d   1      58.503 -10.879  32.147  0.00  0.00    -0.357 OA
ATOM     51  H22 NOV d   1      57.553 -10.869  32.156  0.00  0.00     0.217 HD
ENDBRANCH  11  50
BRANCH  10  52
ATOM     52  N2  NOV d   1      59.972 -12.874  33.374  0.00  0.00    -0.316 N 
ATOM     53  C13 NOV d   1      60.964 -13.271  32.562  0.00  0.00     0.256 C 
ATOM     54  O2  NOV d   1      60.938 -14.412  32.177  0.00  0.00    -0.267 OA
ATOM     55  H23 NOV d   1      59.292 -13.577  33.583  0.00  0.00     0.169 HD
BRANCH  53  56
ATOM     56  C14 NOV d   1      62.044 -12.409  32.093  0.00  0.00     0.033 A 
ATOM     57  C19 NOV d   1      63.342 -12.903  32.251  0.00  0.00    -0.065 A 
ATOM     58  C18 NOV d   1      64.434 -12.148  31.798  0.00  0.00    -0.050 A 
ATOM     59  H27 NOV d   1      63.504 -13.866  32.722  0.00  0.00     0.085 H 
ATOM     60  C17 NOV d   1      64.175 -10.913  31.170  0.00  0.00     0.072 A 
ATOM     61  H26 NOV d   1      65.449 -12.505  31.927  0.00  0.00     0.087 H 
ATOM     62  C16 NOV d   1      62.880 -10.436  30.982  0.00  0.00    -0.021 A 
ATOM     63  C15 NOV d   1      61.786 -11.175  31.463  0.00  0.00    -0.059 A 
ATOM     64  H24 NOV d   1      60.773 -10.806  31.353  0.00  0.00     0.086 H 
BRANCH  60  65
ATOM     65  O3  NOV d   1      65.239 -10.176  30.719  0.00  0.00    -0.360 OA
ATOM     66  H25 NOV d   1      64.921  -9.374  30.321  0.00  0.00     0.217 HD
ENDBRANCH  60  65
BRANCH  62  67
ATOM     67  C20 NOV d   1      62.694  -9.081  30.349  0.00  0.00    -0.023 C 
ATOM     68  H28 NOV d   1      61.697  -9.059  29.884  0.00  0.00     0.046 H 
ATOM     69  H29 NOV d   1      63.464  -8.962  29.572  0.00  0.00     0.046 H 
BRANCH  67  70
ATOM     70  C21 NOV d   1      62.796  -7.897  31.292  0.00  0.00    -0.097 C 
ATOM     71  C22 NOV d   1      61.812  -7.062  31.682  0.00  0.00    -0.091 C 
ATOM     72  H30 NOV d   1      63.784  -7.697  31.704  0.00  0.00     0.077 H 
BRANCH  71  73
ATOM     73  C25 NOV d   1      60.398  -7.148  31.199  0.00  0.00    -0.055 C 
ATOM     74  H34 NOV d   1      60.300  -7.992  30.500  0.00  0.00     0.033 H 
ATOM     75  H35 NOV d   1      60.129  -6.213  30.685  0.00  0.00     0.033 H 
ATOM     76  H36 NOV d   1      59.726  -7.302  32.056  0.00  0.00     0.033 H 
ENDBRANCH  71  73
BRANCH  71  77
ATOM     77  C24 NOV d   1      62.052  -5.926  32.654  0.00  0.00    -0.055 C 
ATOM     78  H31 NOV d   1      61.110  -5.383  32.823  0.00  0.00     0.033 H 
ATOM     79  H32 NOV d   1      62.802  -5.238  32.236  0.00  0.00     0.033 H 
ATOM     80  H33 NOV d   1      62.418  -6.332  33.609  0.00  0.00     0.033 H 
ENDBRANCH  71  77
ENDBRANCH  67  70
ENDBRANCH  62  67
ENDBRANCH  53  56
ENDBRANCH  10  52
TORSDOF 18
