REMARK  12 active torsions:
REMARK  status: ('A' for Active; 'I' for Inactive)
REMARK    1  A    between atoms: C7_11  and  C7M_12 
REMARK    2  A    between atoms: C8_13  and  C8M_14 
REMARK    3  A    between atoms: N10_17  and  C1_19 
REMARK    4  A    between atoms: C1_19  and  C2_20 
REMARK    5  A    between atoms: C2_20  and  O2_21 
REMARK    6  A    between atoms: C2_20  and  C3_22 
REMARK    7  A    between atoms: C3_22  and  O3_23 
REMARK    8  A    between atoms: C3_22  and  C4_24 
REMARK    9  A    between atoms: C4_24  and  O4_25 
REMARK   10  A    between atoms: C4_24  and  C5_26 
REMARK   11  A    between atoms: C5_26  and  O5_27 
REMARK   12  A    between atoms: O5_27  and  P_28 
ROOT
ATOM      1  N1  FMN d   1      52.007  40.166  12.396  0.00  0.00    -0.186 NA
ATOM      2  C2  FMN d   1      50.886  40.848  12.822  0.00  0.00     0.281 A 
ATOM      3  O2  FMN d   1      50.862  41.509  13.993  0.00  0.00    -0.149 OA
ATOM      4  N3  FMN d   1      49.748  40.933  12.051  0.00  0.00    -0.295 N 
ATOM      5  C4  FMN d   1      49.662  40.301  10.809  0.00  0.00     0.214 A 
ATOM      6  O4  FMN d   1      48.491  40.393  10.121  0.00  0.00    -0.169 OA
ATOM      7  C4A FMN d   1      50.803  39.600  10.334  0.00  0.00     0.157 A 
ATOM      8  N5  FMN d   1      50.726  38.953   9.108  0.00  0.00    -0.238 NA
ATOM      9  C5A FMN d   1      51.887  38.374   8.596  0.00  0.00     0.085 A 
ATOM     10  C6  FMN d   1      51.844  37.885   7.269  0.00  0.00    -0.047 A 
ATOM     11  C7  FMN d   1      53.024  37.322   6.776  0.00  0.00    -0.054 A 
ATOM     12  C8  FMN d   1      54.161  37.266   7.585  0.00  0.00    -0.054 A 
ATOM     13  C9  FMN d   1      54.193  37.764   8.904  0.00  0.00    -0.048 A 
ATOM     14  C9A FMN d   1      53.022  38.337   9.436  0.00  0.00     0.065 A 
ATOM     15  N10 FMN d   1      53.076  38.841  10.744  0.00  0.00    -0.325 N 
ATOM     16  C10 FMN d   1      51.950  39.550  11.153  0.00  0.00     0.168 A 
ATOM     17  H1  FMN d   1      48.967  41.459  12.388  0.00  0.00     0.171 HD
ATOM     18  H2  FMN d   1      50.944  37.944   6.667  0.00  0.00     0.088 H 
ATOM     19  H9  FMN d   1      55.100  37.707   9.496  0.00  0.00     0.087 H 
ENDROOT
BRANCH  15  20
ATOM     20  C1  FMN d   1      54.156  38.836  11.636  0.00  0.00     0.028 C 
ATOM     21  H10 FMN d   1      54.042  39.671  12.343  0.00  0.00     0.069 H 
ATOM     22  H11 FMN d   1      55.090  38.961  11.069  0.00  0.00     0.069 H 
BRANCH  20  23
ATOM     23  C2  FMN d   1      54.219  37.502  12.432  0.00  0.00     0.078 C 
ATOM     24  H12 FMN d   1      54.186  36.657  11.728  0.00  0.00     0.089 H 
BRANCH  23  25
ATOM     25  O2  FMN d   1      53.157  37.374  13.387  0.00  0.00    -0.391 OA
ATOM     26  H13 FMN d   1      52.322  37.404  12.936  0.00  0.00     0.210 HD
ENDBRANCH  23  25
BRANCH  23  27
ATOM     27  C3  FMN d   1      55.540  37.486  13.239  0.00  0.00     0.088 C 
ATOM     28  H14 FMN d   1      55.683  38.497  13.647  0.00  0.00     0.091 H 
BRANCH  27  29
ATOM     29  O3  FMN d   1      56.606  37.200  12.341  0.00  0.00    -0.390 OA
ATOM     30  H15 FMN d   1      56.459  36.353  11.937  0.00  0.00     0.210 HD
ENDBRANCH  27  29
BRANCH  27  31
ATOM     31  C4  FMN d   1      55.611  36.545  14.377  0.00  0.00     0.084 C 
ATOM     32  H16 FMN d   1      54.761  36.750  15.045  0.00  0.00     0.090 H 
BRANCH  31  33
ATOM     33  O4  FMN d   1      56.837  36.790  15.093  0.00  0.00    -0.391 OA
ATOM     34  H17 FMN d   1      56.844  37.686  15.410  0.00  0.00     0.210 HD
ENDBRANCH  31  33
BRANCH  31  35
ATOM     35  C5  FMN d   1      55.542  35.175  13.990  0.00  0.00     0.059 C 
ATOM     36  H18 FMN d   1      56.412  34.901  13.374  0.00  0.00     0.079 H 
ATOM     37  H19 FMN d   1      54.618  34.977  13.428  0.00  0.00     0.079 H 
BRANCH  35  38
ATOM     38  O5  FMN d   1      55.548  34.455  15.212  0.00  0.00    -0.280 OA
BRANCH  38  39
ATOM     39  P   FMN d   1      55.648  32.807  15.287  0.00  0.00     0.422 P 
ATOM     40  O1P FMN d   1      54.451  32.120  14.378  0.00  0.00    -0.617 OA
ATOM     41  O2P FMN d   1      55.376  32.326  16.882  0.00  0.00    -0.617 OA
ATOM     42  O3P FMN d   1      57.163  32.379  14.862  0.00  0.00    -0.617 OA
ENDBRANCH  38  39
ENDBRANCH  35  38
ENDBRANCH  31  35
ENDBRANCH  27  31
ENDBRANCH  23  27
ENDBRANCH  20  23
ENDBRANCH  15  20
BRANCH  12  43
ATOM     43  C8M FMN d   1      55.384  36.717   7.122  0.00  0.00    -0.051 C 
ATOM     44  H6  FMN d   1      56.138  36.776   7.921  0.00  0.00     0.033 H 
ATOM     45  H7  FMN d   1      55.732  37.284   6.246  0.00  0.00     0.033 H 
ATOM     46  H8  FMN d   1      55.230  35.665   6.840  0.00  0.00     0.033 H 
ENDBRANCH  12  43
BRANCH  11  47
ATOM     47  C7M FMN d   1      53.098  36.790   5.441  0.00  0.00    -0.051 C 
ATOM     48  H3  FMN d   1      52.125  36.912   4.943  0.00  0.00     0.033 H 
ATOM     49  H4  FMN d   1      53.355  35.721   5.486  0.00  0.00     0.033 H 
ATOM     50  H5  FMN d   1      53.870  37.330   4.873  0.00  0.00     0.033 H 
ENDBRANCH  11  47
TORSDOF 12
