REMARK  12 active torsions:
REMARK  status: ('A' for Active; 'I' for Inactive)
REMARK    1  A    between atoms: C7_11  and  C7M_12 
REMARK    2  A    between atoms: C8_13  and  C8M_14 
REMARK    3  A    between atoms: N10_17  and  C1_19 
REMARK    4  A    between atoms: C1_19  and  C2_20 
REMARK    5  A    between atoms: C2_20  and  O2_21 
REMARK    6  A    between atoms: C2_20  and  C3_22 
REMARK    7  A    between atoms: C3_22  and  O3_23 
REMARK    8  A    between atoms: C3_22  and  C4_24 
REMARK    9  A    between atoms: C4_24  and  O4_25 
REMARK   10  A    between atoms: C4_24  and  C5_26 
REMARK   11  A    between atoms: C5_26  and  O5_27 
REMARK   12  A    between atoms: O5_27  and  P_28 
ROOT
ATOM      1  N1  FMN d   1      -4.167  36.033  18.095  0.00  0.00    -0.186 NA
ATOM      2  C2  FMN d   1      -3.206  36.736  18.794  0.00  0.00     0.281 A 
ATOM      3  O2  FMN d   1      -2.336  37.545  18.148  0.00  0.00    -0.149 OA
ATOM      4  N3  FMN d   1      -3.145  36.664  20.180  0.00  0.00    -0.295 N 
ATOM      5  C4  FMN d   1      -4.019  35.869  20.907  0.00  0.00     0.214 A 
ATOM      6  O4  FMN d   1      -3.896  35.801  22.274  0.00  0.00    -0.169 OA
ATOM      7  C4A FMN d   1      -5.006  35.132  20.186  0.00  0.00     0.157 A 
ATOM      8  N5  FMN d   1      -5.869  34.325  20.895  0.00  0.00    -0.238 NA
ATOM      9  C5A FMN d   1      -6.899  33.712  20.171  0.00  0.00     0.085 A 
ATOM     10  C6  FMN d   1      -7.864  33.002  20.935  0.00  0.00    -0.047 A 
ATOM     11  C7  FMN d   1      -8.895  32.413  20.190  0.00  0.00    -0.054 A 
ATOM     12  C8  FMN d   1      -8.974  32.517  18.792  0.00  0.00    -0.054 A 
ATOM     13  C9  FMN d   1      -7.998  33.222  18.057  0.00  0.00    -0.048 A 
ATOM     14  C9A FMN d   1      -6.931  33.818  18.771  0.00  0.00     0.065 A 
ATOM     15  N10 FMN d   1      -5.983  34.522  18.032  0.00  0.00    -0.325 N 
ATOM     16  C10 FMN d   1      -5.050  35.228  18.776  0.00  0.00     0.168 A 
ATOM     17  H1  FMN d   1      -2.454  37.199  20.666  0.00  0.00     0.171 HD
ATOM     18  H2  FMN d   1      -7.807  32.922  22.015  0.00  0.00     0.088 H 
ATOM     19  H9  FMN d   1      -8.063  33.305  16.978  0.00  0.00     0.087 H 
ENDROOT
BRANCH  15  20
ATOM     20  C1  FMN d   1      -5.943  34.677  16.635  0.00  0.00     0.028 C 
ATOM     21  H10 FMN d   1      -5.355  35.568  16.371  0.00  0.00     0.069 H 
ATOM     22  H11 FMN d   1      -6.963  34.780  16.238  0.00  0.00     0.069 H 
BRANCH  20  23
ATOM     23  C2  FMN d   1      -5.275  33.412  16.056  0.00  0.00     0.078 C 
ATOM     24  H12 FMN d   1      -5.804  32.512  16.404  0.00  0.00     0.089 H 
BRANCH  23  25
ATOM     25  O2  FMN d   1      -3.887  33.332  16.427  0.00  0.00    -0.391 OA
ATOM     26  H13 FMN d   1      -3.814  33.304  17.374  0.00  0.00     0.210 HD
ENDBRANCH  23  25
BRANCH  23  27
ATOM     27  C3  FMN d   1      -5.364  33.539  14.510  0.00  0.00     0.088 C 
ATOM     28  H14 FMN d   1      -5.197  34.596  14.254  0.00  0.00     0.091 H 
BRANCH  27  29
ATOM     29  O3  FMN d   1      -6.717  33.210  14.217  0.00  0.00    -0.390 OA
ATOM     30  H15 FMN d   1      -6.859  33.264  13.279  0.00  0.00     0.210 HD
ENDBRANCH  27  29
BRANCH  27  31
ATOM     31  C4  FMN d   1      -4.401  32.771  13.702  0.00  0.00     0.084 C 
ATOM     32  H16 FMN d   1      -3.399  33.088  14.027  0.00  0.00     0.090 H 
BRANCH  31  33
ATOM     33  O4  FMN d   1      -4.536  33.109  12.293  0.00  0.00    -0.391 OA
ATOM     34  H17 FMN d   1      -4.370  34.037  12.174  0.00  0.00     0.210 HD
ENDBRANCH  31  33
BRANCH  31  35
ATOM     35  C5  FMN d   1      -4.451  31.346  13.858  0.00  0.00     0.059 C 
ATOM     36  H18 FMN d   1      -5.399  30.957  13.459  0.00  0.00     0.079 H 
ATOM     37  H19 FMN d   1      -4.364  31.081  14.922  0.00  0.00     0.079 H 
BRANCH  35  38
ATOM     38  O5  FMN d   1      -3.353  30.800  13.127  0.00  0.00    -0.280 OA
BRANCH  38  39
ATOM     39  P   FMN d   1      -3.283  29.187  12.753  0.00  0.00     0.422 P 
ATOM     40  O1P FMN d   1      -3.395  28.319  14.142  0.00  0.00    -0.617 OA
ATOM     41  O2P FMN d   1      -1.839  28.924  11.980  0.00  0.00    -0.617 OA
ATOM     42  O3P FMN d   1      -4.464  28.811  11.656  0.00  0.00    -0.617 OA
ENDBRANCH  38  39
ENDBRANCH  35  38
ENDBRANCH  31  35
ENDBRANCH  27  31
ENDBRANCH  23  27
ENDBRANCH  20  23
ENDBRANCH  15  20
BRANCH  12  43
ATOM     43  C8M FMN d   1     -10.043  31.907  18.056  0.00  0.00    -0.051 C 
ATOM     44  H6  FMN d   1      -9.912  32.111  16.983  0.00  0.00     0.033 H 
ATOM     45  H7  FMN d   1     -11.004  32.322  18.393  0.00  0.00     0.033 H 
ATOM     46  H8  FMN d   1     -10.033  30.820  18.227  0.00  0.00     0.033 H 
ENDBRANCH  12  43
BRANCH  11  47
ATOM     47  C7M FMN d   1      -9.905  31.688  20.909  0.00  0.00    -0.051 C 
ATOM     48  H3  FMN d   1      -9.679  31.714  21.985  0.00  0.00     0.033 H 
ATOM     49  H4  FMN d   1      -9.923  30.644  20.563  0.00  0.00     0.033 H 
ATOM     50  H5  FMN d   1     -10.886  32.151  20.730  0.00  0.00     0.033 H 
ENDBRANCH  11  47
TORSDOF 12
