REMARK  12 active torsions:
REMARK  status: ('A' for Active; 'I' for Inactive)
REMARK    1  A    between atoms: C7_11  and  C7M_12 
REMARK    2  A    between atoms: C8_13  and  C8M_14 
REMARK    3  A    between atoms: N10_17  and  C1_19 
REMARK    4  A    between atoms: C1_19  and  C2_20 
REMARK    5  A    between atoms: C2_20  and  O2_21 
REMARK    6  A    between atoms: C2_20  and  C3_22 
REMARK    7  A    between atoms: C3_22  and  O3_23 
REMARK    8  A    between atoms: C3_22  and  C4_24 
REMARK    9  A    between atoms: C4_24  and  O4_25 
REMARK   10  A    between atoms: C4_24  and  C5_26 
REMARK   11  A    between atoms: C5_26  and  O5_27 
REMARK   12  A    between atoms: O5_27  and  P_28 
ROOT
ATOM      1  N1  FMN d   1      -4.033  35.956  18.202  0.00  0.00    -0.173 NA
ATOM      2  C2  FMN d   1      -3.099  36.573  18.873  0.00  0.00     0.350 A 
ATOM      3  O2  FMN d   1      -2.376  37.334  18.335  0.00  0.00    -0.244 OA
ATOM      4  N3  FMN d   1      -3.088  36.481  20.290  0.00  0.00    -0.272 N 
ATOM      5  C4  FMN d   1      -3.984  35.714  21.017  0.00  0.00     0.282 A 
ATOM      6  O4  FMN d   1      -3.735  35.647  22.242  0.00  0.00    -0.265 OA
ATOM      7  C4A FMN d   1      -4.990  34.991  20.369  0.00  0.00     0.171 A 
ATOM      8  N5  FMN d   1      -5.880  34.239  20.865  0.00  0.00    -0.237 NA
ATOM      9  C5A FMN d   1      -6.779  33.619  20.162  0.00  0.00     0.085 A 
ATOM     10  C6  FMN d   1      -7.711  32.852  20.939  0.00  0.00    -0.047 A 
ATOM     11  C7  FMN d   1      -8.654  32.226  20.220  0.00  0.00    -0.054 A 
ATOM     12  C8  FMN d   1      -8.811  32.254  18.783  0.00  0.00    -0.054 A 
ATOM     13  C9  FMN d   1      -7.877  33.022  18.058  0.00  0.00    -0.048 A 
ATOM     14  C9A FMN d   1      -6.878  33.683  18.696  0.00  0.00     0.065 A 
ATOM     15  N10 FMN d   1      -5.844  34.525  18.119  0.00  0.00    -0.325 N 
ATOM     16  C10 FMN d   1      -4.943  35.171  18.860  0.00  0.00     0.170 A 
ATOM     17  H1  FMN d   1      -2.395  36.999  20.791  0.00  0.00     0.174 HD
ATOM     18  H2  FMN d   1      -7.657  32.784  22.020  0.00  0.00     0.088 H 
ATOM     19  H9  FMN d   1      -7.958  33.085  16.979  0.00  0.00     0.087 H 
ENDROOT
BRANCH  15  20
ATOM     20  C1  FMN d   1      -5.976  34.383  16.651  0.00  0.00     0.028 C 
ATOM     21  H10 FMN d   1      -5.597  35.292  16.160  0.00  0.00     0.069 H 
ATOM     22  H11 FMN d   1      -7.035  34.240  16.391  0.00  0.00     0.069 H 
BRANCH  20  23
ATOM     23  C2  FMN d   1      -5.162  33.164  16.170  0.00  0.00     0.078 C 
ATOM     24  H12 FMN d   1      -5.646  32.209  16.422  0.00  0.00     0.089 H 
BRANCH  23  25
ATOM     25  O2  FMN d   1      -3.801  33.135  16.617  0.00  0.00    -0.391 OA
ATOM     26  H13 FMN d   1      -3.781  33.120  17.567  0.00  0.00     0.210 HD
ENDBRANCH  23  25
BRANCH  23  27
ATOM     27  C3  FMN d   1      -5.264  33.512  14.705  0.00  0.00     0.088 C 
ATOM     28  H14 FMN d   1      -5.129  34.592  14.543  0.00  0.00     0.091 H 
BRANCH  27  29
ATOM     29  O3  FMN d   1      -6.571  33.046  14.328  0.00  0.00    -0.390 OA
ATOM     30  H15 FMN d   1      -6.718  33.229  13.407  0.00  0.00     0.210 HD
ENDBRANCH  27  29
BRANCH  27  31
ATOM     31  C4  FMN d   1      -4.257  32.654  13.781  0.00  0.00     0.084 C 
ATOM     32  H16 FMN d   1      -3.219  32.940  14.008  0.00  0.00     0.090 H 
BRANCH  31  33
ATOM     33  O4  FMN d   1      -4.610  32.979  12.372  0.00  0.00    -0.391 OA
ATOM     34  H17 FMN d   1      -4.499  33.911  12.226  0.00  0.00     0.210 HD
ENDBRANCH  31  33
BRANCH  31  35
ATOM     35  C5  FMN d   1      -4.403  31.185  13.906  0.00  0.00     0.059 C 
ATOM     36  H18 FMN d   1      -5.372  30.871  13.490  0.00  0.00     0.079 H 
ATOM     37  H19 FMN d   1      -4.347  30.895  14.966  0.00  0.00     0.079 H 
BRANCH  35  38
ATOM     38  O5  FMN d   1      -3.327  30.556  13.169  0.00  0.00    -0.280 OA
BRANCH  38  39
ATOM     39  P   FMN d   1      -3.258  29.085  12.838  0.00  0.00     0.422 P 
ATOM     40  O1P FMN d   1      -3.326  28.285  14.063  0.00  0.00    -0.617 OA
ATOM     41  O2P FMN d   1      -1.974  28.794  12.129  0.00  0.00    -0.617 OA
ATOM     42  O3P FMN d   1      -4.349  28.666  11.789  0.00  0.00    -0.617 OA
ENDBRANCH  38  39
ENDBRANCH  35  38
ENDBRANCH  31  35
ENDBRANCH  27  31
ENDBRANCH  23  27
ENDBRANCH  20  23
ENDBRANCH  15  20
BRANCH  12  43
ATOM     43  C8M FMN d   1      -9.911  31.545  18.096  0.00  0.00    -0.051 C 
ATOM     44  H6  FMN d   1      -9.830  31.707  17.011  0.00  0.00     0.033 H 
ATOM     45  H7  FMN d   1     -10.877  31.932  18.453  0.00  0.00     0.033 H 
ATOM     46  H8  FMN d   1      -9.845  30.468  18.312  0.00  0.00     0.033 H 
ENDBRANCH  12  43
BRANCH  11  47
ATOM     47  C7M FMN d   1      -9.808  31.422  20.926  0.00  0.00    -0.051 C 
ATOM     48  H3  FMN d   1      -9.647  31.428  22.014  0.00  0.00     0.033 H 
ATOM     49  H4  FMN d   1      -9.808  30.384  20.561  0.00  0.00     0.033 H 
ATOM     50  H5  FMN d   1     -10.776  31.892  20.696  0.00  0.00     0.033 H 
ENDBRANCH  11  47
TORSDOF 12
