REMARK  12 active torsions:
REMARK  status: ('A' for Active; 'I' for Inactive)
REMARK    1  A    between atoms: C7_11  and  C7M_12 
REMARK    2  A    between atoms: C8_13  and  C8M_14 
REMARK    3  A    between atoms: N10_17  and  C1_19 
REMARK    4  A    between atoms: C1_19  and  C2_20 
REMARK    5  A    between atoms: C2_20  and  O2_21 
REMARK    6  A    between atoms: C2_20  and  C3_22 
REMARK    7  A    between atoms: C3_22  and  O3_23 
REMARK    8  A    between atoms: C3_22  and  C4_24 
REMARK    9  A    between atoms: C4_24  and  O4_25 
REMARK   10  A    between atoms: C4_24  and  C5_26 
REMARK   11  A    between atoms: C5_26  and  O5_27 
REMARK   12  A    between atoms: O5_27  and  P_28 
ROOT
ATOM      1  N1  FMN d   1       0.574  40.235  22.229  0.00  0.00    -0.304 N 
ATOM      2  C2  FMN d   1       1.607  41.032  21.792  0.00  0.00     0.259 A 
ATOM      3  O2  FMN d   1       1.465  41.647  20.603  0.00  0.00    -0.151 OA
ATOM      4  N3  FMN d   1       2.721  41.267  22.554  0.00  0.00    -0.296 N 
ATOM      5  C4  FMN d   1       2.889  40.622  23.808  0.00  0.00     0.212 A 
ATOM      6  O4  FMN d   1       4.049  40.808  24.551  0.00  0.00    -0.169 OA
ATOM      7  C4A FMN d   1       1.844  39.770  24.269  0.00  0.00     0.132 A 
ATOM      8  N5  FMN d   1       2.003  39.112  25.490  0.00  0.00    -0.348 N 
ATOM      9  C5A FMN d   1       0.882  38.458  26.071  0.00  0.00     0.060 A 
ATOM     10  C6  FMN d   1       0.945  37.963  27.412  0.00  0.00    -0.049 A 
ATOM     11  C7  FMN d   1      -0.180  37.336  27.988  0.00  0.00    -0.054 A 
ATOM     12  C8  FMN d   1      -1.337  37.199  27.207  0.00  0.00    -0.054 A 
ATOM     13  C9  FMN d   1      -1.388  37.693  25.862  0.00  0.00    -0.049 A 
ATOM     14  C9A FMN d   1      -0.278  38.342  25.269  0.00  0.00     0.063 A 
ATOM     15  N10 FMN d   1      -0.362  38.788  23.914  0.00  0.00    -0.327 N 
ATOM     16  C10 FMN d   1       0.694  39.590  23.467  0.00  0.00     0.143 A 
ATOM     17  H1  FMN d   1      -0.248  40.118  21.672  0.00  0.00     0.171 HD
ATOM     18  H2  FMN d   1       3.422  41.899  22.224  0.00  0.00     0.171 HD
ATOM     19  H3  FMN d   1       2.918  39.100  25.963  0.00  0.00     0.166 HD
ATOM     20  H4  FMN d   1       1.858  38.070  27.986  0.00  0.00     0.087 H 
ATOM     21  H11 FMN d   1      -2.297  37.567  25.286  0.00  0.00     0.087 H 
ENDROOT
BRANCH  15  22
ATOM     22  C1  FMN d   1      -1.507  38.669  23.091  0.00  0.00     0.028 C 
ATOM     23  H12 FMN d   1      -1.446  39.421  22.291  0.00  0.00     0.069 H 
ATOM     24  H13 FMN d   1      -2.402  38.856  23.703  0.00  0.00     0.069 H 
BRANCH  22  25
ATOM     25  C2  FMN d   1      -1.629  37.283  22.453  0.00  0.00     0.078 C 
ATOM     26  H14 FMN d   1      -1.699  36.510  23.233  0.00  0.00     0.089 H 
BRANCH  25  27
ATOM     27  O2  FMN d   1      -0.539  37.006  21.577  0.00  0.00    -0.391 OA
ATOM     28  H15 FMN d   1       0.275  37.039  22.066  0.00  0.00     0.210 HD
ENDBRANCH  25  27
BRANCH  25  29
ATOM     29  C3  FMN d   1      -2.893  37.307  21.572  0.00  0.00     0.088 C 
ATOM     30  H16 FMN d   1      -2.958  38.297  21.097  0.00  0.00     0.091 H 
BRANCH  29  31
ATOM     31  O3  FMN d   1      -3.989  37.158  22.494  0.00  0.00    -0.390 OA
ATOM     32  H17 FMN d   1      -3.900  36.335  22.960  0.00  0.00     0.210 HD
ENDBRANCH  29  31
BRANCH  29  33
ATOM     33  C4  FMN d   1      -2.954  36.301  20.474  0.00  0.00     0.084 C 
ATOM     34  H18 FMN d   1      -2.119  36.481  19.782  0.00  0.00     0.090 H 
BRANCH  33  35
ATOM     35  O4  FMN d   1      -4.243  36.514  19.780  0.00  0.00    -0.391 OA
ATOM     36  H19 FMN d   1      -4.272  37.398  19.433  0.00  0.00     0.210 HD
ENDBRANCH  33  35
BRANCH  33  37
ATOM     37  C5  FMN d   1      -2.895  34.945  20.908  0.00  0.00     0.059 C 
ATOM     38  H20 FMN d   1      -3.747  34.731  21.570  0.00  0.00     0.079 H 
ATOM     39  H21 FMN d   1      -1.955  34.772  21.452  0.00  0.00     0.079 H 
BRANCH  37  40
ATOM     40  O5  FMN d   1      -2.950  34.111  19.788  0.00  0.00    -0.280 OA
BRANCH  40  41
ATOM     41  P   FMN d   1      -3.082  32.468  19.750  0.00  0.00     0.422 P 
ATOM     42  O1P FMN d   1      -2.037  31.661  20.758  0.00  0.00    -0.617 OA
ATOM     43  O2P FMN d   1      -2.791  31.884  18.195  0.00  0.00    -0.617 OA
ATOM     44  O3P FMN d   1      -4.638  32.055  20.139  0.00  0.00    -0.617 OA
ENDBRANCH  40  41
ENDBRANCH  37  40
ENDBRANCH  33  37
ENDBRANCH  29  33
ENDBRANCH  25  29
ENDBRANCH  22  25
ENDBRANCH  15  22
BRANCH  12  45
ATOM     45  C8M FMN d   1      -2.529  36.582  27.701  0.00  0.00    -0.051 C 
ATOM     46  H8  FMN d   1      -3.298  36.589  26.915  0.00  0.00     0.033 H 
ATOM     47  H9  FMN d   1      -2.894  37.139  28.576  0.00  0.00     0.033 H 
ATOM     48  H10 FMN d   1      -2.311  35.544  27.992  0.00  0.00     0.033 H 
ENDBRANCH  12  45
BRANCH  11  49
ATOM     49  C7M FMN d   1      -0.222  36.801  29.340  0.00  0.00    -0.051 C 
ATOM     50  H5  FMN d   1       0.745  36.977  29.834  0.00  0.00     0.033 H 
ATOM     51  H6  FMN d   1      -0.423  35.720  29.301  0.00  0.00     0.033 H 
ATOM     52  H7  FMN d   1      -1.020  37.302  29.908  0.00  0.00     0.033 H 
ENDBRANCH  11  49
TORSDOF 12
