REMARK  12 active torsions:
REMARK  status: ('A' for Active; 'I' for Inactive)
REMARK    1  A    between atoms: C7_11  and  C7M_12 
REMARK    2  A    between atoms: C8_13  and  C8M_14 
REMARK    3  A    between atoms: N10_17  and  C1_19 
REMARK    4  A    between atoms: C1_19  and  C2_20 
REMARK    5  A    between atoms: C2_20  and  O2_21 
REMARK    6  A    between atoms: C2_20  and  C3_22 
REMARK    7  A    between atoms: C3_22  and  O3_23 
REMARK    8  A    between atoms: C3_22  and  C4_24 
REMARK    9  A    between atoms: C4_24  and  O4_25 
REMARK   10  A    between atoms: C4_24  and  C5_26 
REMARK   11  A    between atoms: C5_26  and  O5_27 
REMARK   12  A    between atoms: O5_27  and  P_28 
ROOT
ATOM      1  N1  FMN d   1      51.795  11.987  21.491  0.00  0.00    -0.304 N 
ATOM      2  C2  FMN d   1      50.723  11.232  21.040  0.00  0.00     0.259 A 
ATOM      3  O2  FMN d   1      50.911  10.617  19.850  0.00  0.00    -0.151 OA
ATOM      4  N3  FMN d   1      49.546  11.076  21.729  0.00  0.00    -0.296 N 
ATOM      5  C4  FMN d   1      49.390  11.693  22.969  0.00  0.00     0.212 A 
ATOM      6  O4  FMN d   1      48.242  11.580  23.707  0.00  0.00    -0.169 OA
ATOM      7  C4A FMN d   1      50.446  12.491  23.467  0.00  0.00     0.132 A 
ATOM      8  N5  FMN d   1      50.294  13.116  24.695  0.00  0.00    -0.348 N 
ATOM      9  C5A FMN d   1      51.406  13.727  25.276  0.00  0.00     0.060 A 
ATOM     10  C6  FMN d   1      51.310  14.205  26.608  0.00  0.00    -0.049 A 
ATOM     11  C7  FMN d   1      52.469  14.763  27.179  0.00  0.00    -0.054 A 
ATOM     12  C8  FMN d   1      53.647  14.877  26.430  0.00  0.00    -0.054 A 
ATOM     13  C9  FMN d   1      53.713  14.419  25.085  0.00  0.00    -0.049 A 
ATOM     14  C9A FMN d   1      52.578  13.814  24.508  0.00  0.00     0.063 A 
ATOM     15  N10 FMN d   1      52.673  13.394  23.165  0.00  0.00    -0.327 N 
ATOM     16  C10 FMN d   1      51.602  12.660  22.681  0.00  0.00     0.143 A 
ATOM     17  H1  FMN d   1      52.656  12.041  20.985  0.00  0.00     0.171 HD
ATOM     18  H2  FMN d   1      48.806  10.524  21.344  0.00  0.00     0.171 HD
ATOM     19  H3  FMN d   1      49.380  13.129  25.169  0.00  0.00     0.166 HD
ATOM     20  H4  FMN d   1      50.381  14.143  27.164  0.00  0.00     0.087 H 
ATOM     21  H11 FMN d   1      54.625  14.534  24.511  0.00  0.00     0.087 H 
ENDROOT
BRANCH  15  22
ATOM     22  C1  FMN d   1      53.820  13.450  22.362  0.00  0.00     0.028 C 
ATOM     23  H12 FMN d   1      53.751  12.677  21.583  0.00  0.00     0.069 H 
ATOM     24  H13 FMN d   1      54.706  13.263  22.987  0.00  0.00     0.069 H 
BRANCH  22  25
ATOM     25  C2  FMN d   1      53.959  14.818  21.696  0.00  0.00     0.078 C 
ATOM     26  H14 FMN d   1      53.956  15.616  22.453  0.00  0.00     0.089 H 
BRANCH  25  27
ATOM     27  O2  FMN d   1      52.834  15.002  20.802  0.00  0.00    -0.391 OA
ATOM     28  H15 FMN d   1      52.026  14.961  21.299  0.00  0.00     0.210 HD
ENDBRANCH  25  27
BRANCH  25  29
ATOM     29  C3  FMN d   1      55.312  14.818  20.948  0.00  0.00     0.088 C 
ATOM     30  H16 FMN d   1      55.437  13.816  20.511  0.00  0.00     0.091 H 
BRANCH  29  31
ATOM     31  O3  FMN d   1      56.389  15.032  21.894  0.00  0.00    -0.390 OA
ATOM     32  H17 FMN d   1      56.267  15.868  22.327  0.00  0.00     0.210 HD
ENDBRANCH  29  31
BRANCH  29  33
ATOM     33  C4  FMN d   1      55.419  15.799  19.823  0.00  0.00     0.084 C 
ATOM     34  H18 FMN d   1      54.578  15.618  19.138  0.00  0.00     0.090 H 
BRANCH  33  35
ATOM     35  O4  FMN d   1      56.694  15.573  19.120  0.00  0.00    -0.391 OA
ATOM     36  H19 FMN d   1      56.714  14.687  18.779  0.00  0.00     0.210 HD
ENDBRANCH  33  35
BRANCH  33  37
ATOM     37  C5  FMN d   1      55.411  17.185  20.190  0.00  0.00     0.059 C 
ATOM     38  H20 FMN d   1      56.374  17.462  20.643  0.00  0.00     0.079 H 
ATOM     39  H21 FMN d   1      54.599  17.382  20.906  0.00  0.00     0.079 H 
BRANCH  37  40
ATOM     40  O5  FMN d   1      55.198  17.940  18.978  0.00  0.00    -0.280 OA
BRANCH  40  41
ATOM     41  P   FMN d   1      55.258  19.578  18.989  0.00  0.00     0.422 P 
ATOM     42  O1P FMN d   1      54.128  20.343  19.954  0.00  0.00    -0.617 OA
ATOM     43  O2P FMN d   1      54.960  20.118  17.395  0.00  0.00    -0.617 OA
ATOM     44  O3P FMN d   1      56.786  20.036  19.399  0.00  0.00    -0.617 OA
ENDBRANCH  40  41
ENDBRANCH  37  40
ENDBRANCH  33  37
ENDBRANCH  29  33
ENDBRANCH  25  29
ENDBRANCH  22  25
ENDBRANCH  15  22
BRANCH  12  45
ATOM     45  C8M FMN d   1      54.866  15.409  26.948  0.00  0.00    -0.051 C 
ATOM     46  H8  FMN d   1      55.637  15.389  26.164  0.00  0.00     0.033 H 
ATOM     47  H9  FMN d   1      55.197  14.801  27.803  0.00  0.00     0.033 H 
ATOM     48  H10 FMN d   1      54.703  16.446  27.276  0.00  0.00     0.033 H 
ENDBRANCH  12  45
BRANCH  11  49
ATOM     49  C7M FMN d   1      52.436  15.221  28.559  0.00  0.00    -0.051 C 
ATOM     50  H5  FMN d   1      51.434  15.050  28.978  0.00  0.00     0.033 H 
ATOM     51  H6  FMN d   1      52.670  16.295  28.595  0.00  0.00     0.033 H 
ATOM     52  H7  FMN d   1      53.180  14.664  29.148  0.00  0.00     0.033 H 
ENDBRANCH  11  49
TORSDOF 12
