REMARK  12 active torsions:
REMARK  status: ('A' for Active; 'I' for Inactive)
REMARK    1  A    between atoms: C7_11  and  C7M_12 
REMARK    2  A    between atoms: C8_13  and  C8M_14 
REMARK    3  A    between atoms: N10_17  and  C1_19 
REMARK    4  A    between atoms: C1_19  and  C2_20 
REMARK    5  A    between atoms: C2_20  and  O2_21 
REMARK    6  A    between atoms: C2_20  and  C3_22 
REMARK    7  A    between atoms: C3_22  and  O3_23 
REMARK    8  A    between atoms: C3_22  and  C4_24 
REMARK    9  A    between atoms: C4_24  and  O4_25 
REMARK   10  A    between atoms: C4_24  and  C5_26 
REMARK   11  A    between atoms: C5_26  and  O5_27 
REMARK   12  A    between atoms: O5_27  and  P_28 
ROOT
ATOM      1  N1  FMN d   1      -4.213  36.299  18.244  0.00  0.00    -0.186 NA
ATOM      2  C2  FMN d   1      -3.251  36.996  18.959  0.00  0.00     0.281 A 
ATOM      3  O2  FMN d   1      -2.389  37.800  18.292  0.00  0.00    -0.149 OA
ATOM      4  N3  FMN d   1      -3.177  36.949  20.341  0.00  0.00    -0.295 N 
ATOM      5  C4  FMN d   1      -4.050  36.150  21.058  0.00  0.00     0.214 A 
ATOM      6  O4  FMN d   1      -3.883  36.122  22.423  0.00  0.00    -0.169 OA
ATOM      7  C4A FMN d   1      -5.031  35.406  20.325  0.00  0.00     0.157 A 
ATOM      8  N5  FMN d   1      -5.890  34.582  21.013  0.00  0.00    -0.238 NA
ATOM      9  C5A FMN d   1      -6.913  33.952  20.307  0.00  0.00     0.085 A 
ATOM     10  C6  FMN d   1      -7.855  33.242  21.104  0.00  0.00    -0.047 A 
ATOM     11  C7  FMN d   1      -8.920  32.647  20.408  0.00  0.00    -0.054 A 
ATOM     12  C8  FMN d   1      -9.011  32.757  19.014  0.00  0.00    -0.054 A 
ATOM     13  C9  FMN d   1      -8.057  33.455  18.248  0.00  0.00    -0.048 A 
ATOM     14  C9A FMN d   1      -6.969  34.075  18.915  0.00  0.00     0.065 A 
ATOM     15  N10 FMN d   1      -6.034  34.781  18.162  0.00  0.00    -0.325 N 
ATOM     16  C10 FMN d   1      -5.107  35.487  18.918  0.00  0.00     0.168 A 
ATOM     17  H1  FMN d   1      -2.491  37.494  20.822  0.00  0.00     0.171 HD
ATOM     18  H2  FMN d   1      -7.756  33.165  22.181  0.00  0.00     0.088 H 
ATOM     19  H9  FMN d   1      -8.152  33.517  17.170  0.00  0.00     0.087 H 
ENDROOT
BRANCH  15  20
ATOM     20  C1  FMN d   1      -5.980  34.950  16.758  0.00  0.00     0.028 C 
ATOM     21  H10 FMN d   1      -5.382  35.840  16.511  0.00  0.00     0.069 H 
ATOM     22  H11 FMN d   1      -6.997  35.069  16.356  0.00  0.00     0.069 H 
BRANCH  20  23
ATOM     23  C2  FMN d   1      -5.321  33.692  16.154  0.00  0.00     0.078 C 
ATOM     24  H12 FMN d   1      -5.856  32.793  16.495  0.00  0.00     0.089 H 
BRANCH  23  25
ATOM     25  O2  FMN d   1      -3.936  33.609  16.555  0.00  0.00    -0.391 OA
ATOM     26  H13 FMN d   1      -3.884  33.562  17.502  0.00  0.00     0.210 HD
ENDBRANCH  23  25
BRANCH  23  27
ATOM     27  C3  FMN d   1      -5.401  33.800  14.610  0.00  0.00     0.088 C 
ATOM     28  H14 FMN d   1      -5.233  34.855  14.348  0.00  0.00     0.091 H 
BRANCH  27  29
ATOM     29  O3  FMN d   1      -6.747  33.453  14.275  0.00  0.00    -0.390 OA
ATOM     30  H15 FMN d   1      -6.928  32.569  14.572  0.00  0.00     0.210 HD
ENDBRANCH  27  29
BRANCH  27  31
ATOM     31  C4  FMN d   1      -4.443  33.019  13.805  0.00  0.00     0.084 C 
ATOM     32  H16 FMN d   1      -3.435  33.329  14.119  0.00  0.00     0.090 H 
BRANCH  31  33
ATOM     33  O4  FMN d   1      -4.598  33.377  12.410  0.00  0.00    -0.391 OA
ATOM     34  H17 FMN d   1      -4.427  34.305  12.302  0.00  0.00     0.210 HD
ENDBRANCH  31  33
BRANCH  31  35
ATOM     35  C5  FMN d   1      -4.506  31.591  13.990  0.00  0.00     0.059 C 
ATOM     36  H18 FMN d   1      -5.470  31.208  13.624  0.00  0.00     0.079 H 
ATOM     37  H19 FMN d   1      -4.395  31.346  15.057  0.00  0.00     0.079 H 
BRANCH  35  38
ATOM     38  O5  FMN d   1      -3.433  31.006  13.241  0.00  0.00    -0.280 OA
BRANCH  38  39
ATOM     39  P   FMN d   1      -3.328  29.395  12.867  0.00  0.00     0.422 P 
ATOM     40  O1P FMN d   1      -3.433  28.504  14.255  0.00  0.00    -0.617 OA
ATOM     41  O2P FMN d   1      -1.871  29.122  12.091  0.00  0.00    -0.617 OA
ATOM     42  O3P FMN d   1      -4.516  28.979  11.788  0.00  0.00    -0.617 OA
ENDBRANCH  38  39
ENDBRANCH  35  38
ENDBRANCH  31  35
ENDBRANCH  27  31
ENDBRANCH  23  27
ENDBRANCH  20  23
ENDBRANCH  15  20
BRANCH  12  43
ATOM     43  C8M FMN d   1     -10.081  32.140  18.282  0.00  0.00    -0.051 C 
ATOM     44  H6  FMN d   1      -9.960  32.350  17.209  0.00  0.00     0.033 H 
ATOM     45  H7  FMN d   1     -11.043  32.544  18.629  0.00  0.00     0.033 H 
ATOM     46  H8  FMN d   1     -10.059  31.053  18.447  0.00  0.00     0.033 H 
ENDBRANCH  12  43
BRANCH  11  47
ATOM     47  C7M FMN d   1      -9.911  31.923  21.163  0.00  0.00    -0.051 C 
ATOM     48  H3  FMN d   1      -9.655  31.958  22.232  0.00  0.00     0.033 H 
ATOM     49  H4  FMN d   1      -9.936  30.876  20.826  0.00  0.00     0.033 H 
ATOM     50  H5  FMN d   1     -10.898  32.382  21.008  0.00  0.00     0.033 H 
ENDBRANCH  11  47
TORSDOF 12
