REMARK  13 active torsions:
REMARK  status: ('A' for Active; 'I' for Inactive)
REMARK    1  A    between atoms: S_9  and  CB1_4 
REMARK    2  A    between atoms: CB2_5  and  CB3_6 
REMARK    3  A    between atoms: C6_15  and  S_9 
REMARK    4  A    between atoms: C2_11  and  C1_10 
REMARK    5  A    between atoms: C3_12  and  C2_11 
REMARK    6  A    between atoms: C4_13  and  C3_12 
REMARK    7  A    between atoms: C5_14  and  C4_13 
REMARK    8  A    between atoms: C5_14  and  C6_15 
REMARK    9  A    between atoms: C6_15  and  C7_16 
REMARK   10  A    between atoms: C7_16  and  C8_17 
REMARK   11  A    between atoms: C8_17  and  C9_18 
REMARK   12  A    between atoms: C9_18  and  C10_19 
REMARK   13  A    between atoms: C10_19  and  C11_20 
ROOT
ATOM      1  C6  HST d   1      45.182  54.754  17.480  0.00  0.00    -0.003 C 
ATOM      2  H13 HST d   1      44.541  54.547  16.610  0.00  0.00     0.057 H 
ENDROOT
BRANCH   1   3
ATOM      3  S   HST d   1      46.756  53.876  17.299  0.00  0.00    -0.104 SA
BRANCH   3   4
ATOM      4  CB1 HST d   1      47.468  53.840  18.892  0.00  0.00     0.120 A 
ATOM      5  N1  HST d   1      47.018  53.092  19.948  0.00  0.00    -0.274 N 
ATOM      6  N2  HST d   1      47.488  53.656  21.075  0.00  0.00     0.004 NA
ATOM      7  H1  HST d   1      46.427  52.251  19.890  0.00  0.00     0.185 HD
ATOM      8  N3  HST d   1      48.228  54.735  20.770  0.00  0.00    -0.150 NA
ATOM      9  CB2 HST d   1      48.241  54.874  19.395  0.00  0.00     0.185 A 
BRANCH   9  10
ATOM     10  CB3 HST d   1      49.230  55.783  18.668  0.00  0.00     0.233 C 
ATOM     11  O1  HST d   1      49.940  56.593  19.247  0.00  0.00    -0.643 OA
ATOM     12  O2  HST d   1      49.057  55.832  17.322  0.00  0.00    -0.643 OA
ENDBRANCH   9  10
ENDBRANCH   3   4
ENDBRANCH   1   3
BRANCH   1  13
ATOM     13  C5  HST d   1      45.497  56.262  17.491  0.00  0.00    -0.053 C 
ATOM     14  H11 HST d   1      45.148  56.676  18.448  0.00  0.00     0.034 H 
ATOM     15  H12 HST d   1      46.588  56.382  17.416  0.00  0.00     0.034 H 
BRANCH  13  16
ATOM     16  C4  HST d   1      44.849  57.074  16.357  0.00  0.00    -0.064 C 
ATOM     17  H9  HST d   1      43.842  57.379  16.676  0.00  0.00     0.033 H 
ATOM     18  H10 HST d   1      45.462  57.968  16.172  0.00  0.00     0.033 H 
BRANCH  16  19
ATOM     19  C3  HST d   1      44.728  56.279  15.039  0.00  0.00    -0.065 C 
ATOM     20  H7  HST d   1      45.414  55.421  15.088  0.00  0.00     0.033 H 
ATOM     21  H8  HST d   1      43.694  55.917  14.947  0.00  0.00     0.033 H 
BRANCH  19  22
ATOM     22  C2  HST d   1      45.068  57.101  13.782  0.00  0.00    -0.069 C 
ATOM     23  H5  HST d   1      46.132  57.376  13.826  0.00  0.00     0.032 H 
ATOM     24  H6  HST d   1      44.888  56.471  12.898  0.00  0.00     0.032 H 
BRANCH  22  25
ATOM     25  C1  HST d   1      44.243  58.389  13.633  0.00  0.00    -0.077 C 
ATOM     26  H2  HST d   1      44.546  58.914  12.715  0.00  0.00     0.027 H 
ATOM     27  H3  HST d   1      44.419  59.039  14.502  0.00  0.00     0.027 H 
ATOM     28  H4  HST d   1      43.174  58.135  13.575  0.00  0.00     0.027 H 
ENDBRANCH  22  25
ENDBRANCH  19  22
ENDBRANCH  16  19
ENDBRANCH  13  16
ENDBRANCH   1  13
BRANCH   1  29
ATOM     29  C7  HST d   1      44.467  54.198  18.740  0.00  0.00    -0.053 C 
ATOM     30  H14 HST d   1      45.087  53.392  19.160  0.00  0.00     0.034 H 
ATOM     31  H15 HST d   1      43.494  53.789  18.431  0.00  0.00     0.034 H 
BRANCH  29  32
ATOM     32  C8  HST d   1      44.222  55.243  19.846  0.00  0.00    -0.064 C 
ATOM     33  H16 HST d   1      44.507  56.235  19.465  0.00  0.00     0.033 H 
ATOM     34  H17 HST d   1      44.847  54.991  20.716  0.00  0.00     0.033 H 
BRANCH  32  35
ATOM     35  C9  HST d   1      42.750  55.287  20.290  0.00  0.00    -0.065 C 
ATOM     36  H18 HST d   1      42.193  54.530  19.719  0.00  0.00     0.033 H 
ATOM     37  H19 HST d   1      42.349  56.286  20.063  0.00  0.00     0.033 H 
BRANCH  35  38
ATOM     38  C10 HST d   1      42.545  55.011  21.789  0.00  0.00    -0.069 C 
ATOM     39  H20 HST d   1      42.352  55.969  22.294  0.00  0.00     0.032 H 
ATOM     40  H21 HST d   1      43.468  54.566  22.188  0.00  0.00     0.032 H 
BRANCH  38  41
ATOM     41  C11 HST d   1      41.378  54.059  22.095  0.00  0.00    -0.077 C 
ATOM     42  H22 HST d   1      41.299  53.914  23.183  0.00  0.00     0.027 H 
ATOM     43  H23 HST d   1      41.558  53.089  21.608  0.00  0.00     0.027 H 
ATOM     44  H24 HST d   1      40.442  54.492  21.714  0.00  0.00     0.027 H 
ENDBRANCH  38  41
ENDBRANCH  35  38
ENDBRANCH  32  35
ENDBRANCH  29  32
ENDBRANCH   1  29
TORSDOF 13
