REMARK  11 active torsions:
REMARK  status: ('A' for Active; 'I' for Inactive)
REMARK    1  A    between atoms: C1_2  and  O3_3 
REMARK    2  A    between atoms: C4_8  and  C5_9 
REMARK    3  A    between atoms: C5_9  and  C6_10 
REMARK    4  A    between atoms: C6_10  and  C7_11 
REMARK    5  A    between atoms: C7_11  and  C8_12 
REMARK    6  A    between atoms: C8_12  and  C9_13 
REMARK    7  A    between atoms: C9_13  and  C10_14 
REMARK    8  A    between atoms: C10_14  and  C11_15 
REMARK    9  A    between atoms: C11_15  and  C12_16 
REMARK   10  A    between atoms: C12_16  and  C13_17 
REMARK   11  A    between atoms: C13_17  and  C14_18 
ROOT
ATOM      1  C8  DHP d   1      22.279  73.767 -11.005  0.00  0.00    -0.065 C 
ATOM      2  H9  DHP d   1      21.280  73.308 -11.033  0.00  0.00     0.033 H 
ATOM      3  H10 DHP d   1      23.042  72.980 -10.914  0.00  0.00     0.033 H 
ENDROOT
BRANCH   1   4
ATOM      4  C7  DHP d   1      22.366  74.685  -9.771  0.00  0.00    -0.065 C 
ATOM      5  H7  DHP d   1      22.770  75.658 -10.086  0.00  0.00     0.033 H 
ATOM      6  H8  DHP d   1      21.353  74.823  -9.365  0.00  0.00     0.033 H 
BRANCH   4   7
ATOM      7  C6  DHP d   1      23.268  74.117  -8.657  0.00  0.00    -0.061 C 
ATOM      8  H5  DHP d   1      24.223  73.802  -9.102  0.00  0.00     0.033 H 
ATOM      9  H6  DHP d   1      23.453  74.908  -7.915  0.00  0.00     0.033 H 
BRANCH   7  10
ATOM     10  C5  DHP d   1      22.632  72.908  -7.944  0.00  0.00    -0.034 C 
ATOM     11  H3  DHP d   1      21.691  73.236  -7.478  0.00  0.00     0.040 H 
ATOM     12  H4  DHP d   1      22.418  72.134  -8.696  0.00  0.00     0.040 H 
BRANCH  10  13
ATOM     13  C4  DHP d   1      23.526  72.291  -6.853  0.00  0.00     0.033 A 
ATOM     14  C1  DHP d   1      24.594  71.428  -7.031  0.00  0.00     0.130 A 
ATOM     15  C2  DHP d   1      25.073  71.036  -5.862  0.00  0.00     0.214 A 
ATOM     16  N1  DHP d   1      24.343  71.592  -4.915  0.00  0.00    -0.310 N 
ATOM     17  O2  DHP d   1      26.122  70.217  -5.596  0.00  0.00    -0.169 OA
ATOM     18  C3  DHP d   1      23.458  72.425  -5.513  0.00  0.00     0.190 A 
ATOM     19  H1  DHP d   1      24.428  71.428  -3.932  0.00  0.00     0.170 HD
ATOM     20  O1  DHP d   1      22.842  73.062  -4.345  0.00  0.00    -0.171 OA
BRANCH  14  21
ATOM     21  O3  DHP d   1      24.967  71.123  -8.109  0.00  0.00    -0.356 OA
ATOM     22  H2  DHP d   1      24.433  71.559  -8.763  0.00  0.00     0.218 HD
ENDBRANCH  14  21
ENDBRANCH  10  13
ENDBRANCH   7  10
ENDBRANCH   4   7
ENDBRANCH   1   4
BRANCH   1  23
ATOM     23  C9  DHP d   1      22.510  74.527 -12.322  0.00  0.00    -0.065 C 
ATOM     24  H11 DHP d   1      23.435  75.115 -12.228  0.00  0.00     0.033 H 
ATOM     25  H12 DHP d   1      21.660  75.205 -12.488  0.00  0.00     0.033 H 
BRANCH  23  26
ATOM     26  C10 DHP d   1      22.642  73.599 -13.546  0.00  0.00    -0.065 C 
ATOM     27  H13 DHP d   1      21.899  73.901 -14.299  0.00  0.00     0.033 H 
ATOM     28  H14 DHP d   1      22.443  72.565 -13.228  0.00  0.00     0.033 H 
BRANCH  26  29
ATOM     29  C11 DHP d   1      24.044  73.659 -14.182  0.00  0.00    -0.065 C 
ATOM     30  H15 DHP d   1      24.598  72.754 -13.894  0.00  0.00     0.033 H 
ATOM     31  H16 DHP d   1      24.566  74.547 -13.796  0.00  0.00     0.033 H 
BRANCH  29  32
ATOM     32  C12 DHP d   1      24.006  73.742 -15.719  0.00  0.00    -0.065 C 
ATOM     33  H17 DHP d   1      24.715  74.517 -16.047  0.00  0.00     0.033 H 
ATOM     34  H18 DHP d   1      22.988  74.020 -16.031  0.00  0.00     0.033 H 
BRANCH  32  35
ATOM     35  C13 DHP d   1      24.382  72.413 -16.398  0.00  0.00    -0.069 C 
ATOM     36  H19 DHP d   1      23.604  72.157 -17.132  0.00  0.00     0.032 H 
ATOM     37  H20 DHP d   1      24.436  71.626 -15.632  0.00  0.00     0.032 H 
BRANCH  35  38
ATOM     38  C14 DHP d   1      25.762  72.499 -17.133  0.00  0.00    -0.077 C 
ATOM     39  H21 DHP d   1      25.989  71.530 -17.602  0.00  0.00     0.027 H 
ATOM     40  H22 DHP d   1      26.549  72.748 -16.407  0.00  0.00     0.027 H 
ATOM     41  H23 DHP d   1      25.717  73.279 -17.907  0.00  0.00     0.027 H 
ENDBRANCH  35  38
ENDBRANCH  32  35
ENDBRANCH  29  32
ENDBRANCH  26  29
ENDBRANCH  23  26
ENDBRANCH   1  23
TORSDOF 11
