REMARK  8 active torsions:
REMARK  status: ('A' for Active; 'I' for Inactive)
REMARK    1  A    between atoms: C1_1  and  N1_14 
REMARK    2  A    between atoms: C3_3  and  C1'_7 
REMARK    3  A    between atoms: C1'_7  and  O1'_8 
REMARK    4  A    between atoms: C1'_7  and  O2'_9 
REMARK    5  A    between atoms: C1'_7  and  C2'_10 
REMARK    6  A    between atoms: N1_14  and  CM1_15 
REMARK    7  A    between atoms: N1_14  and  CM2_16 
REMARK    8  A    between atoms: N1_14  and  CM3_17 
ROOT
ATOM      1  C1  NAF d   1       4.296  67.609  63.563  0.00  0.00     0.136 A 
ATOM      2  C2  NAF d   1       4.960  66.817  62.580  0.00  0.00    -0.038 A 
ATOM      3  C3  NAF d   1       5.004  65.388  62.736  0.00  0.00     0.015 A 
ATOM      4  C4  NAF d   1       4.460  64.786  63.926  0.00  0.00    -0.071 A 
ATOM      5  C5  NAF d   1       3.839  65.531  64.908  0.00  0.00    -0.080 A 
ATOM      6  C6  NAF d   1       3.714  66.918  64.746  0.00  0.00    -0.049 A 
ATOM      7  H1  NAF d   1       5.427  67.288  61.723  0.00  0.00     0.088 H 
ATOM      8  H2  NAF d   1       4.541  63.713  64.055  0.00  0.00     0.084 H 
ATOM      9  H3  NAF d   1       3.451  65.048  65.797  0.00  0.00     0.083 H 
ATOM     10  H4  NAF d   1       3.185  67.497  65.495  0.00  0.00     0.086 H 
ENDROOT
BRANCH   1  11
ATOM     11  N1  NAF d   1       4.093  68.974  63.373  0.00  0.00    -0.049 N 
BRANCH  11  12
ATOM     12  CM1 NAF d   1       4.131  69.547  64.708  0.00  0.00     0.072 C 
ATOM     13  H7  NAF d   1       3.977  70.634  64.645  0.00  0.00     0.069 H 
ATOM     14  H8  NAF d   1       5.109  69.341  65.168  0.00  0.00     0.069 H 
ATOM     15  H9  NAF d   1       3.336  69.099  65.322  0.00  0.00     0.069 H 
ENDBRANCH  11  12
BRANCH  11  16
ATOM     16  CM2 NAF d   1       2.787  69.386  62.831  0.00  0.00     0.072 C 
ATOM     17  H10 NAF d   1       2.672  68.991  61.811  0.00  0.00     0.069 H 
ATOM     18  H11 NAF d   1       2.730  70.484  62.807  0.00  0.00     0.069 H 
ATOM     19  H12 NAF d   1       1.984  68.990  63.470  0.00  0.00     0.069 H 
ENDBRANCH  11  16
BRANCH  11  20
ATOM     20  CM3 NAF d   1       4.813  69.689  62.257  0.00  0.00     0.072 C 
ATOM     21  H13 NAF d   1       5.899  69.564  62.382  0.00  0.00     0.069 H 
ATOM     22  H14 NAF d   1       4.562  70.760  62.285  0.00  0.00     0.069 H 
ATOM     23  H15 NAF d   1       4.503  69.265  61.290  0.00  0.00     0.069 H 
ENDBRANCH  11  20
ENDBRANCH   1  11
BRANCH   3  24
ATOM     24  C1' NAF d   1       5.583  64.517  61.606  0.00  0.00     0.290 C 
BRANCH  24  25
ATOM     25  O1' NAF d   1       4.388  64.471  61.030  0.00  0.00    -0.355 OA
ATOM     26  H5  NAF d   1       4.454  64.006  60.204  0.00  0.00     0.213 HD
ENDBRANCH  24  25
BRANCH  24  27
ATOM     27  O2' NAF d   1       6.601  65.184  60.830  0.00  0.00    -0.355 OA
ATOM     28  H6  NAF d   1       7.421  65.174  61.310  0.00  0.00     0.213 HD
ENDBRANCH  24  27
BRANCH  24  29
ATOM     29  C2' NAF d   1       5.973  63.076  62.010  0.00  0.00     0.449 C 
ATOM     30  F1' NAF d   1       4.948  62.353  62.705  0.00  0.00    -0.165 F 
ATOM     31  F2' NAF d   1       7.191  63.166  62.759  0.00  0.00    -0.165 F 
ATOM     32  F3' NAF d   1       6.258  62.257  60.911  0.00  0.00    -0.165 F 
ENDBRANCH  24  29
ENDBRANCH   3  24
TORSDOF 8
