REMARK  12 active torsions:
REMARK  status: ('A' for Active; 'I' for Inactive)
REMARK    1  A    between atoms: O4_21  and  C1_1 
REMARK    2  A    between atoms: C2_2  and  O2_7 
REMARK    3  A    between atoms: C3_3  and  O3_8 
REMARK    4  A    between atoms: C4_4  and  O4_9 
REMARK    5  A    between atoms: C5_5  and  C6_6 
REMARK    6  A    between atoms: C6_6  and  O6_11 
REMARK    7  A    between atoms: C1_12  and  O1_18 
REMARK    8  A    between atoms: C2_13  and  O2_19 
REMARK    9  A    between atoms: C3_14  and  O3_20 
REMARK   10  A    between atoms: C4_15  and  O4_21 
REMARK   11  A    between atoms: C5_16  and  C6_17 
REMARK   12  A    between atoms: C6_17  and  O6_23 
ROOT
ATOM      1  O4  MOL d   1      10.317  15.675  40.245  0.00  0.00    -0.348 OA
ENDROOT
BRANCH   1   2
ATOM      2  C1  MOL d   1      11.382  15.596  41.181  0.00  0.00     0.159 C 
ATOM      3  C2  MOL d   1      10.686  16.092  42.464  0.00  0.00     0.110 C 
ATOM      4  C3  MOL d   1      10.252  17.528  42.309  0.00  0.00     0.092 C 
ATOM      5  H2  MOL d   1      11.427  16.057  43.277  0.00  0.00     0.094 H 
ATOM      6  C4  MOL d   1      11.489  18.365  41.845  0.00  0.00     0.090 C 
ATOM      7  H3  MOL d   1       9.461  17.578  41.546  0.00  0.00     0.091 H 
ATOM      8  C5  MOL d   1      12.102  17.810  40.577  0.00  0.00     0.089 C 
ATOM      9  H4  MOL d   1      12.245  18.321  42.643  0.00  0.00     0.091 H 
ATOM     10  O5  MOL d   1      12.406  16.420  40.806  0.00  0.00    -0.348 OA
ATOM     11  H5  MOL d   1      11.417  17.938  39.726  0.00  0.00     0.090 H 
ATOM     12  H1  MOL d   1      11.754  14.567  41.294  0.00  0.00     0.133 H 
BRANCH   3  13
ATOM     13  O2  MOL d   1       9.590  15.233  42.848  0.00  0.00    -0.388 OA
ATOM     14  H8  MOL d   1       9.235  15.527  43.678  0.00  0.00     0.210 HD
ENDBRANCH   3  13
BRANCH   4  15
ATOM     15  O3  MOL d   1       9.756  18.105  43.528  0.00  0.00    -0.390 OA
ATOM     16  H9  MOL d   1      10.437  18.078  44.190  0.00  0.00     0.210 HD
ENDBRANCH   4  15
BRANCH   6  17
ATOM     17  O4  MOL d   1      11.136  19.749  41.624  0.00  0.00    -0.390 OA
ATOM     18  H10 MOL d   1      10.510  19.805  40.912  0.00  0.00     0.210 HD
ENDBRANCH   6  17
BRANCH   8  19
ATOM     19  C6  MOL d   1      13.422  18.480  40.315  0.00  0.00     0.043 C 
ATOM     20  H6  MOL d   1      14.162  18.111  41.040  0.00  0.00     0.078 H 
ATOM     21  H7  MOL d   1      13.303  19.567  40.434  0.00  0.00     0.078 H 
BRANCH  19  22
ATOM     22  O6  MOL d   1      13.908  18.191  38.931  0.00  0.00    -0.398 OA
ATOM     23  H11 MOL d   1      13.274  18.512  38.300  0.00  0.00     0.209 HD
ENDBRANCH  19  22
ENDBRANCH   8  19
ENDBRANCH   1   2
BRANCH   1  24
ATOM     24  C4  MOL d   1      10.145  14.523  39.360  0.00  0.00     0.096 C 
ATOM     25  C3  MOL d   1       8.946  13.753  39.819  0.00  0.00     0.092 C 
ATOM     26  C2  MOL d   1       8.657  12.625  38.866  0.00  0.00     0.110 C 
ATOM     27  H14 MOL d   1       8.076  14.421  39.901  0.00  0.00     0.091 H 
ATOM     28  C1  MOL d   1       8.537  13.141  37.436  0.00  0.00     0.156 C 
ATOM     29  H13 MOL d   1       9.466  11.881  38.919  0.00  0.00     0.094 H 
ATOM     30  O5  MOL d   1       9.352  14.183  37.085  0.00  0.00    -0.349 OA
ATOM     31  H12 MOL d   1       8.675  12.294  36.748  0.00  0.00     0.133 H 
ATOM     32  C5  MOL d   1       9.847  15.161  37.965  0.00  0.00     0.089 C 
ATOM     33  H16 MOL d   1       9.078  15.937  38.095  0.00  0.00     0.090 H 
ATOM     34  H15 MOL d   1      11.039  13.883  39.336  0.00  0.00     0.091 H 
BRANCH  25  35
ATOM     35  O3  MOL d   1       9.253  13.149  41.094  0.00  0.00    -0.390 OA
ATOM     36  H21 MOL d   1       9.463  13.829  41.723  0.00  0.00     0.210 HD
ENDBRANCH  25  35
BRANCH  26  37
ATOM     37  O2  MOL d   1       7.430  12.031  39.245  0.00  0.00    -0.388 OA
ATOM     38  H20 MOL d   1       7.501  11.700  40.133  0.00  0.00     0.210 HD
ENDBRANCH  26  37
BRANCH  28  39
ATOM     39  O1  MOL d   1       7.343  13.747  37.260  0.00  0.00    -0.369 OA
ATOM     40  H19 MOL d   1       7.261  14.025  36.355  0.00  0.00     0.212 HD
ENDBRANCH  28  39
BRANCH  32  41
ATOM     41  C6  MOL d   1      11.109  15.823  37.373  0.00  0.00     0.043 C 
ATOM     42  H17 MOL d   1      11.844  15.067  37.059  0.00  0.00     0.078 H 
ATOM     43  H18 MOL d   1      11.575  16.509  38.096  0.00  0.00     0.078 H 
BRANCH  41  44
ATOM     44  O6  MOL d   1      10.583  16.542  36.238  0.00  0.00    -0.398 OA
ATOM     45  H22 MOL d   1      10.172  15.929  35.639  0.00  0.00     0.209 HD
ENDBRANCH  41  44
ENDBRANCH  32  41
ENDBRANCH   1  24
TORSDOF 12
