REMARK  9 active torsions:
REMARK  status: ('A' for Active; 'I' for Inactive)
REMARK    1  A    between atoms: O3A_8  and  PB_1 
REMARK    2  A    between atoms: PA_5  and  O3A_8 
REMARK    3  A    between atoms: PA_5  and  O5_9 
REMARK    4  A    between atoms: O5_9  and  C5_10 
REMARK    5  A    between atoms: C5_10  and  C4_11 
REMARK    6  A    between atoms: C3_13  and  O3_14 
REMARK    7  A    between atoms: C2_15  and  O2_16 
REMARK    8  A    between atoms: C1_17  and  N9_18 
REMARK    9  A    between atoms: C6_22  and  N6_23 
ROOT
ATOM      1  C4  ADP d   1      12.374   7.092  77.263  0.00  0.00     0.089 C 
ATOM      2  O4  ADP d   1      12.868   5.940  76.565  0.00  0.00    -0.353 OA
ATOM      3  C3  ADP d   1      12.112   6.628  78.677  0.00  0.00     0.091 C 
ATOM      4  C2  ADP d   1      11.871   5.108  78.556  0.00  0.00     0.105 C 
ATOM      5  C1  ADP d   1      12.185   4.839  77.078  0.00  0.00     0.139 C 
ATOM      6  H3  ADP d   1      11.432   7.441  76.815  0.00  0.00     0.090 H 
ATOM      7  H4  ADP d   1      12.997   6.797  79.308  0.00  0.00     0.091 H 
ATOM      8  H6  ADP d   1      12.612   4.593  79.186  0.00  0.00     0.093 H 
ATOM      9  H8  ADP d   1      11.205   4.795  76.580  0.00  0.00     0.122 H 
ENDROOT
BRANCH   5  10
ATOM     10  N9  ADP d   1      12.870   3.631  76.666  0.00  0.00    -0.294 N 
ATOM     11  C8  ADP d   1      14.020   3.055  77.113  0.00  0.00     0.071 A 
ATOM     12  N7  ADP d   1      14.356   1.975  76.453  0.00  0.00    -0.236 NA
ATOM     13  H9  ADP d   1      14.605   3.454  77.941  0.00  0.00     0.144 H 
ATOM     14  C5  ADP d   1      13.343   1.828  75.506  0.00  0.00     0.149 A 
ATOM     15  C6  ADP d   1      13.112   0.866  74.477  0.00  0.00     0.155 A 
ATOM     16  C4  ADP d   1      12.416   2.836  75.644  0.00  0.00     0.167 A 
ATOM     17  N1  ADP d   1      11.995   0.994  73.737  0.00  0.00    -0.222 NA
ATOM     18  C2  ADP d   1      11.172   2.036  74.000  0.00  0.00     0.091 A 
ATOM     19  N3  ADP d   1      11.290   3.008  74.916  0.00  0.00    -0.222 NA
ATOM     20  H12 ADP d   1      10.286   2.093  73.378  0.00  0.00     0.146 H 
BRANCH  15  21
ATOM     21  N6  ADP d   1      13.941  -0.136  74.199  0.00  0.00    -0.382 N 
ATOM     22  H10 ADP d   1      13.715  -0.797  73.442  0.00  0.00     0.157 HD
ATOM     23  H11 ADP d   1      14.809  -0.251  74.741  0.00  0.00     0.157 HD
ENDBRANCH  15  21
ENDBRANCH   5  10
BRANCH   4  24
ATOM     24  O2  ADP d   1      10.620   4.604  78.930  0.00  0.00    -0.388 OA
ATOM     25  H7  ADP d   1      10.459   4.806  79.844  0.00  0.00     0.210 HD
ENDBRANCH   4  24
BRANCH   1  26
ATOM     26  C5  ADP d   1      13.382   8.167  77.148  0.00  0.00     0.058 C 
ATOM     27  H1  ADP d   1      12.899   9.146  77.284  0.00  0.00     0.079 H 
ATOM     28  H2  ADP d   1      14.159   8.032  77.915  0.00  0.00     0.079 H 
BRANCH  26  29
ATOM     29  O5  ADP d   1      13.957   8.096  75.876  0.00  0.00    -0.287 OA
BRANCH  29  30
ATOM     30  PA  ADP d   1      14.938   9.227  75.423  0.00  0.00     0.418 P 
ATOM     31  O1A ADP d   1      14.432   9.794  74.148  0.00  0.00    -0.624 OA
ATOM     32  O2A ADP d   1      16.323   8.666  75.484  0.00  0.00    -0.624 OA
BRANCH  30  33
ATOM     33  O3A ADP d   1      14.707  10.238  76.618  0.00  0.00    -0.173 OA
BRANCH  33  34
ATOM     34  PB  ADP d   1      15.010  11.790  76.493  0.00  0.00     0.431 P 
ATOM     35  O1B ADP d   1      14.126  12.501  77.463  0.00  0.00    -0.616 OA
ATOM     36  O2B ADP d   1      14.710  12.255  75.097  0.00  0.00    -0.616 OA
ATOM     37  O3B ADP d   1      16.446  12.054  76.833  0.00  0.00    -0.616 OA
ENDBRANCH  33  34
ENDBRANCH  30  33
ENDBRANCH  29  30
ENDBRANCH  26  29
ENDBRANCH   1  26
BRANCH   3  38
ATOM     38  O3  ADP d   1      11.037   7.402  79.202  0.00  0.00    -0.390 OA
ATOM     39  H5  ADP d   1      10.855   7.126  80.093  0.00  0.00     0.210 HD
ENDBRANCH   3  38
TORSDOF 9
