REMARK  5 active torsions:
REMARK  status: ('A' for Active; 'I' for Inactive)
REMARK    1  A    between atoms: C1_1  and  O1_7 
REMARK    2  A    between atoms: C2_2  and  O2_8 
REMARK    3  A    between atoms: C3_3  and  O3_9 
REMARK    4  A    between atoms: C4_4  and  O4_10 
REMARK    5  A    between atoms: C5_5  and  C6_6 
ROOT
ATOM      1  C1  FCB d   1      14.259  56.429  55.002  0.00  0.00     0.156 C 
ATOM      2  C2  FCB d   1      12.894  56.960  54.644  0.00  0.00     0.110 C 
ATOM      3  C3  FCB d   1      12.462  56.285  53.344  0.00  0.00     0.092 C 
ATOM      4  C4  FCB d   1      13.477  56.486  52.231  0.00  0.00     0.087 C 
ATOM      5  C5  FCB d   1      14.813  55.962  52.721  0.00  0.00     0.065 C 
ATOM      6  O5  FCB d   1      15.185  56.644  53.928  0.00  0.00    -0.351 OA
ATOM      7  H1  FCB d   1      14.161  55.352  55.204  0.00  0.00     0.133 H 
ATOM      8  H2  FCB d   1      12.965  58.048  54.497  0.00  0.00     0.094 H 
ATOM      9  H3  FCB d   1      12.443  55.204  53.546  0.00  0.00     0.091 H 
ATOM     10  H4  FCB d   1      13.175  55.840  51.394  0.00  0.00     0.091 H 
ATOM     11  H5  FCB d   1      14.709  54.889  52.939  0.00  0.00     0.086 H 
ENDROOT
BRANCH   5  12
ATOM     12  C6  FCB d   1      15.895  56.135  51.670  0.00  0.00    -0.050 C 
ATOM     13  H6  FCB d   1      16.848  55.746  52.057  0.00  0.00     0.031 H 
ATOM     14  H7  FCB d   1      16.006  57.203  51.430  0.00  0.00     0.031 H 
ATOM     15  H8  FCB d   1      15.615  55.582  50.761  0.00  0.00     0.031 H 
ENDBRANCH   5  12
BRANCH   4  16
ATOM     16  O4  FCB d   1      13.471  57.822  51.709  0.00  0.00    -0.390 OA
ATOM     17  H12 FCB d   1      12.591  58.049  51.432  0.00  0.00     0.210 HD
ENDBRANCH   4  16
BRANCH   3  18
ATOM     18  O3  FCB d   1      11.125  56.644  52.978  0.00  0.00    -0.390 OA
ATOM     19  H11 FCB d   1      10.545  56.495  53.715  0.00  0.00     0.210 HD
ENDBRANCH   3  18
BRANCH   1  20
ATOM     20  O1  FCB d   1      14.869  57.061  56.123  0.00  0.00    -0.369 OA
ATOM     21  H9  FCB d   1      15.712  56.657  56.293  0.00  0.00     0.212 HD
ENDBRANCH   1  20
BRANCH   2  22
ATOM     22  O2  FCB d   1      11.891  56.695  55.632  0.00  0.00    -0.388 OA
ATOM     23  H10 FCB d   1      11.059  57.047  55.339  0.00  0.00     0.210 HD
ENDBRANCH   2  22
TORSDOF 5
