REMARK  10 active torsions:
REMARK  status: ('A' for Active; 'I' for Inactive)
REMARK    1  A    between atoms: C25_2  and  N3_31 
REMARK    2  A    between atoms: C23_4  and  N4_34 
REMARK    3  A    between atoms: C22_5  and  O6_32 
REMARK    4  A    between atoms: C21_6  and  N2_8 
REMARK    5  A    between atoms: C21_6  and  C26_7 
REMARK    6  A    between atoms: C18_9  and  C19_10 
REMARK    7  A    between atoms: C6_11  and  C7_12 
REMARK    8  A    between atoms: C10_13  and  C11_14 
REMARK    9  A    between atoms: O6_32  and  C27_33 
REMARK   10  A    between atoms: N4_34  and  C28_35 
ROOT
ATOM      1  O4  STU d   1      -0.058  24.605   8.915  0.00  0.00    -0.333 OA
ATOM      2  C25 STU d   1       1.330  24.642   8.620  0.00  0.00     0.115 C 
ATOM      3  C24 STU d   1       2.190  24.163   9.817  0.00  0.00     0.005 C 
ATOM      4  C23 STU d   1       1.285  23.864  11.015  0.00  0.00     0.134 C 
ATOM      5  C22 STU d   1       0.399  25.107  11.317  0.00  0.00     0.113 C 
ATOM      6  C21 STU d   1      -0.583  25.179  10.100  0.00  0.00     0.168 C 
ATOM      7  H1  STU d   1       1.511  23.939   7.793  0.00  0.00     0.118 H 
ATOM      8  H2  STU d   1       2.909  24.950  10.089  0.00  0.00     0.042 H 
ATOM      9  H3  STU d   1       2.735  23.250   9.534  0.00  0.00     0.042 H 
ATOM     10  H4  STU d   1       0.636  23.007  10.782  0.00  0.00     0.088 H 
ATOM     11  H5  STU d   1      -0.136  25.026  12.275  0.00  0.00     0.094 H 
ENDROOT
BRANCH   4  12
ATOM     12  N4  STU d   1       2.190  23.510  12.249  0.00  0.00    -0.072 N 
ATOM     13  H21 STU d   1       1.820  23.959  13.072  0.00  0.00     0.277 HD
ATOM     14  H22 STU d   1       3.127  23.840  12.079  0.00  0.00     0.277 HD
BRANCH  12  15
ATOM     15  C28 STU d   1       2.219  22.036  12.464  0.00  0.00     0.065 C 
ATOM     16  H23 STU d   1       2.856  21.804  13.330  0.00  0.00     0.067 H 
ATOM     17  H24 STU d   1       2.625  21.543  11.568  0.00  0.00     0.067 H 
ATOM     18  H25 STU d   1       1.198  21.673  12.652  0.00  0.00     0.067 H 
ENDBRANCH  12  15
ENDBRANCH   4  12
BRANCH   5  19
ATOM     19  O6  STU d   1       1.283  26.245  11.296  0.00  0.00    -0.384 OA
BRANCH  19  20
ATOM     20  C27 STU d   1       0.708  27.365  11.940  0.00  0.00     0.005 C 
ATOM     21  H18 STU d   1       1.411  28.210  11.903  0.00  0.00     0.066 H 
ATOM     22  H19 STU d   1       0.492  27.114  12.989  0.00  0.00     0.066 H 
ATOM     23  H20 STU d   1      -0.226  27.642  11.429  0.00  0.00     0.066 H 
ENDBRANCH  19  20
ENDBRANCH   5  19
BRANCH   2  24
ATOM     24  N3  STU d   1       1.709  25.971   8.152  0.00  0.00    -0.316 N 
ATOM     25  C19 STU d   1       0.860  27.101   8.206  0.00  0.00     0.077 A 
ATOM     26  C6  STU d   1       1.478  28.081   7.370  0.00  0.00     0.022 A 
ATOM     27  C5  STU d   1       2.646  27.528   6.811  0.00  0.00     0.004 A 
ATOM     28  C4  STU d   1       3.610  27.946   5.921  0.00  0.00    -0.070 A 
ATOM     29  C20 STU d   1       2.741  26.197   7.309  0.00  0.00     0.048 A 
ATOM     30  C3  STU d   1       4.628  27.116   5.555  0.00  0.00    -0.082 A 
ATOM     31  H17 STU d   1       3.559  28.946   5.507  0.00  0.00     0.084 H 
ATOM     32  C2  STU d   1       4.704  25.792   6.047  0.00  0.00    -0.081 A 
ATOM     33  H16 STU d   1       5.392  27.477   4.876  0.00  0.00     0.083 H 
ATOM     34  C1  STU d   1       3.755  25.317   6.923  0.00  0.00    -0.056 A 
ATOM     35  H15 STU d   1       5.516  25.147   5.732  0.00  0.00     0.083 H 
ATOM     36  H14 STU d   1       3.793  24.301   7.298  0.00  0.00     0.087 H 
BRANCH  25  37
ATOM     37  C18 STU d   1      -0.249  27.353   8.907  0.00  0.00     0.077 A 
ATOM     38  N2  STU d   1      -1.018  26.573   9.809  0.00  0.00    -0.308 N 
ATOM     39  C17 STU d   1      -2.108  27.305  10.303  0.00  0.00     0.049 A 
ATOM     40  C12 STU d   1      -2.037  28.599   9.702  0.00  0.00     0.004 A 
ATOM     41  C16 STU d   1      -3.112  27.011  11.173  0.00  0.00    -0.056 A 
ATOM     42  C11 STU d   1      -0.901  28.645   8.863  0.00  0.00     0.018 A 
ATOM     43  C13 STU d   1      -2.987  29.537  10.029  0.00  0.00    -0.070 A 
ATOM     44  C14 STU d   1      -4.015  29.250  10.895  0.00  0.00    -0.082 A 
ATOM     45  H12 STU d   1      -2.924  30.527   9.593  0.00  0.00     0.084 H 
ATOM     46  C15 STU d   1      -4.061  27.944  11.468  0.00  0.00    -0.081 A 
ATOM     47  H11 STU d   1      -4.767  29.993  11.135  0.00  0.00     0.083 H 
ATOM     48  H10 STU d   1      -4.864  27.689  12.150  0.00  0.00     0.083 H 
ATOM     49  H9  STU d   1      -3.157  26.031  11.633  0.00  0.00     0.087 H 
BRANCH  42  50
ATOM     50  C10 STU d   1      -0.312  29.613   8.017  0.00  0.00     0.012 A 
ATOM     51  C7  STU d   1       0.774  29.374   7.329  0.00  0.00     0.060 A 
ATOM     52  C8  STU d   1       1.191  30.590   6.560  0.00  0.00     0.278 A 
ATOM     53  N1  STU d   1       0.246  31.488   6.873  0.00  0.00    -0.221 NA
ATOM     54  O5  STU d   1       2.145  30.733   5.820  0.00  0.00    -0.265 OA
ATOM     55  C9  STU d   1      -0.787  31.061   7.794  0.00  0.00     0.018 A 
ATOM     56  H13 STU d   1      -1.640  31.600   8.204  0.00  0.00     0.116 H 
ENDBRANCH  42  50
ENDBRANCH  25  37
ENDBRANCH   2  24
BRANCH   6  57
ATOM     57  C26 STU d   1      -1.782  24.315  10.445  0.00  0.00    -0.028 C 
ATOM     58  H6  STU d   1      -2.255  24.694  11.363  0.00  0.00     0.034 H 
ATOM     59  H7  STU d   1      -1.453  23.277  10.604  0.00  0.00     0.034 H 
ATOM     60  H8  STU d   1      -2.507  24.347   9.618  0.00  0.00     0.034 H 
ENDBRANCH   6  57
TORSDOF 10
