REMARK  20 active torsions:
REMARK  status: ('A' for Active; 'I' for Inactive)
REMARK    1  A    between atoms: C1_1  and  O74_45 
REMARK    2  A    between atoms: C4_4  and  C11_7 
REMARK    3  A    between atoms: C11_7  and  C12_8 
REMARK    4  A    between atoms: C12_8  and  O16_10 
REMARK    5  A    between atoms: C12_8  and  C15_9 
REMARK       I    between atoms: C15_9  and  N18_12 
REMARK    6  A    between atoms: N18_12  and  C19_13 
REMARK    7  A    between atoms: C19_13  and  C29_18 
REMARK    8  A    between atoms: C19_13  and  C20_14 
REMARK    9  A    between atoms: C20_14  and  C22_16 
REMARK   10  A    between atoms: C20_14  and  C21_15 
REMARK   11  A    between atoms: C21_15  and  C23_17 
REMARK       I    between atoms: C29_18  and  N32_20 
REMARK   12  A    between atoms: C36_24  and  C55_34 
REMARK   13  A    between atoms: C39_26  and  O49_29 
REMARK   14  A    between atoms: O49_29  and  S51_30 
REMARK   15  A    between atoms: S51_30  and  O53_32 
REMARK       I    between atoms: C55_34  and  N57_36 
REMARK   16  A    between atoms: N57_36  and  C58_37 
REMARK   17  A    between atoms: C58_37  and  C59_38 
REMARK   18  A    between atoms: C59_38  and  C62_39 
REMARK   19  A    between atoms: C62_39  and  C65_40 
REMARK   20  A    between atoms: C65_40  and  N68_41 
REMARK       I    between atoms: N68_41  and  C71_42 
REMARK       I    between atoms: C71_42  and  N72_43 
ROOT
ATOM      1  C29 DIL d   1      18.804  20.014  10.058  0.00  0.00     0.244 C 
ATOM      2  O31 DIL d   1      18.208  19.658   9.036  0.00  0.00    -0.271 OA
ATOM      3  N32 XPR d   1      20.108  19.764  10.293  0.00  0.00    -0.332 N 
ATOM      4  C33 XPR d   1      20.892  20.084  11.505  0.00  0.00     0.021 C 
ATOM      5  C34 XPR d   1      22.356  20.233  10.982  0.00  0.00    -0.032 C 
ATOM      6  C35 XPR d   1      22.395  19.243   9.786  0.00  0.00    -0.033 C 
ATOM      7  C36 XPR d   1      20.972  19.149   9.262  0.00  0.00     0.092 C 
ATOM      8  C37 XPR d   1      20.781  18.938  12.542  0.00  0.00    -0.020 C 
ATOM      9  C39 XPR d   1      21.903  18.981  13.597  0.00  0.00     0.061 C 
ATOM     10  C42 XPR d   1      23.243  18.797  12.869  0.00  0.00    -0.039 C 
ATOM     11  C43 XPR d   1      23.475  20.008  11.976  0.00  0.00    -0.058 C 
ATOM     12  H20 XPR d   1      20.544  21.023  11.959  0.00  0.00     0.073 H 
ATOM     13  H21 XPR d   1      22.483  21.258  10.604  0.00  0.00     0.043 H 
ATOM     14  H22 XPR d   1      22.743  18.255  10.121  0.00  0.00     0.037 H 
ATOM     15  H23 XPR d   1      23.066  19.621   9.000  0.00  0.00     0.037 H 
ATOM     16  H24 XPR d   1      20.895  19.713   8.321  0.00  0.00     0.087 H 
ATOM     17  H25 XPR d   1      20.834  17.976  12.011  0.00  0.00     0.040 H 
ATOM     18  H26 XPR d   1      19.812  19.020  13.056  0.00  0.00     0.040 H 
ATOM     19  H27 XPR d   1      21.767  18.133  14.284  0.00  0.00     0.085 H 
ATOM     20  H28 XPR d   1      24.057  18.716  13.604  0.00  0.00     0.036 H 
ATOM     21  H29 XPR d   1      23.210  17.884  12.256  0.00  0.00     0.036 H 
ATOM     22  H30 XPR d   1      23.563  20.901  12.612  0.00  0.00     0.033 H 
ATOM     23  H31 XPR d   1      24.413  19.859  11.421  0.00  0.00     0.033 H 
ENDROOT
BRANCH   1  24
ATOM     24  C19 DIL d   1      18.087  20.787  11.198  0.00  0.00     0.092 C 
ATOM     25  H10 DIL d   1      18.592  20.466  12.121  0.00  0.00     0.088 H 
BRANCH  24  26
ATOM     26  N18 DIL d   1      16.708  20.351  11.321  0.00  0.00    -0.345 N 
ATOM     27  C15 34H d   1      16.535  19.240  12.035  0.00  0.00     0.247 C 
ATOM     28  O17 34H d   1      17.355  18.814  12.862  0.00  0.00    -0.271 OA
ATOM     29  H9  DIL d   1      15.947  20.846  10.902  0.00  0.00     0.163 HD
BRANCH  27  30
ATOM     30  C12 34H d   1      15.215  18.512  11.780  0.00  0.00     0.116 C 
ATOM     31  H7  34H d   1      15.322  17.875  10.889  0.00  0.00     0.098 H 
BRANCH  30  32
ATOM     32  C11 34H d   1      14.795  17.691  12.958  0.00  0.00    -0.009 C 
ATOM     33  H5  34H d   1      15.662  17.115  13.313  0.00  0.00     0.044 H 
ATOM     34  H6  34H d   1      14.453  18.368  13.755  0.00  0.00     0.044 H 
BRANCH  32  35
ATOM     35  C4  34H d   1      13.652  16.707  12.620  0.00  0.00    -0.055 A 
ATOM     36  C3  34H d   1      13.933  15.611  11.746  0.00  0.00    -0.074 A 
ATOM     37  C2  34H d   1      12.962  14.601  11.501  0.00  0.00    -0.051 A 
ATOM     38  H2  34H d   1      14.901  15.549  11.262  0.00  0.00     0.084 H 
ATOM     39  C1  34H d   1      11.575  14.689  12.169  0.00  0.00     0.065 A 
ATOM     40  H1  34H d   1      13.197  13.770  10.845  0.00  0.00     0.087 H 
ATOM     41  C6  34H d   1      11.316  15.939  13.070  0.00  0.00    -0.051 A 
ATOM     42  C5  34H d   1      12.374  16.871  13.240  0.00  0.00    -0.074 A 
ATOM     43  H4  34H d   1      10.357  16.090  13.551  0.00  0.00     0.087 H 
ATOM     44  H3  34H d   1      12.206  17.741  13.864  0.00  0.00     0.084 H 
BRANCH  39  45
ATOM     45  O74 34H d   1      10.752  13.812  11.952  0.00  0.00    -0.361 OA
ATOM     46  H47 34H d   1       9.987  14.193  11.536  0.00  0.00     0.217 HD
ENDBRANCH  39  45
ENDBRANCH  32  35
ENDBRANCH  30  32
BRANCH  30  47
ATOM     47  O16 34H d   1      14.183  19.417  11.609  0.00  0.00    -0.386 OA
ATOM     48  H8  34H d   1      14.091  19.943  12.395  0.00  0.00     0.210 HD
ENDBRANCH  30  47
ENDBRANCH  27  30
ENDBRANCH  24  26
BRANCH  24  49
ATOM     49  C20 DIL d   1      18.205  22.342  11.202  0.00  0.00    -0.030 C 
ATOM     50  H11 DIL d   1      18.599  22.493  12.218  0.00  0.00     0.043 H 
BRANCH  49  51
ATOM     51  C22 DIL d   1      16.939  23.150  11.307  0.00  0.00    -0.071 C 
ATOM     52  H14 DIL d   1      16.205  22.604  11.917  0.00  0.00     0.028 H 
ATOM     53  H15 DIL d   1      16.527  23.318  10.301  0.00  0.00     0.028 H 
ATOM     54  H16 DIL d   1      17.160  24.119  11.779  0.00  0.00     0.028 H 
ENDBRANCH  49  51
BRANCH  49  55
ATOM     55  C21 DIL d   1      19.345  22.934  10.393  0.00  0.00    -0.063 C 
ATOM     56  H12 DIL d   1      19.491  22.295   9.509  0.00  0.00     0.033 H 
ATOM     57  H13 DIL d   1      20.248  22.903  11.021  0.00  0.00     0.033 H 
BRANCH  55  58
ATOM     58  C23 DIL d   1      19.176  24.377   9.897  0.00  0.00    -0.076 C 
ATOM     59  H17 DIL d   1      20.069  24.677   9.329  0.00  0.00     0.027 H 
ATOM     60  H18 DIL d   1      19.047  25.048  10.759  0.00  0.00     0.027 H 
ATOM     61  H19 DIL d   1      18.291  24.440   9.248  0.00  0.00     0.027 H 
ENDBRANCH  55  58
ENDBRANCH  49  55
ENDBRANCH  24  49
ENDBRANCH   1  24
BRANCH   7  62
ATOM     62  C55 XPR d   1      20.507  17.691   9.004  0.00  0.00     0.240 C 
ATOM     63  N57 AG2 d   1      20.686  17.378   7.719  0.00  0.00    -0.359 N 
ATOM     64  H33 AG2 d   1      21.169  18.018   7.122  0.00  0.00     0.162 HD
ATOM     65  O56 XPR d   1      20.027  16.938   9.873  0.00  0.00    -0.271 OA
BRANCH  63  66
ATOM     66  C58 AG2 d   1      20.185  16.105   7.160  0.00  0.00    -0.005 C 
ATOM     67  H34 AG2 d   1      19.760  15.508   7.981  0.00  0.00     0.064 H 
ATOM     68  H35 AG2 d   1      21.032  15.564   6.714  0.00  0.00     0.064 H 
BRANCH  66  69
ATOM     69  C59 AG2 d   1      19.114  16.286   6.092  0.00  0.00    -0.049 C 
ATOM     70  H36 AG2 d   1      18.894  15.297   5.662  0.00  0.00     0.035 H 
ATOM     71  H37 AG2 d   1      19.523  16.943   5.310  0.00  0.00     0.035 H 
BRANCH  69  72
ATOM     72  C62 AG2 d   1      17.810  16.887   6.569  0.00  0.00    -0.048 C 
ATOM     73  H38 AG2 d   1      18.004  17.849   7.066  0.00  0.00     0.035 H 
ATOM     74  H39 AG2 d   1      17.321  16.201   7.276  0.00  0.00     0.035 H 
BRANCH  72  75
ATOM     75  C65 AG2 d   1      16.907  17.106   5.355  0.00  0.00     0.009 C 
ATOM     76  H40 AG2 d   1      16.936  16.196   4.737  0.00  0.00     0.064 H 
ATOM     77  H41 AG2 d   1      17.306  17.954   4.779  0.00  0.00     0.064 H 
BRANCH  75  78
ATOM     78  N68 AG2 d   1      15.543  17.386   5.672  0.00  0.00    -0.227 N 
ATOM     79  C71 AG2 d   1      14.677  17.567   4.678  0.00  0.00     0.665 C 
ATOM     80  N73 AG2 d   1      13.394  17.836   4.957  0.00  0.00    -0.235 N 
ATOM     81  N72 AG2 d   1      15.084  17.504   3.411  0.00  0.00    -0.235 N 
ATOM     82  H45 AG2 d   1      13.079  17.885   5.936  0.00  0.00     0.174 HD
ATOM     83  H46 AG2 d   1      12.723  17.994   4.192  0.00  0.00     0.174 HD
ATOM     84  H43 AG2 d   1      14.409  17.645   2.646  0.00  0.00     0.174 HD
ATOM     85  H44 AG2 d   1      16.073  17.314   3.197  0.00  0.00     0.174 HD
ATOM     86  H42 AG2 d   1      15.235  17.447   6.653  0.00  0.00     0.177 HD
ENDBRANCH  75  78
ENDBRANCH  72  75
ENDBRANCH  69  72
ENDBRANCH  66  69
ENDBRANCH  63  66
ENDBRANCH   7  62
BRANCH   9  87
ATOM     87  O49 XPR d   1      21.850  20.194  14.389  0.00  0.00    -0.258 OA
BRANCH  87  88
ATOM     88  S51 XPR d   1      22.606  20.513  15.752  0.00  0.00     0.240 S 
ATOM     89  O54 XPR d   1      21.765  21.340  16.575  0.00  0.00    -0.579 OA
ATOM     90  O52 XPR d   1      23.875  20.944  15.345  0.00  0.00    -0.579 OA
BRANCH  88  91
ATOM     91  O53 XPR d   1      22.977  19.208  16.505  0.00  0.00    -0.274 OA
ATOM     92  H32 XPR d   1      22.185  18.722  16.703  0.00  0.00     0.234 HD
ENDBRANCH  88  91
ENDBRANCH  87  88
ENDBRANCH   9  87
TORSDOF 20
