REMARK WARNING: 32 MAX_TORS EXCEEDED!!!
REMARK  42 active torsions:
REMARK  status: ('A' for Active; 'I' for Inactive)
REMARK    1  A    between atoms: N_1  and  CA_2 
REMARK    2  A    between atoms: CA_2  and  C_3 
REMARK       I    between atoms: C_3  and  N_5 
REMARK    3  A    between atoms: N_5  and  CA_6 
REMARK    4  A    between atoms: CA_6  and  C_7 
REMARK    5  A    between atoms: CA_6  and  CB_9 
REMARK       I    between atoms: C_7  and  N_17 
REMARK    6  A    between atoms: CB_9  and  CG_10 
REMARK    7  A    between atoms: CZ_15  and  OH_16 
REMARK    8  A    between atoms: N_17  and  CA_18 
REMARK    9  A    between atoms: CA_18  and  C_19 
REMARK   10  A    between atoms: CA_18  and  CB_21 
REMARK       I    between atoms: C_19  and  N_26 
REMARK   11  A    between atoms: CB_21  and  CG_22 
REMARK   12  A    between atoms: CG_22  and  CD_23 
REMARK   13  A    between atoms: N_26  and  CA_27 
REMARK   14  A    between atoms: CA_27  and  C_28 
REMARK   15  A    between atoms: CA_27  and  CB_30 
REMARK       I    between atoms: C_28  and  N_34 
REMARK   16  A    between atoms: CB_30  and  CG_31 
REMARK       I    between atoms: CG_31  and  ND2_33 
REMARK   17  A    between atoms: CA_35  and  C_36 
REMARK       I    between atoms: C_36  and  N_41 
REMARK   18  A    between atoms: N_41  and  CA_42 
REMARK   19  A    between atoms: CA_42  and  C_43 
REMARK   20  A    between atoms: CA_42  and  CB_45 
REMARK       I    between atoms: C_43  and  N_48 
REMARK   21  A    between atoms: CB_45  and  OG1_46 
REMARK   22  A    between atoms: CB_45  and  CG2_47 
REMARK   23  A    between atoms: N_48  and  CA_49 
REMARK   24  A    between atoms: CA_49  and  C_50 
REMARK   25  A    between atoms: CA_49  and  CB_52 
REMARK       I    between atoms: C_50  and  N_60 
REMARK   26  A    between atoms: CB_52  and  CG_53 
REMARK   27  A    between atoms: CZ_58  and  OH_59 
REMARK   28  A    between atoms: N_60  and  CA_61 
REMARK   29  A    between atoms: CA_61  and  C_62 
REMARK   30  A    between atoms: CA_61  and  CB_64 
REMARK       I    between atoms: C_62  and  N_69 
REMARK   31  A    between atoms: CB_64  and  CG_65 
REMARK   32  A    between atoms: CG_65  and  CD_66 
REMARK   33  A    between atoms: CD_66  and  CE_67 
REMARK   34  A    between atoms: CE_67  and  NZ_68 
REMARK   35  A    between atoms: N_69  and  CA_70 
REMARK   36  A    between atoms: CA_70  and  C_71 
REMARK   37  A    between atoms: CA_70  and  CB_73 
REMARK       I    between atoms: C_71  and  N_80 
REMARK   38  A    between atoms: CB_73  and  CG_74 
REMARK   39  A    between atoms: N_80  and  CA_81 
REMARK   40  A    between atoms: CA_81  and  C_82 
REMARK   41  A    between atoms: CA_81  and  CB_84 
REMARK   42  A    between atoms: CB_84  and  CG_85 
ROOT
ATOM      1  N   TYR d   1      54.386  -5.154  72.990  0.00  0.00    -0.346 N 
ATOM      2  H41 TYR d   1      54.815  -4.338  72.602  0.00  0.00     0.163 HD
ATOM      3  C   THR d   1      55.110  -6.265  73.056  0.00  0.00     0.243 C 
ATOM      4  O   THR d   1      54.681  -7.324  73.520  0.00  0.00    -0.271 OA
ENDROOT
BRANCH   3   5
ATOM      5  CA  THR d   1      56.556  -6.147  72.546  0.00  0.00     0.113 C 
ATOM      6  H35 THR d   1      56.924  -7.161  72.331  0.00  0.00     0.091 H 
BRANCH   5   7
ATOM      7  N   THR d   1      56.702  -5.354  71.324  0.00  0.00    -0.344 N 
ATOM      8  C   PRO d   1      56.268  -5.754  70.129  0.00  0.00     0.241 C 
ATOM      9  O   PRO d   1      55.657  -6.812  69.955  0.00  0.00    -0.271 OA
ATOM     10  H34 THR d   1      57.152  -4.463  71.389  0.00  0.00     0.163 HD
BRANCH   8  11
ATOM     11  CA  PRO d   1      56.530  -4.792  68.956  0.00  0.00     0.091 C 
ATOM     12  N   PRO d   1      56.573  -3.376  69.347  0.00  0.00    -0.337 N 
ATOM     13  C   ASN d   1      55.507  -2.761  69.856  0.00  0.00     0.243 C 
ATOM     14  CD  PRO d   1      57.905  -2.800  69.057  0.00  0.00    -0.001 C 
ATOM     15  O   ASN d   1      54.440  -3.351  70.015  0.00  0.00    -0.271 OA
ATOM     16  CG  PRO d   1      58.345  -3.635  67.907  0.00  0.00    -0.048 C 
ATOM     17  H32 PRO d   1      58.585  -2.908  69.915  0.00  0.00     0.064 H 
ATOM     18  H33 PRO d   1      57.832  -1.738  68.778  0.00  0.00     0.064 H 
ATOM     19  CB  PRO d   1      57.908  -5.023  68.354  0.00  0.00    -0.036 C 
ATOM     20  H30 PRO d   1      57.840  -3.335  66.977  0.00  0.00     0.035 H 
ATOM     21  H31 PRO d   1      59.435  -3.583  67.766  0.00  0.00     0.035 H 
ATOM     22  H28 PRO d   1      57.851  -5.711  67.498  0.00  0.00     0.036 H 
ATOM     23  H29 PRO d   1      58.601  -5.429  69.105  0.00  0.00     0.036 H 
ATOM     24  H27 PRO d   1      55.748  -4.948  68.199  0.00  0.00     0.087 H 
BRANCH  13  25
ATOM     25  CA  ASN d   1      55.635  -1.281  70.220  0.00  0.00     0.097 C 
ATOM     26  H22 ASN d   1      56.687  -0.961  70.179  0.00  0.00     0.088 H 
BRANCH  25  27
ATOM     27  N   ASN d   1      54.833  -0.566  69.232  0.00  0.00    -0.346 N 
ATOM     28  C   GLU d   1      55.269  -0.286  68.009  0.00  0.00     0.241 C 
ATOM     29  O   GLU d   1      56.418  -0.525  67.642  0.00  0.00    -0.271 OA
ATOM     30  H21 ASN d   1      53.912  -0.273  69.488  0.00  0.00     0.163 HD
BRANCH  28  31
ATOM     31  CA  GLU d   1      54.286   0.430  67.068  0.00  0.00     0.090 C 
ATOM     32  H16 GLU d   1      53.453   0.850  67.650  0.00  0.00     0.087 H 
BRANCH  31  33
ATOM     33  N   GLU d   1      55.006   1.505  66.392  0.00  0.00    -0.346 N 
ATOM     34  C   TYR d   1      54.846   2.784  66.707  0.00  0.00     0.241 C 
ATOM     35  O   TYR d   1      54.102   3.165  67.615  0.00  0.00    -0.271 OA
ATOM     36  H15 GLU d   1      55.646   1.268  65.661  0.00  0.00     0.163 HD
BRANCH  34  37
ATOM     37  CA  TYR d   1      55.713   3.761  65.918  0.00  0.00     0.093 C 
ATOM     38  H7  TYR d   1      55.813   3.367  64.896  0.00  0.00     0.088 H 
BRANCH  37  39
ATOM     39  N   TYR d   1      55.186   5.118  65.810  0.00  0.00    -0.346 N 
ATOM     40  C   GLY d   1      54.952   5.698  64.637  0.00  0.00     0.243 C 
ATOM     41  O   GLY d   1      55.065   5.121  63.560  0.00  0.00    -0.272 OA
ATOM     42  H6  TYR d   1      54.994   5.629  66.648  0.00  0.00     0.163 HD
BRANCH  40  43
ATOM     43  CA  GLY d   1      54.453   7.117  64.637  0.00  0.00     0.152 C 
ATOM     44  H4  GLY d   1      53.457   7.166  65.100  0.00  0.00     0.090 H 
ATOM     45  H5  GLY d   1      55.149   7.761  65.195  0.00  0.00     0.090 H 
BRANCH  43  46
ATOM     46  N   GLY d   1      54.378   7.553  63.235  0.00  0.00    -0.071 N 
ATOM     47  H1  GLY d   1      54.046   8.504  63.196  0.00  0.00     0.274 HD
ATOM     48  H2  GLY d   1      53.743   6.954  62.730  0.00  0.00     0.274 HD
ATOM     49  H3  GLY d   1      55.294   7.500  62.817  0.00  0.00     0.274 HD
ENDBRANCH  43  46
ENDBRANCH  40  43
ENDBRANCH  37  39
BRANCH  37  50
ATOM     50  CB  TYR d   1      57.112   3.797  66.577  0.00  0.00    -0.014 C 
ATOM     51  H8  TYR d   1      57.523   2.777  66.550  0.00  0.00     0.043 H 
ATOM     52  H9  TYR d   1      56.984   4.114  67.623  0.00  0.00     0.043 H 
BRANCH  50  53
ATOM     53  CG  TYR d   1      58.128   4.727  65.929  0.00  0.00    -0.056 A 
ATOM     54  CD1 TYR d   1      58.839   4.333  64.787  0.00  0.00    -0.074 A 
ATOM     55  CE1 TYR d   1      59.779   5.176  64.187  0.00  0.00    -0.051 A 
ATOM     56  H10 TYR d   1      58.656   3.354  64.360  0.00  0.00     0.084 H 
ATOM     57  CZ  TYR d   1      60.021   6.423  64.724  0.00  0.00     0.065 A 
ATOM     58  H12 TYR d   1      60.316   4.851  63.303  0.00  0.00     0.087 H 
ATOM     59  CE2 TYR d   1      59.326   6.839  65.856  0.00  0.00    -0.051 A 
ATOM     60  CD2 TYR d   1      58.382   5.992  66.452  0.00  0.00    -0.074 A 
ATOM     61  H13 TYR d   1      59.515   7.820  66.277  0.00  0.00     0.087 H 
ATOM     62  H11 TYR d   1      57.843   6.326  67.331  0.00  0.00     0.084 H 
BRANCH  57  63
ATOM     63  OH  TYR d   1      60.988   7.230  64.154  0.00  0.00    -0.361 OA
ATOM     64  H14 TYR d   1      61.357   6.793  63.396  0.00  0.00     0.217 HD
ENDBRANCH  57  63
ENDBRANCH  50  53
ENDBRANCH  37  50
ENDBRANCH  34  37
ENDBRANCH  31  33
BRANCH  31  65
ATOM     65  CB  GLU d   1      53.735  -0.566  66.031  0.00  0.00    -0.029 C 
ATOM     66  H17 GLU d   1      54.574  -0.894  65.400  0.00  0.00     0.037 H 
ATOM     67  H18 GLU d   1      52.997  -0.035  65.412  0.00  0.00     0.037 H 
BRANCH  65  68
ATOM     68  CG  GLU d   1      53.045  -1.840  66.609  0.00  0.00     0.018 C 
ATOM     69  H19 GLU d   1      53.678  -2.237  67.416  0.00  0.00     0.049 H 
ATOM     70  H20 GLU d   1      52.968  -2.585  65.803  0.00  0.00     0.049 H 
BRANCH  68  71
ATOM     71  CD  GLU d   1      51.634  -1.598  67.178  0.00  0.00     0.172 C 
ATOM     72  OE1 GLU d   1      50.908  -0.715  66.680  0.00  0.00    -0.648 OA
ATOM     73  OE2 GLU d   1      51.238  -2.315  68.121  0.00  0.00    -0.648 OA
ENDBRANCH  68  71
ENDBRANCH  65  68
ENDBRANCH  31  65
ENDBRANCH  28  31
ENDBRANCH  25  27
BRANCH  25  74
ATOM     74  CB  ASN d   1      55.062  -1.019  71.622  0.00  0.00     0.036 C 
ATOM     75  H23 ASN d   1      53.980  -1.216  71.599  0.00  0.00     0.051 H 
ATOM     76  H24 ASN d   1      55.237   0.036  71.879  0.00  0.00     0.051 H 
BRANCH  74  77
ATOM     77  CG  ASN d   1      55.688  -1.888  72.702  0.00  0.00     0.217 C 
ATOM     78  OD1 ASN d   1      56.348  -2.895  72.424  0.00  0.00    -0.274 OA
ATOM     79  ND2 ASN d   1      55.467  -1.506  73.956  0.00  0.00    -0.370 N 
ATOM     80  H25 ASN d   1      55.850  -2.034  74.714  0.00  0.00     0.159 HD
ATOM     81  H26 ASN d   1      54.918  -0.691  74.141  0.00  0.00     0.159 HD
ENDBRANCH  74  77
ENDBRANCH  25  74
ENDBRANCH  13  25
ENDBRANCH   8  11
ENDBRANCH   5   7
BRANCH   5  82
ATOM     82  CB  THR d   1      57.416  -5.531  73.678  0.00  0.00     0.060 C 
ATOM     83  H36 THR d   1      56.825  -4.756  74.188  0.00  0.00     0.086 H 
BRANCH  82  84
ATOM     84  OG1 THR d   1      58.598  -4.920  73.123  0.00  0.00    -0.393 OA
ATOM     85  H37 THR d   1      58.344  -4.236  72.515  0.00  0.00     0.210 HD
ENDBRANCH  82  84
BRANCH  82  86
ATOM     86  CG2 THR d   1      57.801  -6.606  74.701  0.00  0.00    -0.050 C 
ATOM     87  H38 THR d   1      58.410  -6.153  75.497  0.00  0.00     0.031 H 
ATOM     88  H39 THR d   1      58.380  -7.397  74.201  0.00  0.00     0.031 H 
ATOM     89  H40 THR d   1      56.889  -7.039  75.139  0.00  0.00     0.031 H 
ENDBRANCH  82  86
ENDBRANCH   5  82
ENDBRANCH   3   5
BRANCH   1  90
ATOM     90  CA  TYR d   1      53.004  -5.047  73.447  0.00  0.00     0.093 C 
ATOM     91  H42 TYR d   1      53.056  -4.970  74.543  0.00  0.00     0.088 H 
BRANCH  90  92
ATOM     92  C   TYR d   1      52.081  -6.259  73.173  0.00  0.00     0.241 C 
ATOM     93  O   TYR d   1      51.238  -6.595  74.010  0.00  0.00    -0.271 OA
ATOM     94  N   LYS d   1      52.240  -6.918  72.025  0.00  0.00    -0.346 N 
ATOM     95  H50 LYS d   1      52.944  -6.610  71.385  0.00  0.00     0.163 HD
BRANCH  94  96
ATOM     96  CA  LYS d   1      51.416  -8.083  71.666  0.00  0.00     0.089 C 
ATOM     97  H51 LYS d   1      50.377  -7.723  71.691  0.00  0.00     0.087 H 
BRANCH  96  98
ATOM     98  C   LYS d   1      51.433  -9.355  72.580  0.00  0.00     0.241 C 
ATOM     99  O   LYS d   1      50.385 -10.003  72.818  0.00  0.00    -0.271 OA
ATOM    100  N   PHE d   1      52.611  -9.726  73.081  0.00  0.00    -0.346 N 
ATOM    101  H63 PHE d   1      53.427  -9.186  72.873  0.00  0.00     0.163 HD
BRANCH 100 102
ATOM    102  CA  PHE d   1      52.729 -10.907  73.928  0.00  0.00     0.093 C 
ATOM    103  H64 PHE d   1      52.069 -11.684  73.514  0.00  0.00     0.088 H 
BRANCH 102 104
ATOM    104  C   PHE d   1      52.304 -10.633  75.384  0.00  0.00     0.241 C 
ATOM    105  O   PHE d   1      52.827 -11.266  76.314  0.00  0.00    -0.271 OA
ATOM    106  N   PHE d   1      51.395  -9.686  75.600  0.00  0.00    -0.344 N 
ATOM    107  H72 PHE d   1      51.023  -9.172  74.827  0.00  0.00     0.163 HD
BRANCH 106 108
ATOM    108  CA  PHE d   1      50.932  -9.388  76.963  0.00  0.00     0.100 C 
ATOM    109  H73 PHE d   1      51.191 -10.250  77.595  0.00  0.00     0.090 H 
BRANCH 108 110
ATOM    110  C   PHE d   1      49.414  -9.192  77.048  0.00  0.00     0.197 C 
ATOM    111  O   PHE d   1      48.885  -9.201  78.184  0.00  0.00    -0.646 OA
ATOM    112  O1  PHE d   1      48.721  -9.027  76.009  0.00  0.00    -0.646 OA
ENDBRANCH 108 110
BRANCH 108 113
ATOM    113  CB  PHE d   1      51.656  -8.155  77.522  0.00  0.00    -0.013 C 
ATOM    114  H74 PHE d   1      51.344  -8.012  78.567  0.00  0.00     0.043 H 
ATOM    115  H75 PHE d   1      51.359  -7.278  76.928  0.00  0.00     0.043 H 
BRANCH 113 116
ATOM    116  CG  PHE d   1      53.151  -8.270  77.484  0.00  0.00    -0.056 A 
ATOM    117  CD1 PHE d   1      53.843  -8.846  78.553  0.00  0.00    -0.077 A 
ATOM    118  CE1 PHE d   1      55.220  -9.000  78.509  0.00  0.00    -0.082 A 
ATOM    119  H76 PHE d   1      53.296  -9.177  79.428  0.00  0.00     0.084 H 
ATOM    120  CZ  PHE d   1      55.921  -8.571  77.384  0.00  0.00    -0.083 A 
ATOM    121  H78 PHE d   1      55.747  -9.450  79.343  0.00  0.00     0.083 H 
ATOM    122  CE2 PHE d   1      55.240  -7.990  76.312  0.00  0.00    -0.082 A 
ATOM    123  H80 PHE d   1      56.998  -8.688  77.341  0.00  0.00     0.083 H 
ATOM    124  CD2 PHE d   1      53.863  -7.842  76.367  0.00  0.00    -0.077 A 
ATOM    125  H79 PHE d   1      55.788  -7.655  75.438  0.00  0.00     0.083 H 
ATOM    126  H77 PHE d   1      53.337  -7.390  75.534  0.00  0.00     0.084 H 
ENDBRANCH 113 116
ENDBRANCH 108 113
ENDBRANCH 106 108
ENDBRANCH 102 104
BRANCH 102 127
ATOM    127  CB  PHE d   1      54.166 -11.442  73.943  0.00  0.00    -0.014 C 
ATOM    128  H65 PHE d   1      54.142 -12.472  74.328  0.00  0.00     0.043 H 
ATOM    129  H66 PHE d   1      54.758 -10.810  74.622  0.00  0.00     0.043 H 
BRANCH 127 130
ATOM    130  CG  PHE d   1      54.852 -11.460  72.607  0.00  0.00    -0.056 A 
ATOM    131  CD1 PHE d   1      55.462 -10.310  72.106  0.00  0.00    -0.077 A 
ATOM    132  CE1 PHE d   1      56.204 -10.351  70.925  0.00  0.00    -0.082 A 
ATOM    133  H67 PHE d   1      55.358  -9.373  72.641  0.00  0.00     0.084 H 
ATOM    134  CZ  PHE d   1      56.340 -11.552  70.235  0.00  0.00    -0.083 A 
ATOM    135  H69 PHE d   1      56.673  -9.450  70.546  0.00  0.00     0.083 H 
ATOM    136  CE2 PHE d   1      55.731 -12.704  70.724  0.00  0.00    -0.082 A 
ATOM    137  H71 PHE d   1      56.919 -11.590  69.319  0.00  0.00     0.083 H 
ATOM    138  CD2 PHE d   1      54.988 -12.651  71.905  0.00  0.00    -0.077 A 
ATOM    139  H70 PHE d   1      55.833 -13.641  70.189  0.00  0.00     0.083 H 
ATOM    140  H68 PHE d   1      54.511 -13.550  72.279  0.00  0.00     0.084 H 
ENDBRANCH 127 130
ENDBRANCH 102 127
ENDBRANCH 100 102
ENDBRANCH  96  98
BRANCH  96 141
ATOM    141  CB  LYS d   1      51.722  -8.488  70.226  0.00  0.00    -0.038 C 
ATOM    142  H52 LYS d   1      51.401  -7.671  69.563  0.00  0.00     0.036 H 
ATOM    143  H53 LYS d   1      51.146  -9.396  69.994  0.00  0.00     0.036 H 
BRANCH 141 144
ATOM    144  CG  LYS d   1      53.171  -8.770  69.955  0.00  0.00    -0.061 C 
ATOM    145  H54 LYS d   1      53.566  -9.426  70.745  0.00  0.00     0.033 H 
ATOM    146  H55 LYS d   1      53.730  -7.822  69.952  0.00  0.00     0.033 H 
BRANCH 144 147
ATOM    147  CD  LYS d   1      53.338  -9.453  68.609  0.00  0.00    -0.043 C 
ATOM    148  H56 LYS d   1      52.659 -10.318  68.566  0.00  0.00     0.035 H 
ATOM    149  H57 LYS d   1      54.378  -9.798  68.516  0.00  0.00     0.035 H 
BRANCH 147 150
ATOM    150  CE  LYS d   1      53.025  -8.530  67.443  0.00  0.00     0.080 C 
ATOM    151  H58 LYS d   1      52.133  -7.934  67.685  0.00  0.00     0.075 H 
ATOM    152  H59 LYS d   1      52.830  -9.136  66.546  0.00  0.00     0.075 H 
BRANCH 150 153
ATOM    153  NZ  LYS d   1      54.160  -7.616  67.173  0.00  0.00    -0.079 N 
ATOM    154  H60 LYS d   1      53.930  -7.015  66.397  0.00  0.00     0.274 HD
ATOM    155  H61 LYS d   1      54.980  -8.156  66.947  0.00  0.00     0.274 HD
ATOM    156  H62 LYS d   1      54.342  -7.055  67.991  0.00  0.00     0.274 HD
ENDBRANCH 150 153
ENDBRANCH 147 150
ENDBRANCH 144 147
ENDBRANCH 141 144
ENDBRANCH  96 141
ENDBRANCH  94  96
ENDBRANCH  90  92
BRANCH  90 157
ATOM    157  CB  TYR d   1      52.406  -3.710  72.937  0.00  0.00    -0.014 C 
ATOM    158  H43 TYR d   1      52.882  -3.467  71.975  0.00  0.00     0.043 H 
ATOM    159  H44 TYR d   1      52.644  -2.927  73.672  0.00  0.00     0.043 H 
BRANCH 157 160
ATOM    160  CG  TYR d   1      50.912  -3.721  72.731  0.00  0.00    -0.056 A 
ATOM    161  CD1 TYR d   1      50.361  -4.241  71.558  0.00  0.00    -0.074 A 
ATOM    162  CE1 TYR d   1      48.995  -4.357  71.396  0.00  0.00    -0.051 A 
ATOM    163  H45 TYR d   1      51.019  -4.560  70.758  0.00  0.00     0.084 H 
ATOM    164  CZ  TYR d   1      48.156  -3.946  72.408  0.00  0.00     0.065 A 
ATOM    165  H47 TYR d   1      48.586  -4.768  70.480  0.00  0.00     0.087 H 
ATOM    166  CE2 TYR d   1      48.672  -3.412  73.576  0.00  0.00    -0.051 A 
ATOM    167  CD2 TYR d   1      50.047  -3.301  73.733  0.00  0.00    -0.074 A 
ATOM    168  H48 TYR d   1      48.006  -3.082  74.365  0.00  0.00     0.087 H 
ATOM    169  H46 TYR d   1      50.450  -2.882  74.648  0.00  0.00     0.084 H 
BRANCH 164 170
ATOM    170  OH  TYR d   1      46.799  -4.089  72.259  0.00  0.00    -0.361 OA
ATOM    171  H49 TYR d   1      46.465  -4.661  72.940  0.00  0.00     0.217 HD
ENDBRANCH 164 170
ENDBRANCH 157 160
ENDBRANCH  90 157
ENDBRANCH   1  90
TORSDOF 42
