REMARK  11 active torsions:
REMARK  status: ('A' for Active; 'I' for Inactive)
REMARK    1  A    between atoms: N_1  and  CA_2 
REMARK    2  A    between atoms: CA_2  and  CB_3 
REMARK    3  A    between atoms: CA_2  and  C_6 
REMARK    4  A    between atoms: CB_3  and  CG_4 
REMARK    5  A    between atoms: CG_4  and  SD_5 
REMARK    6  A    between atoms: SD_5  and  C5_9 
REMARK    7  A    between atoms: C5_9  and  C4_10 
REMARK    8  A    between atoms: C3_12  and  O3_13 
REMARK    9  A    between atoms: C2_14  and  O2_15 
REMARK   10  A    between atoms: C1_16  and  N9_17 
REMARK   11  A    between atoms: C6_21  and  N6_22 
ROOT
ATOM      1  C4  SAH d   1      41.916  40.028  15.414  0.00  0.00     0.076 C 
ATOM      2  O4  SAH d   1      42.748  39.123  16.183  0.00  0.00    -0.355 OA
ATOM      3  C3  SAH d   1      42.730  40.469  14.207  0.00  0.00     0.090 C 
ATOM      4  C2  SAH d   1      43.837  39.457  14.100  0.00  0.00     0.105 C 
ATOM      5  C1  SAH d   1      44.006  38.922  15.501  0.00  0.00     0.139 C 
ATOM      6  H11 SAH d   1      41.654  40.905  16.025  0.00  0.00     0.088 H 
ATOM      7  H12 SAH d   1      42.113  40.481  13.296  0.00  0.00     0.091 H 
ATOM      8  H14 SAH d   1      43.553  38.647  13.412  0.00  0.00     0.093 H 
ATOM      9  H16 SAH d   1      44.800  39.481  16.018  0.00  0.00     0.122 H 
ENDROOT
BRANCH   1  10
ATOM     10  C5  SAH d   1      40.634  39.323  14.978  0.00  0.00     0.003 C 
ATOM     11  H9  SAH d   1      40.342  39.712  13.991  0.00  0.00     0.052 H 
ATOM     12  H10 SAH d   1      40.839  38.245  14.902  0.00  0.00     0.052 H 
BRANCH  10  13
ATOM     13  SD  SAH d   1      39.256  39.561  16.113  0.00  0.00    -0.166 SA
BRANCH  13  14
ATOM     14  CG  SAH d   1      37.899  38.409  15.775  0.00  0.00    -0.021 C 
ATOM     15  H7  SAH d   1      38.165  37.816  14.888  0.00  0.00     0.049 H 
ATOM     16  H8  SAH d   1      37.790  37.742  16.643  0.00  0.00     0.049 H 
BRANCH  14  17
ATOM     17  CB  SAH d   1      36.550  39.080  15.515  0.00  0.00    -0.021 C 
ATOM     18  H5  SAH d   1      36.294  39.676  16.404  0.00  0.00     0.037 H 
ATOM     19  H6  SAH d   1      36.667  39.747  14.648  0.00  0.00     0.037 H 
BRANCH  17  20
ATOM     20  CA  SAH d   1      35.368  38.132  15.225  0.00  0.00     0.183 C 
ATOM     21  H4  SAH d   1      34.475  38.749  15.044  0.00  0.00     0.101 H 
BRANCH  20  22
ATOM     22  N   SAH d   1      35.098  37.276  16.373  0.00  0.00    -0.065 N 
ATOM     23  H1  SAH d   1      34.931  37.847  17.186  0.00  0.00     0.275 HD
ATOM     24  H2  SAH d   1      35.892  36.677  16.540  0.00  0.00     0.275 HD
ATOM     25  H3  SAH d   1      34.284  36.711  16.187  0.00  0.00     0.275 HD
ENDBRANCH  20  22
BRANCH  20  26
ATOM     26  C   SAH d   1      35.626  37.300  13.970  0.00  0.00     0.204 C 
ATOM     27  O   SAH d   1      35.283  36.099  13.979  0.00  0.00    -0.646 OA
ATOM     28  OXT SAH d   1      36.165  37.849  12.990  0.00  0.00    -0.646 OA
ENDBRANCH  20  26
ENDBRANCH  17  20
ENDBRANCH  14  17
ENDBRANCH  13  14
ENDBRANCH  10  13
ENDBRANCH   1  10
BRANCH   3  29
ATOM     29  O3  SAH d   1      43.289  41.771  14.444  0.00  0.00    -0.390 OA
ATOM     30  H13 SAH d   1      43.853  41.738  15.208  0.00  0.00     0.210 HD
ENDBRANCH   3  29
BRANCH   5  31
ATOM     31  N9  SAH d   1      44.367  37.503  15.474  0.00  0.00    -0.294 N 
ATOM     32  C8  SAH d   1      43.886  36.511  14.692  0.00  0.00     0.071 A 
ATOM     33  N7  SAH d   1      44.397  35.339  14.850  0.00  0.00    -0.236 NA
ATOM     34  H17 SAH d   1      43.101  36.694  13.960  0.00  0.00     0.144 H 
ATOM     35  C5  SAH d   1      45.334  35.560  15.858  0.00  0.00     0.149 A 
ATOM     36  C6  SAH d   1      46.217  34.703  16.525  0.00  0.00     0.155 A 
ATOM     37  C4  SAH d   1      45.324  36.882  16.249  0.00  0.00     0.167 A 
ATOM     38  N1  SAH d   1      46.983  35.243  17.500  0.00  0.00    -0.222 NA
ATOM     39  C2  SAH d   1      46.869  36.546  17.772  0.00  0.00     0.091 A 
ATOM     40  N3  SAH d   1      46.079  37.455  17.211  0.00  0.00    -0.222 NA
ATOM     41  H20 SAH d   1      47.513  36.914  18.563  0.00  0.00     0.146 H 
BRANCH  36  42
ATOM     42  N6  SAH d   1      46.349  33.406  16.209  0.00  0.00    -0.382 N 
ATOM     43  H18 SAH d   1      47.013  32.814  16.729  0.00  0.00     0.157 HD
ATOM     44  H19 SAH d   1      45.787  33.002  15.447  0.00  0.00     0.157 HD
ENDBRANCH  36  42
ENDBRANCH   5  31
BRANCH   4  45
ATOM     45  O2  SAH d   1      45.040  40.068  13.634  0.00  0.00    -0.388 OA
ATOM     46  H15 SAH d   1      45.304  40.748  14.242  0.00  0.00     0.210 HD
ENDBRANCH   4  45
TORSDOF 11
