REMARK  12 active torsions:
REMARK  status: ('A' for Active; 'I' for Inactive)
REMARK    1  A    between atoms: N_1  and  CA_2 
REMARK    2  A    between atoms: CA_2  and  C_3 
REMARK    3  A    between atoms: CA_2  and  CB_6 
REMARK    4  A    between atoms: CB_6  and  CG_7 
REMARK    5  A    between atoms: CG_7  and  CD_8 
REMARK    6  A    between atoms: CD_8  and  NE_9 
REMARK    7  A    between atoms: CD_8  and  C5_10 
REMARK    8  A    between atoms: C5_10  and  C4_11 
REMARK    9  A    between atoms: C3_13  and  O3_14 
REMARK   10  A    between atoms: C2_15  and  O2_16 
REMARK   11  A    between atoms: C1_17  and  N9_18 
REMARK   12  A    between atoms: C6_22  and  N6_23 
ROOT
ATOM      1  C4  SFG d   1      41.029  39.708  15.765  0.00  0.00     0.070 C 
ATOM      2  O4  SFG d   1      41.861  38.716  16.394  0.00  0.00    -0.355 OA
ATOM      3  C3  SFG d   1      41.621  40.039  14.411  0.00  0.00     0.089 C 
ATOM      4  C2  SFG d   1      42.846  39.177  14.277  0.00  0.00     0.105 C 
ATOM      5  C1  SFG d   1      43.103  38.625  15.668  0.00  0.00     0.139 C 
ATOM      6  H15 SFG d   1      41.019  40.615  16.387  0.00  0.00     0.087 H 
ATOM      7  H16 SFG d   1      40.903  39.818  13.608  0.00  0.00     0.091 H 
ATOM      8  H18 SFG d   1      42.662  38.355  13.569  0.00  0.00     0.093 H 
ATOM      9  H20 SFG d   1      43.862  39.243  16.169  0.00  0.00     0.122 H 
ENDROOT
BRANCH   1  10
ATOM     10  C5  SFG d   1      39.611  39.209  15.614  0.00  0.00    -0.012 C 
ATOM     11  H13 SFG d   1      38.996  40.032  15.221  0.00  0.00     0.040 H 
ATOM     12  H14 SFG d   1      39.613  38.377  14.895  0.00  0.00     0.040 H 
BRANCH  10  13
ATOM     13  CD  SFG d   1      38.981  38.718  16.912  0.00  0.00     0.102 C 
ATOM     14  H9  SFG d   1      39.312  37.688  17.111  0.00  0.00     0.084 H 
BRANCH  13  15
ATOM     15  CG  SFG d   1      37.466  38.733  16.704  0.00  0.00    -0.036 C 
ATOM     16  H7  SFG d   1      36.982  38.297  17.590  0.00  0.00     0.036 H 
ATOM     17  H8  SFG d   1      37.135  39.775  16.581  0.00  0.00     0.036 H 
BRANCH  15  18
ATOM     18  CB  SFG d   1      37.050  37.938  15.477  0.00  0.00    -0.027 C 
ATOM     19  H5  SFG d   1      37.394  38.488  14.589  0.00  0.00     0.036 H 
ATOM     20  H6  SFG d   1      37.555  36.962  15.523  0.00  0.00     0.036 H 
BRANCH  18  21
ATOM     21  CA  SFG d   1      35.549  37.680  15.314  0.00  0.00     0.182 C 
ATOM     22  H4  SFG d   1      35.017  38.642  15.298  0.00  0.00     0.101 H 
BRANCH  21  23
ATOM     23  N   SFG d   1      35.035  36.870  16.413  0.00  0.00    -0.065 N 
ATOM     24  H1  SFG d   1      35.187  37.352  17.285  0.00  0.00     0.275 HD
ATOM     25  H2  SFG d   1      35.515  35.984  16.431  0.00  0.00     0.275 HD
ATOM     26  H3  SFG d   1      34.048  36.715  16.283  0.00  0.00     0.275 HD
ENDBRANCH  21  23
BRANCH  21  27
ATOM     27  C   SFG d   1      35.318  36.949  13.997  0.00  0.00     0.204 C 
ATOM     28  O   SFG d   1      35.506  35.716  13.970  0.00  0.00    -0.646 OA
ATOM     29  OXT SFG d   1      34.958  37.616  13.010  0.00  0.00    -0.646 OA
ENDBRANCH  21  27
ENDBRANCH  18  21
ENDBRANCH  15  18
ENDBRANCH  13  15
BRANCH  13  30
ATOM     30  NE  SFG d   1      39.378  39.575  18.071  0.00  0.00    -0.075 N 
ATOM     31  H10 SFG d   1      40.379  39.545  18.183  0.00  0.00     0.274 HD
ATOM     32  H11 SFG d   1      38.936  39.232  18.909  0.00  0.00     0.274 HD
ATOM     33  H12 SFG d   1      39.087  40.525  17.902  0.00  0.00     0.274 HD
ENDBRANCH  13  30
ENDBRANCH  10  13
ENDBRANCH   1  10
BRANCH   3  34
ATOM     34  O3  SFG d   1      41.983  41.418  14.370  0.00  0.00    -0.390 OA
ATOM     35  H17 SFG d   1      42.354  41.622  13.520  0.00  0.00     0.210 HD
ENDBRANCH   3  34
BRANCH   5  36
ATOM     36  N9  SFG d   1      43.599  37.227  15.611  0.00  0.00    -0.294 N 
ATOM     37  C8  SFG d   1      43.218  36.203  14.802  0.00  0.00     0.071 A 
ATOM     38  N7  SFG d   1      43.845  35.077  14.942  0.00  0.00    -0.236 NA
ATOM     39  H21 SFG d   1      42.422  36.323  14.069  0.00  0.00     0.144 H 
ATOM     40  C5  SFG d   1      44.758  35.367  15.971  0.00  0.00     0.149 A 
ATOM     41  C6  SFG d   1      45.623  34.553  16.729  0.00  0.00     0.155 A 
ATOM     42  C4  SFG d   1      44.617  36.682  16.384  0.00  0.00     0.167 A 
ATOM     43  N1  SFG d   1      46.251  35.120  17.782  0.00  0.00    -0.222 NA
ATOM     44  C2  SFG d   1      46.025  36.404  18.060  0.00  0.00     0.091 A 
ATOM     45  N3  SFG d   1      45.236  37.272  17.435  0.00  0.00    -0.222 NA
ATOM     46  H24 SFG d   1      46.561  36.796  18.917  0.00  0.00     0.146 H 
BRANCH  41  47
ATOM     47  N6  SFG d   1      45.810  33.260  16.474  0.00  0.00    -0.382 N 
ATOM     48  H22 SFG d   1      46.454  32.708  17.058  0.00  0.00     0.157 HD
ATOM     49  H23 SFG d   1      45.311  32.812  15.692  0.00  0.00     0.157 HD
ENDBRANCH  41  47
ENDBRANCH   5  36
BRANCH   4  50
ATOM     50  O2  SFG d   1      43.953  39.959  13.816  0.00  0.00    -0.388 OA
ATOM     51  H19 SFG d   1      44.129  40.655  14.438  0.00  0.00     0.210 HD
ENDBRANCH   4  50
TORSDOF 12
