REMARK  21 active torsions:
REMARK  status: ('A' for Active; 'I' for Inactive)
REMARK    1  A    between atoms: O4_25  and  C1_1 
REMARK    2  A    between atoms: C2_2  and  N2_9 
REMARK    3  A    between atoms: C3_3  and  O3_10 
REMARK    4  A    between atoms: C4_4  and  O4_11 
REMARK    5  A    between atoms: C5_5  and  C6_6 
REMARK    6  A    between atoms: C6_6  and  O6_13 
REMARK    7  A    between atoms: C7_7  and  C8_8 
REMARK       I    between atoms: N2_9  and  C7_7 
REMARK    8  A    between atoms: O4_40  and  C1_15 
REMARK    9  A    between atoms: C2_16  and  N2_23 
REMARK   10  A    between atoms: C3_17  and  O3_24 
REMARK   11  A    between atoms: C4_18  and  O4_25 
REMARK   12  A    between atoms: C5_19  and  C6_20 
REMARK   13  A    between atoms: C6_20  and  O6_27 
REMARK   14  A    between atoms: C7_21  and  C8_22 
REMARK       I    between atoms: N2_23  and  C7_21 
REMARK   15  A    between atoms: C1_29  and  O1_38 
REMARK   16  A    between atoms: N2_37  and  C2_30 
REMARK   17  A    between atoms: C3_31  and  O3_39 
REMARK   18  A    between atoms: C4_32  and  O4_40 
REMARK   19  A    between atoms: C5_33  and  C6_34 
REMARK   20  A    between atoms: C6_34  and  O6_42 
REMARK   21  A    between atoms: C7_35  and  C8_36 
REMARK       I    between atoms: C7_35  and  N2_37 
ROOT
ATOM      1  C1  MOL d   1       4.269  26.144  31.534  0.00  0.00     0.154 C 
ATOM      2  C2  MOL d   1       4.087  27.493  32.230  0.00  0.00     0.087 C 
ATOM      3  C3  MOL d   1       3.650  27.355  33.672  0.00  0.00     0.087 C 
ATOM      4  C4  MOL d   1       2.475  26.407  33.780  0.00  0.00     0.095 C 
ATOM      5  C5  MOL d   1       2.790  25.084  33.097  0.00  0.00     0.089 C 
ATOM      6  O5  MOL d   1       3.120  25.307  31.714  0.00  0.00    -0.349 OA
ATOM      7  H15 MOL d   1       5.166  25.640  31.922  0.00  0.00     0.132 H 
ATOM      8  H16 MOL d   1       3.317  28.059  31.686  0.00  0.00     0.084 H 
ATOM      9  H17 MOL d   1       4.485  26.975  34.279  0.00  0.00     0.090 H 
ATOM     10  H18 MOL d   1       1.602  26.863  33.289  0.00  0.00     0.091 H 
ATOM     11  H19 MOL d   1       3.642  24.614  33.610  0.00  0.00     0.090 H 
ENDROOT
BRANCH   1  12
ATOM     12  O4  MOL d   1       4.392  26.386  30.176  0.00  0.00    -0.348 OA
BRANCH  12  13
ATOM     13  C4  MOL d   1       4.978  25.373  29.348  0.00  0.00     0.095 C 
ATOM     14  C3  MOL d   1       3.968  24.950  28.264  0.00  0.00     0.087 C 
ATOM     15  C2  MOL d   1       4.630  24.104  27.164  0.00  0.00     0.086 C 
ATOM     16  H30 MOL d   1       3.533  25.852  27.809  0.00  0.00     0.090 H 
ATOM     17  C1  MOL d   1       5.926  24.759  26.689  0.00  0.00     0.151 C 
ATOM     18  H29 MOL d   1       4.861  23.111  27.576  0.00  0.00     0.084 H 
ATOM     19  O5  MOL d   1       6.789  24.990  27.797  0.00  0.00    -0.349 OA
ATOM     20  H28 MOL d   1       5.698  25.710  26.185  0.00  0.00     0.132 H 
ATOM     21  C5  MOL d   1       6.235  25.946  28.718  0.00  0.00     0.089 C 
ATOM     22  H32 MOL d   1       5.959  26.861  28.173  0.00  0.00     0.090 H 
ATOM     23  H31 MOL d   1       5.240  24.498  29.960  0.00  0.00     0.091 H 
BRANCH  14  24
ATOM     24  O3  MOL d   1       2.946  24.185  28.872  0.00  0.00    -0.391 OA
ATOM     25  H40 MOL d   1       2.510  24.710  29.533  0.00  0.00     0.210 HD
ENDBRANCH  14  24
BRANCH  15  26
ATOM     26  N2  MOL d   1       3.737  23.947  26.023  0.00  0.00    -0.349 N 
ATOM     27  C7  MOL d   1       3.469  22.738  25.534  0.00  0.00     0.214 C 
ATOM     28  O7  MOL d   1       3.882  21.697  26.051  0.00  0.00    -0.274 OA
ATOM     29  H38 MOL d   1       3.322  24.754  25.604  0.00  0.00     0.163 HD
BRANCH  27  30
ATOM     30  C8  MOL d   1       2.550  22.676  24.325  0.00  0.00    -0.003 C 
ATOM     31  H35 MOL d   1       2.411  21.627  24.023  0.00  0.00     0.040 H 
ATOM     32  H36 MOL d   1       2.999  23.240  23.494  0.00  0.00     0.040 H 
ATOM     33  H37 MOL d   1       1.575  23.116  24.582  0.00  0.00     0.040 H 
ENDBRANCH  27  30
ENDBRANCH  15  26
BRANCH  17  34
ATOM     34  O1  MOL d   1       6.580  23.901  25.817  0.00  0.00    -0.369 OA
ATOM     35  H39 MOL d   1       7.390  24.303  25.527  0.00  0.00     0.212 HD
ENDBRANCH  17  34
BRANCH  21  36
ATOM     36  C6  MOL d   1       7.322  26.293  29.727  0.00  0.00     0.043 C 
ATOM     37  H33 MOL d   1       6.874  26.863  30.554  0.00  0.00     0.078 H 
ATOM     38  H34 MOL d   1       8.088  26.907  29.231  0.00  0.00     0.078 H 
BRANCH  36  39
ATOM     39  O6  MOL d   1       7.936  25.122  30.251  0.00  0.00    -0.398 OA
ATOM     40  H41 MOL d   1       8.329  24.627  29.542  0.00  0.00     0.209 HD
ENDBRANCH  36  39
ENDBRANCH  21  36
ENDBRANCH  12  13
ENDBRANCH   1  12
BRANCH   2  41
ATOM     41  N2  MOL d   1       5.334  28.235  32.196  0.00  0.00    -0.349 N 
ATOM     42  C7  MOL d   1       5.503  29.231  31.331  0.00  0.00     0.214 C 
ATOM     43  O7  MOL d   1       4.630  29.578  30.535  0.00  0.00    -0.274 OA
ATOM     44  H25 MOL d   1       6.071  27.996  32.828  0.00  0.00     0.163 HD
BRANCH  42  45
ATOM     45  C8  MOL d   1       6.841  29.961  31.353  0.00  0.00    -0.003 C 
ATOM     46  H22 MOL d   1       6.839  30.754  30.590  0.00  0.00     0.040 H 
ATOM     47  H23 MOL d   1       7.651  29.248  31.139  0.00  0.00     0.040 H 
ATOM     48  H24 MOL d   1       6.999  30.408  32.346  0.00  0.00     0.040 H 
ENDBRANCH  42  45
ENDBRANCH   2  41
BRANCH   3  49
ATOM     49  O3  MOL d   1       3.261  28.634  34.133  0.00  0.00    -0.391 OA
ATOM     50  H26 MOL d   1       2.984  28.572  35.039  0.00  0.00     0.210 HD
ENDBRANCH   3  49
BRANCH   5  51
ATOM     51  C6  MOL d   1       1.600  24.139  33.128  0.00  0.00     0.043 C 
ATOM     52  H20 MOL d   1       1.363  23.893  34.174  0.00  0.00     0.078 H 
ATOM     53  H21 MOL d   1       1.857  23.218  32.584  0.00  0.00     0.078 H 
BRANCH  51  54
ATOM     54  O6  MOL d   1       0.460  24.736  32.520  0.00  0.00    -0.398 OA
ATOM     55  H27 MOL d   1       0.659  24.947  31.615  0.00  0.00     0.209 HD
ENDBRANCH  51  54
ENDBRANCH   5  51
BRANCH   4  56
ATOM     56  O4  MOL d   1       2.168  26.177  35.169  0.00  0.00    -0.348 OA
BRANCH  56  57
ATOM     57  C1  MOL d   1       0.926  26.622  35.590  0.00  0.00     0.154 C 
ATOM     58  C2  MOL d   1       0.633  26.132  37.011  0.00  0.00     0.087 C 
ATOM     59  C3  MOL d   1      -0.730  26.686  37.441  0.00  0.00     0.086 C 
ATOM     60  H2  MOL d   1       1.411  26.504  37.694  0.00  0.00     0.084 H 
ATOM     61  C4  MOL d   1      -0.686  28.219  37.370  0.00  0.00     0.089 C 
ATOM     62  H3  MOL d   1      -1.500  26.319  36.747  0.00  0.00     0.090 H 
ATOM     63  C5  MOL d   1      -0.346  28.619  35.925  0.00  0.00     0.089 C 
ATOM     64  H4  MOL d   1       0.092  28.597  38.050  0.00  0.00     0.091 H 
ATOM     65  O5  MOL d   1       0.930  28.056  35.542  0.00  0.00    -0.349 OA
ATOM     66  H5  MOL d   1      -1.129  28.201  35.275  0.00  0.00     0.090 H 
ATOM     67  H1  MOL d   1       0.150  26.236  34.913  0.00  0.00     0.132 H 
BRANCH  58  68
ATOM     68  N2  MOL d   1       0.625  24.680  37.049  0.00  0.00    -0.349 N 
ATOM     69  C7  MOL d   1       1.670  24.001  37.525  0.00  0.00     0.214 C 
ATOM     70  O7  MOL d   1       2.699  24.542  37.931  0.00  0.00    -0.274 OA
ATOM     71  H11 MOL d   1      -0.175  24.182  36.714  0.00  0.00     0.163 HD
BRANCH  69  72
ATOM     72  C8  MOL d   1       1.560  22.483  37.532  0.00  0.00    -0.003 C 
ATOM     73  H8  MOL d   1       2.483  22.050  37.946  0.00  0.00     0.040 H 
ATOM     74  H9  MOL d   1       1.415  22.121  36.503  0.00  0.00     0.040 H 
ATOM     75  H10 MOL d   1       0.703  22.180  38.151  0.00  0.00     0.040 H 
ENDBRANCH  69  72
ENDBRANCH  58  68
BRANCH  59  76
ATOM     76  O3  MOL d   1      -1.059  26.249  38.753  0.00  0.00    -0.391 OA
ATOM     77  H12 MOL d   1      -1.911  26.591  38.995  0.00  0.00     0.210 HD
ENDBRANCH  59  76
BRANCH  61  78
ATOM     78  O4  MOL d   1      -1.945  28.770  37.750  0.00  0.00    -0.390 OA
ATOM     79  H13 MOL d   1      -2.144  28.516  38.644  0.00  0.00     0.210 HD
ENDBRANCH  61  78
BRANCH  63  80
ATOM     80  C6  MOL d   1      -0.280  30.111  35.672  0.00  0.00     0.043 C 
ATOM     81  H6  MOL d   1       0.670  30.503  36.065  0.00  0.00     0.078 H 
ATOM     82  H7  MOL d   1      -1.120  30.602  36.185  0.00  0.00     0.078 H 
BRANCH  80  83
ATOM     83  O6  MOL d   1      -0.358  30.387  34.279  0.00  0.00    -0.398 OA
ATOM     84  H14 MOL d   1      -0.315  31.326  34.140  0.00  0.00     0.209 HD
ENDBRANCH  80  83
ENDBRANCH  63  80
ENDBRANCH  56  57
ENDBRANCH   4  56
TORSDOF 21
