REMARK  21 active torsions:
REMARK  status: ('A' for Active; 'I' for Inactive)
REMARK    1  A    between atoms: O4_25  and  C1_1 
REMARK    2  A    between atoms: C2_2  and  N2_9 
REMARK    3  A    between atoms: C3_3  and  O3_10 
REMARK    4  A    between atoms: C4_4  and  O4_11 
REMARK    5  A    between atoms: C5_5  and  C6_6 
REMARK    6  A    between atoms: C6_6  and  O6_13 
REMARK    7  A    between atoms: C7_7  and  C8_8 
REMARK       I    between atoms: N2_9  and  C7_7 
REMARK    8  A    between atoms: O4_40  and  C1_15 
REMARK    9  A    between atoms: C2_16  and  N2_23 
REMARK   10  A    between atoms: C3_17  and  O3_24 
REMARK   11  A    between atoms: C4_18  and  O4_25 
REMARK   12  A    between atoms: C5_19  and  C6_20 
REMARK   13  A    between atoms: C6_20  and  O6_27 
REMARK   14  A    between atoms: C7_21  and  C8_22 
REMARK       I    between atoms: N2_23  and  C7_21 
REMARK   15  A    between atoms: C1_29  and  O1_38 
REMARK   16  A    between atoms: N2_37  and  C2_30 
REMARK   17  A    between atoms: C3_31  and  O3_39 
REMARK   18  A    between atoms: C4_32  and  O4_40 
REMARK   19  A    between atoms: C5_33  and  C6_34 
REMARK   20  A    between atoms: C6_34  and  O6_42 
REMARK   21  A    between atoms: C7_35  and  C8_36 
REMARK       I    between atoms: C7_35  and  N2_37 
ROOT
ATOM      1  C1  MOL d   1       4.108  24.880  31.466  0.00  0.00     0.154 C 
ATOM      2  C2  MOL d   1       4.038  26.245  32.173  0.00  0.00     0.087 C 
ATOM      3  C3  MOL d   1       3.571  26.141  33.618  0.00  0.00     0.087 C 
ATOM      4  C4  MOL d   1       2.276  25.329  33.664  0.00  0.00     0.095 C 
ATOM      5  C5  MOL d   1       2.557  23.968  33.042  0.00  0.00     0.089 C 
ATOM      6  O5  MOL d   1       2.892  24.138  31.650  0.00  0.00    -0.349 OA
ATOM      7  H15 MOL d   1       4.964  24.303  31.846  0.00  0.00     0.132 H 
ATOM      8  H16 MOL d   1       3.322  26.875  31.625  0.00  0.00     0.084 H 
ATOM      9  H17 MOL d   1       4.339  25.637  34.223  0.00  0.00     0.090 H 
ATOM     10  H18 MOL d   1       1.501  25.849  33.081  0.00  0.00     0.091 H 
ATOM     11  H19 MOL d   1       3.415  23.524  33.569  0.00  0.00     0.090 H 
ENDROOT
BRANCH   1  12
ATOM     12  O4  MOL d   1       4.238  25.117  30.108  0.00  0.00    -0.348 OA
BRANCH  12  13
ATOM     13  C4  MOL d   1       4.673  24.051  29.256  0.00  0.00     0.095 C 
ATOM     14  C3  MOL d   1       3.621  23.825  28.164  0.00  0.00     0.087 C 
ATOM     15  C2  MOL d   1       4.156  22.903  27.068  0.00  0.00     0.086 C 
ATOM     16  H30 MOL d   1       3.358  24.795  27.717  0.00  0.00     0.090 H 
ATOM     17  C1  MOL d   1       5.509  23.415  26.582  0.00  0.00     0.151 C 
ATOM     18  H29 MOL d   1       4.274  21.889  27.477  0.00  0.00     0.084 H 
ATOM     19  O5  MOL d   1       6.418  23.475  27.678  0.00  0.00    -0.349 OA
ATOM     20  H28 MOL d   1       5.389  24.412  26.134  0.00  0.00     0.132 H 
ATOM     21  C5  MOL d   1       6.012  24.450  28.650  0.00  0.00     0.089 C 
ATOM     22  H32 MOL d   1       5.878  25.421  28.151  0.00  0.00     0.090 H 
ATOM     23  H31 MOL d   1       4.795  23.128  29.842  0.00  0.00     0.091 H 
BRANCH  14  24
ATOM     24  O3  MOL d   1       2.459  23.245  28.742  0.00  0.00    -0.391 OA
ATOM     25  H40 MOL d   1       2.110  23.831  29.404  0.00  0.00     0.210 HD
ENDBRANCH  14  24
BRANCH  15  26
ATOM     26  N2  MOL d   1       3.236  22.861  25.942  0.00  0.00    -0.349 N 
ATOM     27  C7  MOL d   1       2.739  21.709  25.505  0.00  0.00     0.214 C 
ATOM     28  O7  MOL d   1       2.958  20.622  26.056  0.00  0.00    -0.274 OA
ATOM     29  H38 MOL d   1       2.973  23.713  25.489  0.00  0.00     0.163 HD
BRANCH  27  30
ATOM     30  C8  MOL d   1       1.814  21.780  24.313  0.00  0.00    -0.003 C 
ATOM     31  H35 MOL d   1       1.474  20.767  24.052  0.00  0.00     0.040 H 
ATOM     32  H36 MOL d   1       2.350  22.218  23.458  0.00  0.00     0.040 H 
ATOM     33  H37 MOL d   1       0.944  22.407  24.561  0.00  0.00     0.040 H 
ENDBRANCH  27  30
ENDBRANCH  15  26
BRANCH  17  34
ATOM     34  O1  MOL d   1       6.035  22.534  25.651  0.00  0.00    -0.369 OA
ATOM     35  H39 MOL d   1       6.883  22.849  25.362  0.00  0.00     0.212 HD
ENDBRANCH  17  34
BRANCH  21  36
ATOM     36  C6  MOL d   1       7.145  24.588  29.668  0.00  0.00     0.043 C 
ATOM     37  H33 MOL d   1       6.906  25.410  30.359  0.00  0.00     0.078 H 
ATOM     38  H34 MOL d   1       8.079  24.818  29.134  0.00  0.00     0.078 H 
BRANCH  36  39
ATOM     39  O6  MOL d   1       7.324  23.391  30.418  0.00  0.00    -0.398 OA
ATOM     40  H41 MOL d   1       7.536  22.677  29.828  0.00  0.00     0.209 HD
ENDBRANCH  36  39
ENDBRANCH  21  36
ENDBRANCH  12  13
ENDBRANCH   1  12
BRANCH   2  41
ATOM     41  N2  MOL d   1       5.341  26.887  32.148  0.00  0.00    -0.349 N 
ATOM     42  C7  MOL d   1       5.592  27.874  31.291  0.00  0.00     0.214 C 
ATOM     43  O7  MOL d   1       4.763  28.275  30.473  0.00  0.00    -0.274 OA
ATOM     44  H25 MOL d   1       6.055  26.585  32.780  0.00  0.00     0.163 HD
BRANCH  42  45
ATOM     45  C8  MOL d   1       6.976  28.505  31.324  0.00  0.00    -0.003 C 
ATOM     46  H22 MOL d   1       7.035  29.300  30.566  0.00  0.00     0.040 H 
ATOM     47  H23 MOL d   1       7.734  27.737  31.110  0.00  0.00     0.040 H 
ATOM     48  H24 MOL d   1       7.160  28.934  32.320  0.00  0.00     0.040 H 
ENDBRANCH  42  45
ENDBRANCH   2  41
BRANCH   3  49
ATOM     49  O3  MOL d   1       3.363  27.455  34.117  0.00  0.00    -0.391 OA
ATOM     50  H26 MOL d   1       2.708  27.894  33.587  0.00  0.00     0.210 HD
ENDBRANCH   3  49
BRANCH   5  51
ATOM     51  C6  MOL d   1       1.387  22.995  33.130  0.00  0.00     0.043 C 
ATOM     52  H20 MOL d   1       1.208  22.746  34.186  0.00  0.00     0.078 H 
ATOM     53  H21 MOL d   1       1.641  22.080  32.575  0.00  0.00     0.078 H 
BRANCH  51  54
ATOM     54  O6  MOL d   1       0.204  23.554  32.581  0.00  0.00    -0.398 OA
ATOM     55  H27 MOL d   1       0.350  23.767  31.667  0.00  0.00     0.209 HD
ENDBRANCH  51  54
ENDBRANCH   5  51
BRANCH   4  56
ATOM     56  O4  MOL d   1       1.805  25.158  35.021  0.00  0.00    -0.348 OA
BRANCH  56  57
ATOM     57  C1  MOL d   1       0.503  25.586  35.266  0.00  0.00     0.154 C 
ATOM     58  C2  MOL d   1      -0.020  25.010  36.592  0.00  0.00     0.087 C 
ATOM     59  C3  MOL d   1      -1.407  25.588  36.875  0.00  0.00     0.086 C 
ATOM     60  H2  MOL d   1       0.670  25.286  37.403  0.00  0.00     0.084 H 
ATOM     61  C4  MOL d   1      -1.379  27.116  36.846  0.00  0.00     0.089 C 
ATOM     62  H3  MOL d   1      -2.097  25.236  36.094  0.00  0.00     0.090 H 
ATOM     63  C5  MOL d   1      -0.800  27.587  35.519  0.00  0.00     0.089 C 
ATOM     64  H4  MOL d   1      -0.757  27.490  37.673  0.00  0.00     0.091 H 
ATOM     65  O5  MOL d   1       0.518  27.023  35.322  0.00  0.00    -0.349 OA
ATOM     66  H5  MOL d   1      -1.465  27.244  34.713  0.00  0.00     0.090 H 
ATOM     67  H1  MOL d   1      -0.153  25.255  34.447  0.00  0.00     0.132 H 
BRANCH  58  68
ATOM     68  N2  MOL d   1      -0.131  23.561  36.526  0.00  0.00    -0.349 N 
ATOM     69  C7  MOL d   1       0.544  22.787  37.373  0.00  0.00     0.214 C 
ATOM     70  O7  MOL d   1       1.354  23.228  38.190  0.00  0.00    -0.274 OA
ATOM     71  H11 MOL d   1      -0.721  23.142  35.836  0.00  0.00     0.163 HD
BRANCH  69  72
ATOM     72  C8  MOL d   1       0.340  21.290  37.249  0.00  0.00    -0.003 C 
ATOM     73  H8  MOL d   1       0.952  20.773  38.003  0.00  0.00     0.040 H 
ATOM     74  H9  MOL d   1       0.641  20.961  36.244  0.00  0.00     0.040 H 
ATOM     75  H10 MOL d   1      -0.721  21.050  37.411  0.00  0.00     0.040 H 
ENDBRANCH  69  72
ENDBRANCH  58  68
BRANCH  59  76
ATOM     76  O3  MOL d   1      -1.881  25.137  38.136  0.00  0.00    -0.391 OA
ATOM     77  H12 MOL d   1      -2.759  25.470  38.281  0.00  0.00     0.210 HD
ENDBRANCH  59  76
BRANCH  61  78
ATOM     78  O4  MOL d   1      -2.704  27.607  36.986  0.00  0.00    -0.390 OA
ATOM     79  H13 MOL d   1      -3.064  27.312  37.814  0.00  0.00     0.210 HD
ENDBRANCH  61  78
BRANCH  63  80
ATOM     80  C6  MOL d   1      -0.671  29.102  35.433  0.00  0.00     0.043 C 
ATOM     81  H6  MOL d   1       0.255  29.414  35.938  0.00  0.00     0.078 H 
ATOM     82  H7  MOL d   1      -1.535  29.566  35.932  0.00  0.00     0.078 H 
BRANCH  80  83
ATOM     83  O6  MOL d   1      -0.630  29.530  34.078  0.00  0.00    -0.398 OA
ATOM     84  H14 MOL d   1       0.117  29.134  33.644  0.00  0.00     0.209 HD
ENDBRANCH  80  83
ENDBRANCH  63  80
ENDBRANCH  56  57
ENDBRANCH   4  56
TORSDOF 21
