REMARK  23 active torsions:
REMARK  status: ('A' for Active; 'I' for Inactive)
REMARK    1  A    between atoms: C7_7  and  C4_4 
REMARK    2  A    between atoms: O8_8  and  C7_7 
REMARK    3  A    between atoms: C9_9  and  O8_8 
REMARK       I    between atoms: N20_20  and  C9_9 
REMARK    4  A    between atoms: C11_11  and  C12_12 
REMARK    5  A    between atoms: C16_16  and  C11_11 
REMARK    6  A    between atoms: C11_11  and  N20_20 
REMARK    7  A    between atoms: C12_12  and  C13_13 
REMARK    8  A    between atoms: C13_13  and  C14_14 
REMARK    9  A    between atoms: C13_13  and  C15_15 
REMARK       I    between atoms: N18_18  and  C16_16 
REMARK   10  A    between atoms: C19_19  and  N18_18 
REMARK   11  A    between atoms: C21_21  and  C19_19 
REMARK   12  A    between atoms: C21_21  and  O22_22 
REMARK   13  A    between atoms: C41_41  and  C21_21 
REMARK   14  A    between atoms: C29_29  and  C26_26 
REMARK   15  A    between atoms: O30_30  and  C29_29 
REMARK   16  A    between atoms: C31_31  and  O30_30 
REMARK       I    between atoms: N42_42  and  C31_31 
REMARK   17  A    between atoms: C33_33  and  C34_34 
REMARK   18  A    between atoms: C38_38  and  C33_33 
REMARK   19  A    between atoms: C33_33  and  N42_42 
REMARK   20  A    between atoms: C34_34  and  C35_35 
REMARK   21  A    between atoms: C35_35  and  C36_36 
REMARK   22  A    between atoms: C35_35  and  C37_37 
REMARK       I    between atoms: N40_40  and  C38_38 
REMARK   23  A    between atoms: N40_40  and  C41_41 
ROOT
ATOM      1  C21 SDK d   1       8.486  39.168  69.595  0.00  0.00     0.066 C 
ATOM      2  H22 SDK d   1       8.022  38.449  70.286  0.00  0.00     0.087 H 
ENDROOT
BRANCH   1   3
ATOM      3  C19 SDK d   1       9.204  38.394  68.511  0.00  0.00     0.021 C 
ATOM      4  H19 SDK d   1      10.120  38.942  68.244  0.00  0.00     0.068 H 
ATOM      5  H20 SDK d   1       9.472  37.406  68.912  0.00  0.00     0.068 H 
BRANCH   3   6
ATOM      6  N18 SDK d   1       8.410  38.196  67.287  0.00  0.00    -0.357 N 
ATOM      7  C16 SDK d   1       8.102  36.995  66.795  0.00  0.00     0.240 C 
ATOM      8  O17 SDK d   1       8.474  35.956  67.354  0.00  0.00    -0.271 OA
ATOM      9  H18 SDK d   1       8.084  39.005  66.798  0.00  0.00     0.162 HD
BRANCH   7  10
ATOM     10  C11 SDK d   1       7.300  36.903  65.495  0.00  0.00     0.091 C 
ATOM     11  H8  SDK d   1       7.050  35.834  65.422  0.00  0.00     0.087 H 
BRANCH  10  12
ATOM     12  C12 SDK d   1       8.225  37.188  64.304  0.00  0.00    -0.035 C 
ATOM     13  H9  SDK d   1       9.248  37.284  64.697  0.00  0.00     0.037 H 
ATOM     14  H10 SDK d   1       7.910  38.145  63.864  0.00  0.00     0.037 H 
BRANCH  12  15
ATOM     15  C13 SDK d   1       8.263  36.155  63.175  0.00  0.00    -0.059 C 
ATOM     16  H11 SDK d   1       7.427  36.363  62.491  0.00  0.00     0.038 H 
BRANCH  15  17
ATOM     17  C14 SDK d   1       9.565  36.310  62.407  0.00  0.00    -0.073 C 
ATOM     18  H12 SDK d   1       9.601  35.571  61.593  0.00  0.00     0.028 H 
ATOM     19  H13 SDK d   1      10.414  36.147  63.087  0.00  0.00     0.028 H 
ATOM     20  H14 SDK d   1       9.623  37.324  61.984  0.00  0.00     0.028 H 
ENDBRANCH  15  17
BRANCH  15  21
ATOM     21  C15 SDK d   1       8.100  34.713  63.693  0.00  0.00    -0.073 C 
ATOM     22  H15 SDK d   1       7.152  34.626  64.244  0.00  0.00     0.028 H 
ATOM     23  H16 SDK d   1       8.937  34.467  64.363  0.00  0.00     0.028 H 
ATOM     24  H17 SDK d   1       8.094  34.016  62.842  0.00  0.00     0.028 H 
ENDBRANCH  15  21
ENDBRANCH  12  15
ENDBRANCH  10  12
BRANCH  10  25
ATOM     25  N20 SDK d   1       5.986  37.562  65.351  0.00  0.00    -0.324 N 
ATOM     26  C9  SDK d   1       5.752  38.656  64.619  0.00  0.00     0.361 C 
ATOM     27  O10 SDK d   1       6.619  39.264  63.982  0.00  0.00    -0.238 OA
ATOM     28  H21 SDK d   1       5.212  37.159  65.839  0.00  0.00     0.165 HD
BRANCH  26  29
ATOM     29  O8  SDK d   1       4.415  39.079  64.586  0.00  0.00    -0.299 OA
BRANCH  29  30
ATOM     30  C7  SDK d   1       3.829  39.195  63.276  0.00  0.00     0.054 C 
ATOM     31  H6  SDK d   1       3.652  40.262  63.076  0.00  0.00     0.082 H 
ATOM     32  H7  SDK d   1       4.549  38.799  62.545  0.00  0.00     0.082 H 
BRANCH  30  33
ATOM     33  C4  SDK d   1       2.525  38.463  63.090  0.00  0.00    -0.034 A 
ATOM     34  C3  SDK d   1       1.373  38.894  63.736  0.00  0.00    -0.075 A 
ATOM     35  C2  SDK d   1       0.177  38.189  63.596  0.00  0.00    -0.082 A 
ATOM     36  H3  SDK d   1       1.403  39.785  64.353  0.00  0.00     0.084 H 
ATOM     37  C1  SDK d   1       0.130  37.037  62.798  0.00  0.00    -0.083 A 
ATOM     38  H2  SDK d   1      -0.717  38.532  64.105  0.00  0.00     0.083 H 
ATOM     39  C6  SDK d   1       1.274  36.603  62.148  0.00  0.00    -0.082 A 
ATOM     40  H1  SDK d   1      -0.798  36.488  62.690  0.00  0.00     0.083 H 
ATOM     41  C5  SDK d   1       2.463  37.317  62.295  0.00  0.00    -0.075 A 
ATOM     42  H5  SDK d   1       1.245  35.714  61.529  0.00  0.00     0.083 H 
ATOM     43  H4  SDK d   1       3.355  36.976  61.783  0.00  0.00     0.084 H 
ENDBRANCH  30  33
ENDBRANCH  29  30
ENDBRANCH  26  29
ENDBRANCH  10  25
ENDBRANCH   7  10
ENDBRANCH   3   6
ENDBRANCH   1   3
BRANCH   1  44
ATOM     44  O22 SDK d   1       7.604  39.863  69.099  0.00  0.00    -0.392 OA
ATOM     45  H23 SDK d   1       7.159  40.345  69.786  0.00  0.00     0.210 HD
ENDBRANCH   1  44
BRANCH   1  46
ATOM     46  C41 SDK d   1       9.430  40.021  70.368  0.00  0.00     0.021 C 
ATOM     47  H42 SDK d   1       8.885  40.521  71.182  0.00  0.00     0.068 H 
ATOM     48  H43 SDK d   1       9.866  40.778  69.700  0.00  0.00     0.068 H 
BRANCH  46  49
ATOM     49  N40 SDK d   1      10.502  39.203  70.936  0.00  0.00    -0.357 N 
ATOM     50  C38 SDK d   1      11.771  39.592  71.035  0.00  0.00     0.240 C 
ATOM     51  O39 SDK d   1      12.168  40.691  70.663  0.00  0.00    -0.271 OA
ATOM     52  H41 SDK d   1      10.265  38.291  71.272  0.00  0.00     0.162 HD
BRANCH  50  53
ATOM     53  C33 SDK d   1      12.740  38.598  71.650  0.00  0.00     0.091 C 
ATOM     54  H31 SDK d   1      12.425  37.584  71.363  0.00  0.00     0.087 H 
BRANCH  53  55
ATOM     55  C34 SDK d   1      12.676  38.712  73.171  0.00  0.00    -0.035 C 
ATOM     56  H32 SDK d   1      11.696  39.140  73.430  0.00  0.00     0.037 H 
ATOM     57  H33 SDK d   1      13.472  39.403  73.485  0.00  0.00     0.037 H 
BRANCH  55  58
ATOM     58  C35 SDK d   1      12.841  37.432  73.970  0.00  0.00    -0.059 C 
ATOM     59  H34 SDK d   1      12.141  37.434  74.818  0.00  0.00     0.038 H 
BRANCH  58  60
ATOM     60  C36 SDK d   1      12.557  36.209  73.097  0.00  0.00    -0.073 C 
ATOM     61  H35 SDK d   1      12.682  35.294  73.695  0.00  0.00     0.028 H 
ATOM     62  H36 SDK d   1      13.259  36.192  72.250  0.00  0.00     0.028 H 
ATOM     63  H37 SDK d   1      11.526  36.261  72.718  0.00  0.00     0.028 H 
ENDBRANCH  58  60
BRANCH  58  64
ATOM     64  C37 SDK d   1      14.256  37.403  74.485  0.00  0.00    -0.073 C 
ATOM     65  H38 SDK d   1      14.437  38.291  75.109  0.00  0.00     0.028 H 
ATOM     66  H39 SDK d   1      14.955  37.403  73.636  0.00  0.00     0.028 H 
ATOM     67  H40 SDK d   1      14.409  36.495  75.086  0.00  0.00     0.028 H 
ENDBRANCH  58  64
ENDBRANCH  55  58
ENDBRANCH  53  55
BRANCH  53  68
ATOM     68  N42 SDK d   1      14.107  38.804  71.159  0.00  0.00    -0.324 N 
ATOM     69  C31 SDK d   1      14.829  37.780  70.706  0.00  0.00     0.361 C 
ATOM     70  O32 SDK d   1      14.369  36.636  70.706  0.00  0.00    -0.238 OA
ATOM     71  H44 SDK d   1      14.501  39.723  71.164  0.00  0.00     0.165 HD
BRANCH  69  72
ATOM     72  O30 SDK d   1      16.137  38.057  70.241  0.00  0.00    -0.299 OA
BRANCH  72  73
ATOM     73  C29 SDK d   1      17.210  38.324  71.159  0.00  0.00     0.054 C 
ATOM     74  H29 SDK d   1      18.078  38.623  70.553  0.00  0.00     0.082 H 
ATOM     75  H30 SDK d   1      16.889  39.171  71.783  0.00  0.00     0.082 H 
BRANCH  73  76
ATOM     76  C26 SDK d   1      17.688  37.248  72.100  0.00  0.00    -0.034 A 
ATOM     77  C25 SDK d   1      16.780  36.393  72.734  0.00  0.00    -0.075 A 
ATOM     78  C24 SDK d   1      17.211  35.385  73.580  0.00  0.00    -0.082 A 
ATOM     79  H26 SDK d   1      15.718  36.522  72.559  0.00  0.00     0.084 H 
ATOM     80  C23 SDK d   1      18.574  35.216  73.806  0.00  0.00    -0.083 A 
ATOM     81  H25 SDK d   1      16.492  34.733  74.063  0.00  0.00     0.083 H 
ATOM     82  C28 SDK d   1      19.498  36.065  73.182  0.00  0.00    -0.082 A 
ATOM     83  H24 SDK d   1      18.921  34.428  74.465  0.00  0.00     0.083 H 
ATOM     84  C27 SDK d   1      19.047  37.074  72.335  0.00  0.00    -0.075 A 
ATOM     85  H28 SDK d   1      20.560  35.937  73.358  0.00  0.00     0.083 H 
ATOM     86  H27 SDK d   1      19.763  37.730  71.854  0.00  0.00     0.084 H 
ENDBRANCH  73  76
ENDBRANCH  72  73
ENDBRANCH  69  72
ENDBRANCH  53  68
ENDBRANCH  50  53
ENDBRANCH  46  49
ENDBRANCH   1  46
TORSDOF 23
