REMARK  11 active torsions:
REMARK  status: ('A' for Active; 'I' for Inactive)
REMARK    1  A    between atoms: C3_1  and  C4_2 
REMARK    2  A    between atoms: C2_5  and  C3_1 
REMARK    3  A    between atoms: N1_3  and  C2_5 
REMARK       I    between atoms: C8_10  and  N1_3 
REMARK    4  A    between atoms: C2_5  and  B1_4 
REMARK    5  A    between atoms: B1_4  and  O2_6 
REMARK    6  A    between atoms: B1_4  and  O1_7 
REMARK       I    between atoms: C12_15  and  N5_8 
REMARK    7  A    between atoms: C7_9  and  C8_10 
REMARK    8  A    between atoms: C14_17  and  C12_15 
REMARK    9  A    between atoms: C13_25  and  C14_17 
REMARK   10  A    between atoms: C14_17  and  N6_26 
REMARK   11  A    between atoms: C21_31  and  C13_25 
ROOT
ATOM      1  C4  PPB d   1      29.130  14.032  18.618  0.00  0.00    -0.055 A 
ATOM      2  C16 PPB d   1      29.598  12.775  18.193  0.00  0.00    -0.057 A 
ATOM      3  C23 PPB d   1      30.098  12.631  16.891  0.00  0.00     0.045 A 
ATOM      4  C24 PPB d   1      29.155  15.116  17.709  0.00  0.00    -0.077 A 
ATOM      5  C25 PPB d   1      29.674  14.977  16.401  0.00  0.00    -0.081 A 
ATOM      6  C5  PPB d   1      30.148  13.724  16.014  0.00  0.00    -0.063 A 
ATOM      7  C6  PPB d   1      30.541  11.293  16.344  0.00  0.00     0.099 C 
ATOM      8  N2  PPB d   1      30.900  10.240  15.895  0.00  0.00    -0.191 NA
ATOM      9  H15 PPB d   1      29.572  11.926  18.866  0.00  0.00     0.086 H 
ATOM     10  H16 PPB d   1      28.766  16.078  18.023  0.00  0.00     0.084 H 
ATOM     11  H17 PPB d   1      29.703  15.819  15.719  0.00  0.00     0.083 H 
ATOM     12  H18 PPB d   1      30.561  13.593  15.021  0.00  0.00     0.085 H 
ENDROOT
BRANCH   1  13
ATOM     13  C3  PPB d   1      28.688  14.344  20.059  0.00  0.00    -0.025 C 
ATOM     14  H1  PPB d   1      27.787  14.973  20.010  0.00  0.00     0.042 H 
ATOM     15  H2  PPB d   1      29.499  14.901  20.551  0.00  0.00     0.042 H 
BRANCH  13  16
ATOM     16  C2  PPB d   1      28.364  13.117  20.921  0.00  0.00     0.050 C 
ATOM     17  H4  PPB d   1      29.233  12.442  20.931  0.00  0.00     0.065 H 
BRANCH  16  18
ATOM     18  N1  PPB d   1      27.216  12.443  20.326  0.00  0.00    -0.358 N 
ATOM     19  C8  PPB d   1      27.200  11.159  19.993  0.00  0.00     0.240 C 
ATOM     20  O3  PPB d   1      28.068  10.307  20.221  0.00  0.00    -0.271 OA
ATOM     21  H3  PPB d   1      26.390  12.982  20.159  0.00  0.00     0.162 HD
BRANCH  19  22
ATOM     22  C7  PPB d   1      25.861  10.794  19.452  0.00  0.00     0.091 C 
ATOM     23  N5  PPB d   1      26.027   9.657  18.557  0.00  0.00    -0.337 N 
ATOM     24  C11 PPB d   1      25.717   8.372  19.185  0.00  0.00    -0.001 C 
ATOM     25  C12 PPB d   1      26.430   9.905  17.298  0.00  0.00     0.251 C 
ATOM     26  C10 PPB d   1      25.043   8.711  20.527  0.00  0.00    -0.048 C 
ATOM     27  H12 PPB d   1      26.639   7.796  19.354  0.00  0.00     0.064 H 
ATOM     28  H13 PPB d   1      25.033   7.790  18.549  0.00  0.00     0.064 H 
ATOM     29  C9  PPB d   1      25.054  10.236  20.624  0.00  0.00    -0.036 C 
ATOM     30  H10 PPB d   1      24.010   8.333  20.543  0.00  0.00     0.035 H 
ATOM     31  H11 PPB d   1      25.608   8.270  21.362  0.00  0.00     0.035 H 
ATOM     32  H8  PPB d   1      24.023  10.617  20.579  0.00  0.00     0.036 H 
ATOM     33  H9  PPB d   1      25.518  10.543  21.573  0.00  0.00     0.036 H 
ATOM     34  O4  PPB d   1      27.002  10.955  16.985  0.00  0.00    -0.271 OA
ATOM     35  H7  PPB d   1      25.368  11.646  18.962  0.00  0.00     0.087 H 
BRANCH  25  36
ATOM     36  C14 PPB d   1      26.504   8.656  16.401  0.00  0.00     0.179 C 
ATOM     37  H14 PPB d   1      26.312   7.783  17.043  0.00  0.00     0.099 H 
BRANCH  36  38
ATOM     38  C13 PPB d   1      25.505   8.587  15.237  0.00  0.00    -0.006 C 
ATOM     39  H19 PPB d   1      25.854   7.800  14.553  0.00  0.00     0.043 H 
ATOM     40  H20 PPB d   1      25.534   9.559  14.723  0.00  0.00     0.043 H 
BRANCH  38  41
ATOM     41  C21 PPB d   1      24.022   8.285  15.568  0.00  0.00    -0.056 A 
ATOM     42  C20 PPB d   1      23.006   8.786  14.703  0.00  0.00    -0.077 A 
ATOM     43  C19 PPB d   1      21.647   8.391  14.806  0.00  0.00    -0.082 A 
ATOM     44  H27 PPB d   1      23.283   9.498  13.934  0.00  0.00     0.084 H 
ATOM     45  C18 PPB d   1      21.300   7.480  15.813  0.00  0.00    -0.083 A 
ATOM     46  H26 PPB d   1      20.899   8.782  14.126  0.00  0.00     0.083 H 
ATOM     47  C17 PPB d   1      22.272   6.972  16.713  0.00  0.00    -0.082 A 
ATOM     48  H25 PPB d   1      20.269   7.157  15.906  0.00  0.00     0.083 H 
ATOM     49  C22 PPB d   1      23.626   7.379  16.593  0.00  0.00    -0.077 A 
ATOM     50  H24 PPB d   1      21.981   6.275  17.490  0.00  0.00     0.083 H 
ATOM     51  H28 PPB d   1      24.365   6.997  17.288  0.00  0.00     0.084 H 
ENDBRANCH  38  41
ENDBRANCH  36  38
BRANCH  36  52
ATOM     52  N6  PPB d   1      27.860   8.557  15.869  0.00  0.00    -0.066 N 
ATOM     53  H21 PPB d   1      28.523   8.601  16.627  0.00  0.00     0.275 HD
ATOM     54  H22 PPB d   1      28.027   9.320  15.232  0.00  0.00     0.275 HD
ATOM     55  H23 PPB d   1      27.966   7.681  15.381  0.00  0.00     0.275 HD
ENDBRANCH  36  52
ENDBRANCH  25  36
ENDBRANCH  19  22
ENDBRANCH  16  18
BRANCH  16  56
ATOM     56  B1  PPB d   1      28.018  13.488  22.326  0.00  0.00     0.515 B 
BRANCH  56  57
ATOM     57  O2  PPB d   1      29.265  13.850  23.004  0.00  0.00    -0.436 OA
ATOM     58  H5  PPB d   1      29.095  13.979  23.930  0.00  0.00     0.184 HD
ENDBRANCH  56  57
BRANCH  56  59
ATOM     59  O1  PPB d   1      27.679  12.259  23.042  0.00  0.00    -0.436 OA
ATOM     60  H6  PPB d   1      26.868  11.905  22.695  0.00  0.00     0.184 HD
ENDBRANCH  56  59
ENDBRANCH  16  56
ENDBRANCH  13  16
ENDBRANCH   1  13
TORSDOF 11
