REMARK  5 active torsions:
REMARK  status: ('A' for Active; 'I' for Inactive)
REMARK    1  A    between atoms: C11_1  and  C10_4 
REMARK    2  A    between atoms: C10_4  and  C9_5 
REMARK    3  A    between atoms: C9_5  and  C8_6 
REMARK    4  A    between atoms: C8_6  and  C7_7 
REMARK    5  A    between atoms: C7_7  and  C2_8 
ROOT
ATOM      1  C2  BTN d   1      36.012  10.285  18.933  0.00  0.00     0.012 C 
ATOM      2  S1  BTN d   1      35.049  10.359  20.469  0.00  0.00    -0.160 SA
ATOM      3  C6  BTN d   1      36.511   9.733  21.328  0.00  0.00    -0.002 C 
ATOM      4  C5  BTN d   1      37.595  10.645  20.766  0.00  0.00     0.042 A 
ATOM      5  N1  BTN d   1      37.432  11.964  21.340  0.00  0.00    -0.336 N 
ATOM      6  C3  BTN d   1      37.005  12.897  20.510  0.00  0.00     0.316 A 
ATOM      7  O3  BTN d   1      36.748  14.066  20.803  0.00  0.00    -0.247 OA
ATOM      8  N2  BTN d   1      36.917  12.344  19.280  0.00  0.00    -0.335 N 
ATOM      9  C4  BTN d   1      37.338  10.937  19.271  0.00  0.00     0.046 A 
ATOM     10  H9  BTN d   1      36.162   9.230  18.661  0.00  0.00     0.059 H 
ATOM     11  H10 BTN d   1      36.703   8.678  21.081  0.00  0.00     0.052 H 
ATOM     12  H11 BTN d   1      36.416   9.843  22.418  0.00  0.00     0.052 H 
ATOM     13  H12 BTN d   1      38.595  10.223  20.945  0.00  0.00     0.077 H 
ATOM     14  H13 BTN d   1      37.630  12.155  22.301  0.00  0.00     0.164 HD
ATOM     15  H14 BTN d   1      36.601  12.836  18.469  0.00  0.00     0.164 HD
ATOM     16  H15 BTN d   1      38.174  10.684  18.602  0.00  0.00     0.077 H 
ENDROOT
BRANCH   1  17
ATOM     17  C7  BTN d   1      35.408  11.018  17.703  0.00  0.00    -0.051 C 
ATOM     18  H7  BTN d   1      35.198  12.058  17.994  0.00  0.00     0.034 H 
ATOM     19  H8  BTN d   1      36.156  11.007  16.897  0.00  0.00     0.034 H 
BRANCH  17  20
ATOM     20  C8  BTN d   1      34.100  10.397  17.155  0.00  0.00    -0.063 C 
ATOM     21  H5  BTN d   1      33.527   9.989  18.001  0.00  0.00     0.033 H 
ATOM     22  H6  BTN d   1      33.516  11.190  16.665  0.00  0.00     0.033 H 
BRANCH  20  23
ATOM     23  C9  BTN d   1      34.337   9.270  16.140  0.00  0.00    -0.056 C 
ATOM     24  H3  BTN d   1      35.081   9.619  15.409  0.00  0.00     0.033 H 
ATOM     25  H4  BTN d   1      34.736   8.400  16.682  0.00  0.00     0.033 H 
BRANCH  23  26
ATOM     26  C10 BTN d   1      33.064   8.812  15.357  0.00  0.00     0.016 C 
ATOM     27  H1  BTN d   1      32.249   8.622  16.071  0.00  0.00     0.049 H 
ATOM     28  H2  BTN d   1      32.763   9.607  14.659  0.00  0.00     0.049 H 
BRANCH  26  29
ATOM     29  C11 BTN d   1      33.347   7.551  14.580  0.00  0.00     0.172 C 
ATOM     30  O11 BTN d   1      32.463   6.780  14.309  0.00  0.00    -0.648 OA
ATOM     31  O12 BTN d   1      34.631   7.358  14.257  0.00  0.00    -0.648 OA
ENDBRANCH  26  29
ENDBRANCH  23  26
ENDBRANCH  20  23
ENDBRANCH  17  20
ENDBRANCH   1  17
TORSDOF 5
