REMARK WARNING: 32 MAX_TORS EXCEEDED!!!
REMARK  55 active torsions:
REMARK  status: ('A' for Active; 'I' for Inactive)
REMARK    1  A    between atoms: N_1  and  CA_2 
REMARK    2  A    between atoms: CA_2  and  C_3 
REMARK       I    between atoms: C_3  and  N_8 
REMARK    3  A    between atoms: N_8  and  CA_9 
REMARK    4  A    between atoms: CA_9  and  C_10 
REMARK    5  A    between atoms: CA_9  and  CB_12 
REMARK       I    between atoms: C_10  and  N_16 
REMARK    6  A    between atoms: CB_12  and  CG1_13 
REMARK    7  A    between atoms: CB_12  and  CG2_14 
REMARK    8  A    between atoms: N_16  and  CA_17 
REMARK    9  A    between atoms: CA_17  and  C_18 
REMARK   10  A    between atoms: CA_17  and  CB_20 
REMARK       I    between atoms: C_18  and  N_28 
REMARK   11  A    between atoms: CB_20  and  CG_21 
REMARK   12  A    between atoms: CG_21  and  CD_22 
REMARK       I    between atoms: CD_22  and  NE2_24 
REMARK   13  A    between atoms: N_28  and  CA_29 
REMARK   14  A    between atoms: CA_29  and  C_30 
REMARK   15  A    between atoms: CA_29  and  CB_32 
REMARK       I    between atoms: C_30  and  N_36 
REMARK   16  A    between atoms: CB_32  and  OG_33 
REMARK   17  A    between atoms: N_36  and  CA_37 
REMARK   18  A    between atoms: CA_37  and  C_38 
REMARK   19  A    between atoms: CA_37  and  CB_40 
REMARK       I    between atoms: C_38  and  N_45 
REMARK   20  A    between atoms: CB_40  and  CG_41 
REMARK   21  A    between atoms: CG_41  and  CD1_42 
REMARK   22  A    between atoms: CG_41  and  CD2_43 
REMARK   23  A    between atoms: N_45  and  CA_46 
REMARK   24  A    between atoms: CA_46  and  C_47 
REMARK   25  A    between atoms: CA_46  and  CB_49 
REMARK       I    between atoms: C_47  and  N_58 
REMARK   26  A    between atoms: CB_49  and  CG_50 
REMARK   27  A    between atoms: CG_50  and  CD_51 
REMARK   28  A    between atoms: CD_51  and  CE_52 
REMARK   29  A    between atoms: CE_52  and  NZ_53 
REMARK   30  A    between atoms: N_58  and  CA_59 
REMARK   31  A    between atoms: CA_59  and  C_60 
REMARK   32  A    between atoms: CA_59  and  CB_62 
REMARK       I    between atoms: C_60  and  N_75 
REMARK   33  A    between atoms: CB_62  and  CG_63 
REMARK   34  A    between atoms: CG_63  and  CD_64 
REMARK   35  A    between atoms: CD_64  and  NE_65 
REMARK       I    between atoms: NE_65  and  CZ_66 
REMARK       I    between atoms: CZ_66  and  NH1_67 
REMARK       I    between atoms: CZ_66  and  NH2_68 
REMARK   36  A    between atoms: N_75  and  CA_76 
REMARK   37  A    between atoms: CA_76  and  C_77 
REMARK   38  A    between atoms: CA_76  and  CB_79 
REMARK       I    between atoms: C_77  and  N_92 
REMARK   39  A    between atoms: CB_79  and  CG_80 
REMARK   40  A    between atoms: CG_80  and  CD_81 
REMARK   41  A    between atoms: CD_81  and  NE_82 
REMARK       I    between atoms: NE_82  and  CZ_83 
REMARK       I    between atoms: CZ_83  and  NH1_84 
REMARK       I    between atoms: CZ_83  and  NH2_85 
REMARK   42  A    between atoms: N_92  and  CA_93 
REMARK   43  A    between atoms: CA_93  and  C_94 
REMARK   44  A    between atoms: CA_93  and  CB_96 
REMARK       I    between atoms: C_94  and  N_109 
REMARK   45  A    between atoms: CB_96  and  CG_97 
REMARK   46  A    between atoms: CG_97  and  CD_98 
REMARK   47  A    between atoms: CD_98  and  NE_99 
REMARK       I    between atoms: NE_99  and  CZ_100 
REMARK       I    between atoms: CZ_100  and  NH1_101 
REMARK       I    between atoms: CZ_100  and  NH2_102 
REMARK   48  A    between atoms: N_109  and  CA_110 
REMARK   49  A    between atoms: CA_110  and  C_111 
REMARK   50  A    between atoms: CA_110  and  CB_113 
REMARK       I    between atoms: C_111  and  N_116 
REMARK   51  A    between atoms: CB_113  and  SG_114 
REMARK   52  A    between atoms: N_116  and  CA_117 
REMARK   53  A    between atoms: CA_117  and  C_118 
REMARK   54  A    between atoms: CA_117  and  CB_120 
REMARK   55  A    between atoms: CB_120  and  CG_121 
ROOT
ATOM      1  CA  ARG d   1       0.611  48.413  26.025  0.00  0.00     0.089 C 
ATOM      2  H53 ARG d   1       1.631  48.108  26.303  0.00  0.00     0.087 H 
ENDROOT
BRANCH   1   3
ATOM      3  N   ARG d   1       0.301  49.712  26.629  0.00  0.00    -0.346 N 
ATOM      4  C   LYS d   1       1.056  50.284  27.567  0.00  0.00     0.241 C 
ATOM      5  O   LYS d   1       2.078  49.774  28.015  0.00  0.00    -0.271 OA
ATOM      6  H52 ARG d   1      -0.519  50.194  26.322  0.00  0.00     0.163 HD
BRANCH   4   7
ATOM      7  CA  LYS d   1       0.606  51.654  28.071  0.00  0.00     0.089 C 
ATOM      8  H40 LYS d   1      -0.402  51.869  27.686  0.00  0.00     0.087 H 
BRANCH   7   9
ATOM      9  N   LYS d   1       0.563  51.676  29.533  0.00  0.00    -0.346 N 
ATOM     10  C   LEU d   1      -0.576  51.566  30.214  0.00  0.00     0.241 C 
ATOM     11  O   LEU d   1      -1.682  51.512  29.670  0.00  0.00    -0.271 OA
ATOM     12  H39 LYS d   1       1.419  51.777  30.039  0.00  0.00     0.163 HD
BRANCH  10  13
ATOM     13  CA  LEU d   1      -0.476  51.586  31.741  0.00  0.00     0.089 C 
ATOM     14  H29 LEU d   1       0.563  51.775  32.050  0.00  0.00     0.087 H 
BRANCH  13  15
ATOM     15  N   LEU d   1      -1.354  52.634  32.227  0.00  0.00    -0.346 N 
ATOM     16  C   SER d   1      -0.965  53.541  33.108  0.00  0.00     0.243 C 
ATOM     17  O   SER d   1       0.170  53.582  33.566  0.00  0.00    -0.271 OA
ATOM     18  H28 LEU d   1      -2.292  52.672  31.882  0.00  0.00     0.163 HD
BRANCH  16  19
ATOM     19  CA  SER d   1      -2.019  54.559  33.529  0.00  0.00     0.109 C 
ATOM     20  H24 SER d   1      -2.887  54.004  33.914  0.00  0.00     0.090 H 
BRANCH  19  21
ATOM     21  N   SER d   1      -1.534  55.424  34.587  0.00  0.00    -0.344 N 
ATOM     22  C   GLN d   1      -2.218  55.578  35.708  0.00  0.00     0.241 C 
ATOM     23  O   GLN d   1      -3.295  55.006  35.918  0.00  0.00    -0.271 OA
ATOM     24  H23 SER d   1      -0.669  55.911  34.467  0.00  0.00     0.163 HD
BRANCH  22  25
ATOM     25  CA  GLN d   1      -1.628  56.532  36.728  0.00  0.00     0.090 C 
ATOM     26  H16 GLN d   1      -1.037  57.309  36.220  0.00  0.00     0.087 H 
BRANCH  25  27
ATOM     27  N   GLN d   1      -2.755  57.127  37.402  0.00  0.00    -0.346 N 
ATOM     28  C   VAL d   1      -3.388  58.160  36.873  0.00  0.00     0.241 C 
ATOM     29  O   VAL d   1      -3.009  58.721  35.844  0.00  0.00    -0.271 OA
ATOM     30  H15 GLN d   1      -3.061  56.755  38.278  0.00  0.00     0.163 HD
BRANCH  28  31
ATOM     31  CA  VAL d   1      -4.592  58.663  37.648  0.00  0.00     0.092 C 
ATOM     32  H7  VAL d   1      -4.398  58.522  38.722  0.00  0.00     0.088 H 
BRANCH  31  33
ATOM     33  N   VAL d   1      -4.828  60.080  37.426  0.00  0.00    -0.346 N 
ATOM     34  C   GLY d   1      -4.909  60.928  38.445  0.00  0.00     0.243 C 
ATOM     35  O   GLY d   1      -4.797  60.581  39.616  0.00  0.00    -0.272 OA
ATOM     36  H6  VAL d   1      -4.931  60.422  36.492  0.00  0.00     0.163 HD
BRANCH  34  37
ATOM     37  CA  GLY d   1      -5.158  62.377  38.112  0.00  0.00     0.152 C 
ATOM     38  H4  GLY d   1      -4.467  62.687  37.314  0.00  0.00     0.090 H 
ATOM     39  H5  GLY d   1      -6.195  62.493  37.764  0.00  0.00     0.090 H 
BRANCH  37  40
ATOM     40  N   GLY d   1      -4.948  63.228  39.284  0.00  0.00    -0.071 N 
ATOM     41  H1  GLY d   1      -5.120  64.190  39.036  0.00  0.00     0.274 HD
ATOM     42  H2  GLY d   1      -3.998  63.129  39.605  0.00  0.00     0.274 HD
ATOM     43  H3  GLY d   1      -5.581  62.952  40.018  0.00  0.00     0.274 HD
ENDBRANCH  37  40
ENDBRANCH  34  37
ENDBRANCH  31  33
BRANCH  31  44
ATOM     44  CB  VAL d   1      -5.820  57.792  37.253  0.00  0.00    -0.033 C 
ATOM     45  H8  VAL d   1      -5.608  56.748  37.525  0.00  0.00     0.042 H 
BRANCH  44  46
ATOM     46  CG1 VAL d   1      -7.049  58.246  37.999  0.00  0.00    -0.071 C 
ATOM     47  H9  VAL d   1      -7.906  57.621  37.708  0.00  0.00     0.028 H 
ATOM     48  H10 VAL d   1      -7.261  59.297  37.752  0.00  0.00     0.028 H 
ATOM     49  H11 VAL d   1      -6.877  58.152  39.081  0.00  0.00     0.028 H 
ENDBRANCH  44  46
BRANCH  44  50
ATOM     50  CG2 VAL d   1      -6.072  57.860  35.766  0.00  0.00    -0.071 C 
ATOM     51  H12 VAL d   1      -5.173  57.528  35.226  0.00  0.00     0.028 H 
ATOM     52  H13 VAL d   1      -6.309  58.896  35.481  0.00  0.00     0.028 H 
ATOM     53  H14 VAL d   1      -6.918  57.206  35.507  0.00  0.00     0.028 H 
ENDBRANCH  44  50
ENDBRANCH  31  44
ENDBRANCH  28  31
ENDBRANCH  25  27
BRANCH  25  54
ATOM     54  CB  GLN d   1      -0.738  55.799  37.714  0.00  0.00    -0.030 C 
ATOM     55  H17 GLN d   1      -0.052  55.149  37.151  0.00  0.00     0.037 H 
ATOM     56  H18 GLN d   1      -1.372  55.184  38.369  0.00  0.00     0.037 H 
BRANCH  54  57
ATOM     57  CG  GLN d   1       0.074  56.727  38.568  0.00  0.00     0.011 C 
ATOM     58  H19 GLN d   1       0.740  56.131  39.209  0.00  0.00     0.047 H 
ATOM     59  H20 GLN d   1      -0.606  57.320  39.197  0.00  0.00     0.047 H 
BRANCH  57  60
ATOM     60  CD  GLN d   1       0.911  57.666  37.730  0.00  0.00     0.215 C 
ATOM     61  OE1 GLN d   1       1.984  57.295  37.245  0.00  0.00    -0.274 OA
ATOM     62  NE2 GLN d   1       0.408  58.887  37.526  0.00  0.00    -0.370 N 
ATOM     63  H21 GLN d   1       0.916  59.552  36.979  0.00  0.00     0.159 HD
ATOM     64  H22 GLN d   1      -0.477  59.136  37.920  0.00  0.00     0.159 HD
ENDBRANCH  57  60
ENDBRANCH  54  57
ENDBRANCH  25  54
ENDBRANCH  22  25
ENDBRANCH  19  21
BRANCH  19  65
ATOM     65  CB  SER d   1      -2.482  55.402  32.340  0.00  0.00     0.044 C 
ATOM     66  H25 SER d   1      -3.375  55.975  32.631  0.00  0.00     0.077 H 
ATOM     67  H26 SER d   1      -2.731  54.735  31.501  0.00  0.00     0.077 H 
BRANCH  65  68
ATOM     68  OG  SER d   1      -1.466  56.302  31.931  0.00  0.00    -0.398 OA
ATOM     69  H27 SER d   1      -1.776  56.814  31.193  0.00  0.00     0.209 HD
ENDBRANCH  65  68
ENDBRANCH  19  65
ENDBRANCH  16  19
ENDBRANCH  13  15
BRANCH  13  70
ATOM     70  CB  LEU d   1      -0.967  50.263  32.327  0.00  0.00    -0.035 C 
ATOM     71  H30 LEU d   1      -2.065  50.288  32.260  0.00  0.00     0.037 H 
ATOM     72  H31 LEU d   1      -0.664  50.267  33.385  0.00  0.00     0.037 H 
BRANCH  70  73
ATOM     73  CG  LEU d   1      -0.542  48.914  31.772  0.00  0.00    -0.059 C 
ATOM     74  H32 LEU d   1      -0.666  48.911  30.679  0.00  0.00     0.038 H 
BRANCH  73  75
ATOM     75  CD1 LEU d   1       0.916  48.650  32.103  0.00  0.00    -0.073 C 
ATOM     76  H33 LEU d   1       1.213  47.672  31.697  0.00  0.00     0.028 H 
ATOM     77  H34 LEU d   1       1.050  48.650  33.195  0.00  0.00     0.028 H 
ATOM     78  H35 LEU d   1       1.542  49.437  31.657  0.00  0.00     0.028 H 
ENDBRANCH  73  75
BRANCH  73  79
ATOM     79  CD2 LEU d   1      -1.442  47.848  32.385  0.00  0.00    -0.073 C 
ATOM     80  H36 LEU d   1      -2.490  48.063  32.130  0.00  0.00     0.028 H 
ATOM     81  H37 LEU d   1      -1.322  47.851  33.478  0.00  0.00     0.028 H 
ATOM     82  H38 LEU d   1      -1.163  46.861  31.989  0.00  0.00     0.028 H 
ENDBRANCH  73  79
ENDBRANCH  70  73
ENDBRANCH  13  70
ENDBRANCH  10  13
ENDBRANCH   7   9
BRANCH   7  83
ATOM     83  CB  LYS d   1       1.581  52.700  27.533  0.00  0.00    -0.038 C 
ATOM     84  H41 LYS d   1       1.532  52.674  26.434  0.00  0.00     0.036 H 
ATOM     85  H42 LYS d   1       2.592  52.419  27.862  0.00  0.00     0.036 H 
BRANCH  83  86
ATOM     86  CG  LYS d   1       1.328  54.121  27.974  0.00  0.00    -0.061 C 
ATOM     87  H43 LYS d   1       1.772  54.280  28.968  0.00  0.00     0.033 H 
ATOM     88  H44 LYS d   1       0.244  54.301  28.023  0.00  0.00     0.033 H 
BRANCH  86  89
ATOM     89  CD  LYS d   1       1.957  55.088  26.979  0.00  0.00    -0.043 C 
ATOM     90  H45 LYS d   1       1.457  54.971  26.006  0.00  0.00     0.035 H 
ATOM     91  H46 LYS d   1       3.025  54.845  26.874  0.00  0.00     0.035 H 
BRANCH  89  92
ATOM     92  CE  LYS d   1       1.825  56.535  27.428  0.00  0.00     0.080 C 
ATOM     93  H47 LYS d   1       0.773  56.727  27.686  0.00  0.00     0.075 H 
ATOM     94  H48 LYS d   1       2.124  57.189  26.596  0.00  0.00     0.075 H 
BRANCH  92  95
ATOM     95  NZ  LYS d   1       2.677  56.860  28.621  0.00  0.00    -0.079 N 
ATOM     96  H49 LYS d   1       2.549  57.828  28.872  0.00  0.00     0.274 HD
ATOM     97  H50 LYS d   1       3.646  56.697  28.396  0.00  0.00     0.274 HD
ATOM     98  H51 LYS d   1       2.408  56.274  29.396  0.00  0.00     0.274 HD
ENDBRANCH  92  95
ENDBRANCH  89  92
ENDBRANCH  86  89
ENDBRANCH  83  86
ENDBRANCH   7  83
ENDBRANCH   4   7
ENDBRANCH   1   3
BRANCH   1  99
ATOM     99  C   ARG d   1       0.476  48.547  24.512  0.00  0.00     0.241 C 
ATOM    100  O   ARG d   1      -0.488  49.128  24.022  0.00  0.00    -0.271 OA
ATOM    101  N   ARG d   1       1.433  48.010  23.771  0.00  0.00    -0.346 N 
ATOM    102  H65 ARG d   1       2.216  47.578  24.219  0.00  0.00     0.163 HD
BRANCH 101 103
ATOM    103  CA  ARG d   1       1.368  48.037  22.316  0.00  0.00     0.089 C 
ATOM    104  H66 ARG d   1       0.933  48.981  21.956  0.00  0.00     0.087 H 
BRANCH 103 105
ATOM    105  C   ARG d   1       0.493  46.846  21.943  0.00  0.00     0.241 C 
ATOM    106  O   ARG d   1       0.572  45.799  22.570  0.00  0.00    -0.271 OA
ATOM    107  N   ARG d   1      -0.350  46.997  20.937  0.00  0.00    -0.346 N 
ATOM    108  H78 ARG d   1      -0.391  47.872  20.455  0.00  0.00     0.163 HD
BRANCH 107 109
ATOM    109  CA  ARG d   1      -1.221  45.904  20.520  0.00  0.00     0.089 C 
ATOM    110  H79 ARG d   1      -0.803  44.946  20.864  0.00  0.00     0.087 H 
BRANCH 109 111
ATOM    111  C   ARG d   1      -1.289  45.921  19.006  0.00  0.00     0.241 C 
ATOM    112  O   ARG d   1      -1.707  46.913  18.401  0.00  0.00    -0.271 OA
ATOM    113  N   CYS d   1      -0.794  44.859  18.392  0.00  0.00    -0.345 N 
ATOM    114  H91 CYS d   1      -0.400  44.118  18.936  0.00  0.00     0.163 HD
BRANCH 113 115
ATOM    115  CA  CYS d   1      -0.812  44.748  16.945  0.00  0.00     0.097 C 
ATOM    116  H92 CYS d   1      -1.234  45.661  16.499  0.00  0.00     0.088 H 
BRANCH 115 117
ATOM    117  C   CYS d   1      -1.695  43.555  16.628  0.00  0.00     0.242 C 
ATOM    118  O   CYS d   1      -1.705  42.562  17.354  0.00  0.00    -0.271 OA
ATOM    119  N   PHE d   1      -2.487  43.687  15.580  0.00  0.00    -0.344 N 
ATOM    120  H96 PHE d   1      -2.446  44.525  15.035  0.00  0.00     0.163 HD
BRANCH 119 121
ATOM    121  CA  PHE d   1      -3.414  42.641  15.206  0.00  0.00     0.100 C 
ATOM    122  H97 PHE d   1      -3.170  41.741  15.790  0.00  0.00     0.090 H 
BRANCH 121 123
ATOM    123  C   PHE d   1      -3.279  42.300  13.737  0.00  0.00     0.197 C 
ATOM    124  O   PHE d   1      -4.095  41.456  13.278  0.00  0.00    -0.646 OA
ATOM    125  OXT PHE d   1      -2.372  42.865  13.064  0.00  0.00    -0.646 OA
ENDBRANCH 121 123
BRANCH 121 126
ATOM    126  CB  PHE d   1      -4.866  43.056  15.541  0.00  0.00    -0.013 C 
ATOM    127  H98 PHE d   1      -5.535  42.231  15.254  0.00  0.00     0.043 H 
ATOM    128  H99 PHE d   1      -5.113  43.951  14.951  0.00  0.00     0.043 H 
BRANCH 126 129
ATOM    129  CG  PHE d   1      -5.101  43.370  16.994  0.00  0.00    -0.056 A 
ATOM    130  CD1 PHE d   1      -4.724  44.604  17.533  0.00  0.00    -0.077 A 
ATOM    131  CE1 PHE d   1      -4.907  44.869  18.904  0.00  0.00    -0.082 A 
ATOM    132 0H10 PHE d   1      -4.288  45.361  16.892  0.00  0.00     0.084 H 
ATOM    133  CZ  PHE d   1      -5.468  43.899  19.723  0.00  0.00    -0.083 A 
ATOM    134 2H10 PHE d   1      -4.611  45.826  19.318  0.00  0.00     0.083 H 
ATOM    135  CE2 PHE d   1      -5.855  42.682  19.186  0.00  0.00    -0.082 A 
ATOM    136 4H10 PHE d   1      -5.603  44.093  20.781  0.00  0.00     0.083 H 
ATOM    137  CD2 PHE d   1      -5.670  42.428  17.835  0.00  0.00    -0.077 A 
ATOM    138 3H10 PHE d   1      -6.303  41.927  19.822  0.00  0.00     0.083 H 
ATOM    139 1H10 PHE d   1      -5.978  41.471  17.428  0.00  0.00     0.084 H 
ENDBRANCH 126 129
ENDBRANCH 121 126
ENDBRANCH 119 121
ENDBRANCH 115 117
BRANCH 115 140
ATOM    140  CB  CYS d   1       0.596  44.534  16.411  0.00  0.00     0.001 C 
ATOM    141  H93 CYS d   1       0.528  44.264  15.347  0.00  0.00     0.052 H 
ATOM    142  H94 CYS d   1       1.059  43.708  16.970  0.00  0.00     0.052 H 
BRANCH 140 143
ATOM    143  SG  CYS d   1       1.663  46.007  16.566  0.00  0.00    -0.180 SA
ATOM    144  H95 CYS d   1       1.256  46.771  16.050  0.00  0.00     0.101 HD
ENDBRANCH 140 143
ENDBRANCH 115 140
ENDBRANCH 113 115
ENDBRANCH 109 111
BRANCH 109 145
ATOM    145  CB  ARG d   1      -2.638  46.081  21.108  0.00  0.00    -0.036 C 
ATOM    146  H80 ARG d   1      -3.269  45.269  20.717  0.00  0.00     0.036 H 
ATOM    147  H81 ARG d   1      -3.029  47.048  20.760  0.00  0.00     0.036 H 
BRANCH 145 148
ATOM    148  CG  ARG d   1      -2.737  46.058  22.633  0.00  0.00    -0.048 C 
ATOM    149  H82 ARG d   1      -3.772  46.291  22.923  0.00  0.00     0.035 H 
ATOM    150  H83 ARG d   1      -2.061  46.823  23.043  0.00  0.00     0.035 H 
BRANCH 148 151
ATOM    151  CD  ARG d   1      -2.358  44.707  23.218  0.00  0.00     0.009 C 
ATOM    152  H84 ARG d   1      -2.185  44.825  24.298  0.00  0.00     0.064 H 
ATOM    153  H85 ARG d   1      -1.433  44.359  22.735  0.00  0.00     0.064 H 
BRANCH 151 154
ATOM    154  NE  ARG d   1      -3.402  43.703  23.015  0.00  0.00    -0.227 N 
ATOM    155  CZ  ARG d   1      -3.323  42.697  22.147  0.00  0.00     0.665 C 
ATOM    156  NH1 ARG d   1      -2.242  42.554  21.386  0.00  0.00    -0.235 N 
ATOM    157  NH2 ARG d   1      -4.321  41.829  22.045  0.00  0.00    -0.235 N 
ATOM    158  H87 ARG d   1      -2.184  41.775  20.715  0.00  0.00     0.174 HD
ATOM    159  H88 ARG d   1      -1.463  43.223  21.467  0.00  0.00     0.174 HD
ATOM    160  H89 ARG d   1      -5.160  41.937  22.633  0.00  0.00     0.174 HD
ATOM    161  H90 ARG d   1      -4.257  41.047  21.378  0.00  0.00     0.174 HD
ATOM    162  H86 ARG d   1      -4.258  43.780  23.583  0.00  0.00     0.177 HD
ENDBRANCH 151 154
ENDBRANCH 148 151
ENDBRANCH 145 148
ENDBRANCH 109 145
ENDBRANCH 107 109
ENDBRANCH 103 105
BRANCH 103 163
ATOM    163  CB  ARG d   1       2.758  47.837  21.724  0.00  0.00    -0.036 C 
ATOM    164  H67 ARG d   1       2.779  46.857  21.225  0.00  0.00     0.036 H 
ATOM    165  H68 ARG d   1       3.485  47.844  22.550  0.00  0.00     0.036 H 
BRANCH 163 166
ATOM    166  CG  ARG d   1       3.186  48.893  20.709  0.00  0.00    -0.048 C 
ATOM    167  H69 ARG d   1       4.239  48.719  20.441  0.00  0.00     0.035 H 
ATOM    168  H70 ARG d   1       3.084  49.887  21.169  0.00  0.00     0.035 H 
BRANCH 166 169
ATOM    169  CD  ARG d   1       2.348  48.854  19.442  0.00  0.00     0.009 C 
ATOM    170  H71 ARG d   1       1.548  49.605  19.517  0.00  0.00     0.064 H 
ATOM    171  H72 ARG d   1       1.903  47.854  19.336  0.00  0.00     0.064 H 
BRANCH 169 172
ATOM    172  NE  ARG d   1       3.166  49.142  18.259  0.00  0.00    -0.227 N 
ATOM    173  CZ  ARG d   1       4.004  48.275  17.692  0.00  0.00     0.665 C 
ATOM    174  NH1 ARG d   1       4.154  47.057  18.200  0.00  0.00    -0.235 N 
ATOM    175  NH2 ARG d   1       4.661  48.611  16.586  0.00  0.00    -0.235 N 
ATOM    176  H74 ARG d   1       4.803  46.391  17.758  0.00  0.00     0.174 HD
ATOM    177  H75 ARG d   1       3.621  46.779  19.036  0.00  0.00     0.174 HD
ATOM    178  H76 ARG d   1       4.549  49.554  16.187  0.00  0.00     0.174 HD
ATOM    179  H77 ARG d   1       5.282  47.928  16.128  0.00  0.00     0.174 HD
ATOM    180  H73 ARG d   1       3.087  50.079  17.838  0.00  0.00     0.177 HD
ENDBRANCH 169 172
ENDBRANCH 166 169
ENDBRANCH 163 166
ENDBRANCH 103 163
ENDBRANCH 101 103
ENDBRANCH   1  99
BRANCH   1 181
ATOM    181  CB  ARG d   1      -0.394  47.335  26.442  0.00  0.00    -0.036 C 
ATOM    182  H54 ARG d   1      -0.160  46.435  25.855  0.00  0.00     0.036 H 
ATOM    183  H55 ARG d   1      -1.392  47.704  26.165  0.00  0.00     0.036 H 
BRANCH 181 184
ATOM    184  CG  ARG d   1      -0.471  46.903  27.906  0.00  0.00    -0.048 C 
ATOM    185  H56 ARG d   1      -0.631  47.776  28.555  0.00  0.00     0.035 H 
ATOM    186  H57 ARG d   1       0.456  46.390  28.203  0.00  0.00     0.035 H 
BRANCH 184 187
ATOM    187  CD  ARG d   1      -1.666  45.943  27.996  0.00  0.00     0.009 C 
ATOM    188  H58 ARG d   1      -1.447  45.078  27.353  0.00  0.00     0.064 H 
ATOM    189  H59 ARG d   1      -2.549  46.473  27.610  0.00  0.00     0.064 H 
BRANCH 187 190
ATOM    190  NE  ARG d   1      -2.004  45.430  29.332  0.00  0.00    -0.227 N 
ATOM    191  CZ  ARG d   1      -3.252  45.287  29.791  0.00  0.00     0.665 C 
ATOM    192  NH1 ARG d   1      -4.296  45.638  29.037  0.00  0.00    -0.235 N 
ATOM    193  NH2 ARG d   1      -3.460  44.725  30.979  0.00  0.00    -0.235 N 
ATOM    194  H61 ARG d   1      -5.254  45.524  29.398  0.00  0.00     0.174 HD
ATOM    195  H62 ARG d   1      -4.144  46.022  28.094  0.00  0.00     0.174 HD
ATOM    196  H63 ARG d   1      -2.659  44.451  31.567  0.00  0.00     0.174 HD
ATOM    197  H64 ARG d   1      -4.421  44.563  31.311  0.00  0.00     0.174 HD
ATOM    198  H60 ARG d   1      -1.229  45.163  29.955  0.00  0.00     0.177 HD
ENDBRANCH 187 190
ENDBRANCH 184 187
ENDBRANCH 181 184
ENDBRANCH   1 181
TORSDOF 55
