REMARK  3 active torsions:
REMARK  status: ('A' for Active; 'I' for Inactive)
REMARK    1  A    between atoms: P_1  and  O1P_2 
REMARK    2  A    between atoms: O1P_2  and  C2_6 
REMARK    3  A    between atoms: C2_6  and  C1_7 
ROOT
ATOM      1  C2  PGA d   1      19.632  18.185  27.320  0.00  0.00     0.112 C 
ATOM      2  H1  PGA d   1      18.780  18.828  27.587  0.00  0.00     0.092 H 
ATOM      3  H2  PGA d   1      20.571  18.685  27.600  0.00  0.00     0.092 H 
ENDROOT
BRANCH   1   4
ATOM      4  O1P PGA d   1      19.631  18.034  25.891  0.00  0.00    -0.272 OA
BRANCH   4   5
ATOM      5  P   PGA d   1      20.315  19.175  24.978  0.00  0.00     0.422 P 
ATOM      6  O2P PGA d   1      20.129  18.823  23.513  0.00  0.00    -0.617 OA
ATOM      7  O3P PGA d   1      21.762  19.271  25.398  0.00  0.00    -0.617 OA
ATOM      8  O4P PGA d   1      19.565  20.487  25.282  0.00  0.00    -0.617 OA
ENDBRANCH   4   5
ENDBRANCH   1   4
BRANCH   1   9
ATOM      9  C1  PGA d   1      19.523  16.897  28.159  0.00  0.00     0.198 C 
ATOM     10  O1  PGA d   1      20.085  16.946  29.301  0.00  0.00    -0.646 OA
ATOM     11  O2  PGA d   1      18.959  15.920  27.774  0.00  0.00    -0.646 OA
ENDBRANCH   1   9
TORSDOF 3
