REMARK  25 active torsions:
REMARK  status: ('A' for Active; 'I' for Inactive)
REMARK    1  A    between atoms: C3_3  and  O36_34 
REMARK    2  A    between atoms: C4_4  and  C29_27 
REMARK    3  A    between atoms: C4_4  and  C30_28 
REMARK    4  A    between atoms: C10_10  and  C19_19 
REMARK    5  A    between atoms: C12_12  and  O2_39 
REMARK    6  A    between atoms: C13_13  and  C18_18 
REMARK    7  A    between atoms: C14_14  and  C28_26 
REMARK    8  A    between atoms: C16_16  and  O32_30 
REMARK    9  A    between atoms: C20_51  and  C17_17 
REMARK   10  A    between atoms: C22_20  and  C23_21 
REMARK   11  A    between atoms: C20_51  and  C22_20 
REMARK   12  A    between atoms: C23_21  and  C24_22 
REMARK   13  A    between atoms: C25_23  and  C26_24 
REMARK   14  A    between atoms: C25_23  and  C27_25 
REMARK   15  A    between atoms: C28_26  and  O1_38 
REMARK   16  A    between atoms: C29_27  and  O34_32 
REMARK   17  A    between atoms: O34_32  and  C32_41 
REMARK   18  A    between atoms: O36_34  and  C37_35 
REMARK   19  A    between atoms: C37_35  and  C38_36 
REMARK   20  A    between atoms: C33_42  and  O6_48 
REMARK   21  A    between atoms: C34_43  and  O5_47 
REMARK   22  A    between atoms: C35_44  and  O4_46 
REMARK   23  A    between atoms: C36_45  and  C31_49 
REMARK   24  A    between atoms: C31_49  and  O7_50 
REMARK   25  A    between atoms: C20_51  and  C21_52 
ROOT
ATOM      1  C1  GR4 d   1       3.057  17.189  48.110  0.00  0.00    -0.055 C 
ATOM      2  C2  GR4 d   1       2.246  16.063  47.505  0.00  0.00    -0.038 C 
ATOM      3  C3  GR4 d   1       2.504  14.760  48.224  0.00  0.00     0.064 C 
ATOM      4  C4  GR4 d   1       2.165  14.941  49.741  0.00  0.00     0.075 C 
ATOM      5  C5  GR4 d   1       2.773  16.243  50.389  0.00  0.00    -0.025 C 
ATOM      6  C6  GR4 d   1       2.386  16.528  51.854  0.00  0.00    -0.044 C 
ATOM      7  C7  GR4 d   1       2.802  17.894  52.325  0.00  0.00    -0.099 C 
ATOM      8  C8  GR4 d   1       3.468  18.764  51.547  0.00  0.00    -0.067 C 
ATOM      9  C9  GR4 d   1       3.766  18.455  50.105  0.00  0.00    -0.022 C 
ATOM     10  C10 GR4 d   1       2.689  17.515  49.561  0.00  0.00    -0.031 C 
ATOM     11  C11 GR4 d   1       4.045  19.694  49.251  0.00  0.00    -0.033 C 
ATOM     12  C12 GR4 d   1       5.157  20.581  49.802  0.00  0.00     0.044 C 
ATOM     13  C13 GR4 d   1       5.338  20.428  51.336  0.00  0.00     0.002 C 
ATOM     14  C14 GR4 d   1       3.942  20.129  52.000  0.00  0.00     0.017 C 
ATOM     15  C15 GR4 d   1       4.234  20.320  53.492  0.00  0.00    -0.027 C 
ATOM     16  C16 GR4 d   1       5.335  21.396  53.545  0.00  0.00     0.042 C 
ATOM     17  C17 GR4 d   1       5.754  21.731  52.095  0.00  0.00    -0.009 C 
ATOM     18  H1  GR4 d   1       2.901  18.093  47.503  0.00  0.00     0.034 H 
ATOM     19  H2  GR4 d   1       4.119  16.905  48.078  0.00  0.00     0.034 H 
ATOM     20  H3  GR4 d   1       2.522  15.950  46.446  0.00  0.00     0.036 H 
ATOM     21  H4  GR4 d   1       1.177  16.309  47.581  0.00  0.00     0.036 H 
ATOM     22  H5  GR4 d   1       1.846  13.978  47.817  0.00  0.00     0.086 H 
ATOM     23  H6  GR4 d   1       3.849  16.020  50.432  0.00  0.00     0.043 H 
ATOM     24  H7  GR4 d   1       2.869  15.776  52.495  0.00  0.00     0.039 H 
ATOM     25  H8  GR4 d   1       1.293  16.444  51.949  0.00  0.00     0.039 H 
ATOM     26  H9  GR4 d   1       2.552  18.192  53.342  0.00  0.00     0.077 H 
ATOM     27  H10 GR4 d   1       4.705  17.881  50.097  0.00  0.00     0.048 H 
ATOM     28  H11 GR4 d   1       3.122  20.290  49.192  0.00  0.00     0.037 H 
ATOM     29  H12 GR4 d   1       4.333  19.363  48.242  0.00  0.00     0.037 H 
ATOM     30  H13 GR4 d   1       4.880  21.628  49.607  0.00  0.00     0.084 H 
ATOM     31  H14 GR4 d   1       4.589  19.380  53.940  0.00  0.00     0.038 H 
ATOM     32  H15 GR4 d   1       3.333  20.662  54.022  0.00  0.00     0.038 H 
ATOM     33  H16 GR4 d   1       6.207  21.016  54.098  0.00  0.00     0.083 H 
ATOM     34  H17 GR4 d   1       5.089  22.532  51.739  0.00  0.00     0.046 H 
ENDROOT
BRANCH   4  35
ATOM     35  C29 GR4 d   1       2.613  13.676  50.508  0.00  0.00     0.272 C 
ATOM     36  O31 GR4 d   1       1.849  13.000  51.127  0.00  0.00    -0.264 OA
BRANCH  35  37
ATOM     37  O34 GR4 d   1       3.915  13.388  50.433  0.00  0.00    -0.286 OA
BRANCH  37  38
ATOM     38  C32 GR4 d   1       4.381  12.246  49.701  0.00  0.00     0.167 C 
ATOM     39  O3  GR4 d   1       5.273  11.490  50.491  0.00  0.00    -0.348 OA
ATOM     40  C36 GR4 d   1       6.101  10.601  49.741  0.00  0.00     0.089 C 
ATOM     41  C35 GR4 d   1       5.262   9.668  48.852  0.00  0.00     0.090 C 
ATOM     42  H48 GR4 d   1       6.752  11.213  49.099  0.00  0.00     0.090 H 
ATOM     43  C34 GR4 d   1       4.087  10.350  48.141  0.00  0.00     0.092 C 
ATOM     44  H47 GR4 d   1       4.870   8.850  49.474  0.00  0.00     0.091 H 
ATOM     45  C33 GR4 d   1       3.325  11.275  49.113  0.00  0.00     0.110 C 
ATOM     46  H46 GR4 d   1       4.486  10.980  47.332  0.00  0.00     0.091 H 
ATOM     47  H45 GR4 d   1       2.889  10.694  49.939  0.00  0.00     0.094 H 
ATOM     48  H44 GR4 d   1       4.944  12.646  48.845  0.00  0.00     0.134 H 
BRANCH  40  49
ATOM     49  C31 GR4 d   1       6.997   9.698  50.635  0.00  0.00     0.043 C 
ATOM     50  H52 GR4 d   1       7.896  10.267  50.913  0.00  0.00     0.078 H 
ATOM     51  H53 GR4 d   1       7.290   8.813  50.051  0.00  0.00     0.078 H 
BRANCH  49  52
ATOM     52  O7  GR4 d   1       6.350   9.254  51.840  0.00  0.00    -0.398 OA
ATOM     53  H54 GR4 d   1       6.100  10.008  52.360  0.00  0.00     0.209 HD
ENDBRANCH  49  52
ENDBRANCH  40  49
BRANCH  41  54
ATOM     54  O4  GR4 d   1       6.134   9.137  47.825  0.00  0.00    -0.390 OA
ATOM     55  H49 GR4 d   1       5.639   8.556  47.260  0.00  0.00     0.210 HD
ENDBRANCH  41  54
BRANCH  43  56
ATOM     56  O5  GR4 d   1       3.261   9.324  47.538  0.00  0.00    -0.390 OA
ATOM     57  H50 GR4 d   1       2.527   9.731  47.093  0.00  0.00     0.210 HD
ENDBRANCH  43  56
BRANCH  45  58
ATOM     58  O6  GR4 d   1       2.251  11.859  48.352  0.00  0.00    -0.388 OA
ATOM     59  H51 GR4 d   1       2.611  12.351  47.623  0.00  0.00     0.210 HD
ENDBRANCH  45  58
ENDBRANCH  37  38
ENDBRANCH  35  37
ENDBRANCH   4  35
BRANCH   4  60
ATOM     60  C30 GR4 d   1       0.622  14.933  49.914  0.00  0.00    -0.057 C 
ATOM     61  H35 GR4 d   1       0.207  14.022  49.459  0.00  0.00     0.029 H 
ATOM     62  H36 GR4 d   1       0.193  15.817  49.420  0.00  0.00     0.029 H 
ATOM     63  H37 GR4 d   1       0.373  14.954  50.985  0.00  0.00     0.029 H 
ENDBRANCH   4  60
BRANCH   3  64
ATOM     64  O36 GR4 d   1       3.884  14.384  47.957  0.00  0.00    -0.315 OA
BRANCH  64  65
ATOM     65  C37 GR4 d   1       4.291  13.913  46.764  0.00  0.00     0.255 C 
ATOM     66  O39 GR4 d   1       3.600  13.525  45.874  0.00  0.00    -0.266 OA
BRANCH  65  67
ATOM     67  C38 GR4 d   1       5.800  13.896  46.640  0.00  0.00     0.004 C 
ATOM     68  H39 GR4 d   1       6.082  13.505  45.651  0.00  0.00     0.041 H 
ATOM     69  H40 GR4 d   1       6.225  13.252  47.424  0.00  0.00     0.041 H 
ATOM     70  H41 GR4 d   1       6.189  14.919  46.754  0.00  0.00     0.041 H 
ENDBRANCH  65  67
ENDBRANCH  64  65
ENDBRANCH   3  64
BRANCH  10  71
ATOM     71  C19 GR4 d   1       1.300  18.195  49.637  0.00  0.00    -0.068 C 
ATOM     72  H21 GR4 d   1       0.534  17.510  49.243  0.00  0.00     0.028 H 
ATOM     73  H22 GR4 d   1       1.310  19.117  49.038  0.00  0.00     0.028 H 
ATOM     74  H23 GR4 d   1       1.069  18.441  50.684  0.00  0.00     0.028 H 
ENDBRANCH  10  71
BRANCH  14  75
ATOM     75  C28 GR4 d   1       2.772  21.129  51.688  0.00  0.00     0.028 C 
ATOM     76  H33 GR4 d   1       2.611  21.038  50.604  0.00  0.00     0.075 H 
ATOM     77  H34 GR4 d   1       3.188  22.122  51.915  0.00  0.00     0.075 H 
BRANCH  75  78
ATOM     78  O1  GR4 d   1       1.667  21.151  52.156  0.00  0.00    -0.400 OA
ATOM     79  H42 GR4 d   1       1.725  21.268  53.097  0.00  0.00     0.209 HD
ENDBRANCH  75  78
ENDBRANCH  14  75
BRANCH  12  80
ATOM     80  O2  GR4 d   1       6.357  20.309  49.105  0.00  0.00    -0.395 OA
ATOM     81  H43 GR4 d   1       6.210  20.412  48.172  0.00  0.00     0.210 HD
ENDBRANCH  12  80
BRANCH  13  82
ATOM     82  C18 GR4 d   1       6.357  19.311  51.718  0.00  0.00    -0.065 C 
ATOM     83  H18 GR4 d   1       6.091  18.379  51.199  0.00  0.00     0.028 H 
ATOM     84  H19 GR4 d   1       6.329  19.146  52.805  0.00  0.00     0.028 H 
ATOM     85  H20 GR4 d   1       7.370  19.621  51.420  0.00  0.00     0.028 H 
ENDBRANCH  13  82
BRANCH  17  86
ATOM     86  C20 GR4 d   1       7.212  22.325  51.890  0.00  0.00     0.010 C 
ATOM     87  H55 GR4 d   1       7.954  21.535  52.076  0.00  0.00     0.052 H 
BRANCH  86  88
ATOM     88  C22 GR4 d   1       7.453  22.951  50.474  0.00  0.00     0.004 C 
ATOM     89  H24 GR4 d   1       6.793  22.434  49.762  0.00  0.00     0.046 H 
ATOM     90  H25 GR4 d   1       7.176  24.014  50.525  0.00  0.00     0.046 H 
BRANCH  88  91
ATOM     91  C23 GR4 d   1       8.841  22.868  49.949  0.00  0.00     0.150 C 
ATOM     92  O35 GR4 d   1       9.701  22.258  50.527  0.00  0.00    -0.293 OA
BRANCH  91  93
ATOM     93  C24 GR4 d   1       9.208  23.489  48.693  0.00  0.00    -0.037 C 
ATOM     94  C25 GR4 d   1      10.128  22.966  47.864  0.00  0.00    -0.084 C 
ATOM     95  H26 GR4 d   1       8.718  24.419  48.408  0.00  0.00     0.089 H 
BRANCH  94  96
ATOM     96  C26 GR4 d   1      10.407  23.614  46.558  0.00  0.00    -0.055 C 
ATOM     97  H27 GR4 d   1      11.183  23.045  46.025  0.00  0.00     0.033 H 
ATOM     98  H28 GR4 d   1      10.757  24.643  46.727  0.00  0.00     0.033 H 
ATOM     99  H29 GR4 d   1       9.488  23.634  45.955  0.00  0.00     0.033 H 
ENDBRANCH  94  96
BRANCH  94 100
ATOM    100  C27 GR4 d   1      10.875  21.685  48.098  0.00  0.00    -0.055 C 
ATOM    101  H30 GR4 d   1      10.607  21.279  49.085  0.00  0.00     0.033 H 
ATOM    102  H31 GR4 d   1      11.957  21.880  48.063  0.00  0.00     0.033 H 
ATOM    103  H32 GR4 d   1      10.608  20.957  47.318  0.00  0.00     0.033 H 
ENDBRANCH  94 100
ENDBRANCH  91  93
ENDBRANCH  88  91
ENDBRANCH  86  88
BRANCH  86 104
ATOM    104  C21 GR4 d   1       7.383  23.478  52.875  0.00  0.00     0.093 C 
ATOM    105  O33 GR4 d   1       8.127  23.442  53.804  0.00  0.00    -0.306 OA
ATOM    106  H56 GR4 d   1       6.794  24.381  52.720  0.00  0.00     0.143 H 
ENDBRANCH  86 104
ENDBRANCH  17  86
BRANCH  16 107
ATOM    107  O32 GR4 d   1       4.820  22.516  54.205  0.00  0.00    -0.395 OA
ATOM    108  H38 GR4 d   1       4.574  22.275  55.090  0.00  0.00     0.210 HD
ENDBRANCH  16 107
TORSDOF 25
