REMARK  17 active torsions:
REMARK  status: ('A' for Active; 'I' for Inactive)
REMARK    1  A    between atoms: C3_3  and  O36_34 
REMARK    2  A    between atoms: C4_4  and  C29_27 
REMARK    3  A    between atoms: C4_4  and  C30_28 
REMARK    4  A    between atoms: C10_10  and  C19_19 
REMARK    5  A    between atoms: C13_13  and  C18_18 
REMARK    6  A    between atoms: C14_14  and  C28_26 
REMARK    7  A    between atoms: C16_16  and  O32_30 
REMARK    8  A    between atoms: C20_38  and  C17_17 
REMARK    9  A    between atoms: C22_20  and  C23_21 
REMARK   10  A    between atoms: C20_38  and  C22_20 
REMARK   11  A    between atoms: C23_21  and  C24_22 
REMARK   12  A    between atoms: C25_23  and  C26_24 
REMARK   13  A    between atoms: C25_23  and  C27_25 
REMARK   14  A    between atoms: C21_39  and  O33_31 
REMARK   15  A    between atoms: O36_34  and  C37_35 
REMARK   16  A    between atoms: C37_35  and  C38_36 
REMARK   17  A    between atoms: C20_38  and  C21_39 
ROOT
ATOM      1  C1  GR3 d   1      13.462  15.201  57.902  0.00  0.00    -0.055 C 
ATOM      2  C2  GR3 d   1      13.451  16.620  58.475  0.00  0.00    -0.038 C 
ATOM      3  C3  GR3 d   1      14.522  17.468  57.792  0.00  0.00     0.065 C 
ATOM      4  C4  GR3 d   1      14.229  17.590  56.309  0.00  0.00     0.076 C 
ATOM      5  C5  GR3 d   1      14.106  16.179  55.649  0.00  0.00    -0.024 C 
ATOM      6  C6  GR3 d   1      13.796  16.201  54.120  0.00  0.00    -0.044 C 
ATOM      7  C7  GR3 d   1      13.448  14.824  53.569  0.00  0.00    -0.099 C 
ATOM      8  C8  GR3 d   1      13.368  13.717  54.331  0.00  0.00    -0.070 C 
ATOM      9  C9  GR3 d   1      13.575  13.749  55.834  0.00  0.00    -0.024 C 
ATOM     10  C10 GR3 d   1      13.184  15.159  56.396  0.00  0.00    -0.031 C 
ATOM     11  C11 GR3 d   1      12.857  12.632  56.538  0.00  0.00    -0.057 C 
ATOM     12  C12 GR3 d   1      13.065  11.258  55.927  0.00  0.00    -0.056 C 
ATOM     13  C13 GR3 d   1      13.604  11.252  54.502  0.00  0.00    -0.026 C 
ATOM     14  C14 GR3 d   1      12.986  12.415  53.735  0.00  0.00    -0.010 C 
ATOM     15  C15 GR3 d   1      13.340  12.078  52.285  0.00  0.00    -0.030 C 
ATOM     16  C16 GR3 d   1      13.356  10.517  52.187  0.00  0.00     0.041 C 
ATOM     17  C17 GR3 d   1      13.151  10.030  53.644  0.00  0.00    -0.015 C 
ATOM     18  H1  GR3 d   1      12.691  14.610  58.417  0.00  0.00     0.034 H 
ATOM     19  H2  GR3 d   1      14.451  14.756  58.088  0.00  0.00     0.034 H 
ATOM     20  H3  GR3 d   1      13.654  16.578  59.555  0.00  0.00     0.036 H 
ATOM     21  H4  GR3 d   1      12.464  17.074  58.305  0.00  0.00     0.036 H 
ATOM     22  H5  GR3 d   1      14.529  18.475  58.235  0.00  0.00     0.086 H 
ATOM     23  H6  GR3 d   1      15.118  15.755  55.729  0.00  0.00     0.043 H 
ATOM     24  H7  GR3 d   1      14.681  16.579  53.587  0.00  0.00     0.039 H 
ATOM     25  H8  GR3 d   1      12.945  16.876  53.943  0.00  0.00     0.039 H 
ATOM     26  H9  GR3 d   1      13.254  14.730  52.502  0.00  0.00     0.077 H 
ATOM     27  H10 GR3 d   1      14.649  13.606  56.021  0.00  0.00     0.048 H 
ATOM     28  H11 GR3 d   1      11.780  12.854  56.523  0.00  0.00     0.034 H 
ATOM     29  H12 GR3 d   1      13.210  12.601  57.579  0.00  0.00     0.034 H 
ATOM     30  H13 GR3 d   1      12.096  10.737  55.926  0.00  0.00     0.034 H 
ATOM     31  H14 GR3 d   1      13.776  10.709  56.561  0.00  0.00     0.034 H 
ATOM     32  H15 GR3 d   1      14.329  12.486  52.030  0.00  0.00     0.038 H 
ATOM     33  H16 GR3 d   1      12.585  12.495  51.602  0.00  0.00     0.038 H 
ATOM     34  H17 GR3 d   1      14.354  10.197  51.852  0.00  0.00     0.083 H 
ATOM     35  H18 GR3 d   1      12.075   9.875  53.813  0.00  0.00     0.045 H 
ENDROOT
BRANCH  17  36
ATOM     36  C20 GR3 d   1      13.823   8.695  53.955  0.00  0.00    -0.021 C 
ATOM     37  H45 GR3 d   1      14.909   8.871  53.940  0.00  0.00     0.044 H 
BRANCH  36  38
ATOM     38  C22 GR3 d   1      13.398   8.122  55.309  0.00  0.00    -0.000 C 
ATOM     39  H25 GR3 d   1      12.742   8.849  55.810  0.00  0.00     0.045 H 
ATOM     40  H26 GR3 d   1      12.846   7.186  55.139  0.00  0.00     0.045 H 
BRANCH  38  41
ATOM     41  C23 GR3 d   1      14.562   7.837  56.197  0.00  0.00     0.149 C 
ATOM     42  O35 GR3 d   1      15.688   8.139  55.864  0.00  0.00    -0.293 OA
BRANCH  41  43
ATOM     43  C24 GR3 d   1      14.320   7.154  57.493  0.00  0.00    -0.037 C 
ATOM     44  C25 GR3 d   1      15.211   7.018  58.500  0.00  0.00    -0.084 C 
ATOM     45  H27 GR3 d   1      13.332   6.722  57.646  0.00  0.00     0.089 H 
BRANCH  44  46
ATOM     46  C26 GR3 d   1      14.833   6.202  59.704  0.00  0.00    -0.055 C 
ATOM     47  H28 GR3 d   1      15.668   6.197  60.420  0.00  0.00     0.033 H 
ATOM     48  H29 GR3 d   1      14.610   5.171  59.393  0.00  0.00     0.033 H 
ATOM     49  H30 GR3 d   1      13.944   6.641  60.181  0.00  0.00     0.033 H 
ENDBRANCH  44  46
BRANCH  44  50
ATOM     50  C27 GR3 d   1      16.576   7.674  58.580  0.00  0.00    -0.055 C 
ATOM     51  H31 GR3 d   1      16.762   8.246  57.659  0.00  0.00     0.033 H 
ATOM     52  H32 GR3 d   1      17.349   6.900  58.694  0.00  0.00     0.033 H 
ATOM     53  H33 GR3 d   1      16.607   8.352  59.445  0.00  0.00     0.033 H 
ENDBRANCH  44  50
ENDBRANCH  41  43
ENDBRANCH  38  41
ENDBRANCH  36  38
BRANCH  36  54
ATOM     54  C21 GR3 d   1      13.498   7.539  53.059  0.00  0.00     0.021 C 
ATOM     55  H46 GR3 d   1      12.912   6.829  53.660  0.00  0.00     0.074 H 
ATOM     56  H47 GR3 d   1      12.872   7.936  52.246  0.00  0.00     0.074 H 
BRANCH  54  57
ATOM     57  O33 GR3 d   1      14.387   6.899  52.533  0.00  0.00    -0.400 OA
ATOM     58  H41 GR3 d   1      14.007   6.208  52.003  0.00  0.00     0.209 HD
ENDBRANCH  54  57
ENDBRANCH  36  54
ENDBRANCH  17  36
BRANCH  13  59
ATOM     59  C18 GR3 d   1      15.141  11.273  54.525  0.00  0.00    -0.068 C 
ATOM     60  H19 GR3 d   1      15.487  12.127  55.125  0.00  0.00     0.028 H 
ATOM     61  H20 GR3 d   1      15.522  11.368  53.498  0.00  0.00     0.028 H 
ATOM     62  H21 GR3 d   1      15.514  10.338  54.969  0.00  0.00     0.028 H 
ENDBRANCH  13  59
BRANCH  16  63
ATOM     63  O32 GR3 d   1      12.409   9.984  51.233  0.00  0.00    -0.395 OA
ATOM     64  H40 GR3 d   1      11.529  10.237  51.487  0.00  0.00     0.210 HD
ENDBRANCH  16  63
BRANCH  14  65
ATOM     65  C28 GR3 d   1      11.460  12.503  53.753  0.00  0.00    -0.064 C 
ATOM     66  H34 GR3 d   1      11.119  12.745  54.770  0.00  0.00     0.028 H 
ATOM     67  H35 GR3 d   1      11.033  11.538  53.443  0.00  0.00     0.028 H 
ATOM     68  H36 GR3 d   1      11.130  13.290  53.059  0.00  0.00     0.028 H 
ENDBRANCH  14  65
BRANCH  10  69
ATOM     69  C19 GR3 d   1      11.682  15.475  56.170  0.00  0.00    -0.068 C 
ATOM     70  H22 GR3 d   1      11.451  16.470  56.578  0.00  0.00     0.028 H 
ATOM     71  H23 GR3 d   1      11.067  14.718  56.680  0.00  0.00     0.028 H 
ATOM     72  H24 GR3 d   1      11.462  15.461  55.092  0.00  0.00     0.028 H 
ENDBRANCH  10  69
BRANCH   4  73
ATOM     73  C29 GR3 d   1      15.381  18.382  55.666  0.00  0.00     0.184 C 
ATOM     74  O31 GR3 d   1      16.371  18.663  56.290  0.00  0.00    -0.647 OA
ATOM     75  O34 GR3 d   1      15.222  18.870  54.560  0.00  0.00    -0.647 OA
ENDBRANCH   4  73
BRANCH   4  76
ATOM     76  C30 GR3 d   1      12.977  18.487  56.090  0.00  0.00    -0.057 C 
ATOM     77  H37 GR3 d   1      13.133  19.460  56.579  0.00  0.00     0.029 H 
ATOM     78  H38 GR3 d   1      12.094  17.996  56.524  0.00  0.00     0.029 H 
ATOM     79  H39 GR3 d   1      12.819  18.640  55.012  0.00  0.00     0.029 H 
ENDBRANCH   4  76
BRANCH   3  80
ATOM     80  O36 GR3 d   1      15.813  16.831  58.027  0.00  0.00    -0.315 OA
BRANCH  80  81
ATOM     81  C37 GR3 d   1      16.774  17.313  58.889  0.00  0.00     0.255 C 
ATOM     82  O39 GR3 d   1      17.780  16.719  59.294  0.00  0.00    -0.266 OA
BRANCH  81  83
ATOM     83  C38 GR3 d   1      16.487  18.712  59.438  0.00  0.00     0.004 C 
ATOM     84  H42 GR3 d   1      17.301  19.015  60.113  0.00  0.00     0.041 H 
ATOM     85  H43 GR3 d   1      15.537  18.701  59.992  0.00  0.00     0.041 H 
ATOM     86  H44 GR3 d   1      16.417  19.426  58.604  0.00  0.00     0.041 H 
ENDBRANCH  81  83
ENDBRANCH  80  81
ENDBRANCH   3  80
TORSDOF 17
