REMARK  10 active torsions:
REMARK  status: ('A' for Active; 'I' for Inactive)
REMARK    1  A    between atoms: C_3  and  CA_2 
REMARK       I    between atoms: N_8  and  C_3 
REMARK    2  A    between atoms: C_10  and  CA_9 
REMARK       I    between atoms: N_15  and  C_10 
REMARK    3  A    between atoms: C_17  and  CA_16 
REMARK       I    between atoms: N_22  and  C_17 
REMARK    4  A    between atoms: C_24  and  CA_23 
REMARK       I    between atoms: N_29  and  C_24 
REMARK    5  A    between atoms: C_31  and  CA_30 
REMARK       I    between atoms: N_36  and  C_31 
REMARK    6  A    between atoms: C_38  and  CA_37 
REMARK       I    between atoms: N_43  and  C_38 
REMARK    7  A    between atoms: C_45  and  CA_44 
REMARK       I    between atoms: N_50  and  C_45 
REMARK    8  A    between atoms: C_52  and  CA_51 
REMARK       I    between atoms: N_57  and  C_52 
REMARK    9  A    between atoms: C_59  and  CA_58 
REMARK       I    between atoms: C_59  and  N_64 
REMARK   10  A    between atoms: CA_65  and  C_66 
ROOT
ATOM      1  C   PRO d   1      29.741  65.243  34.538  0.00  0.00     0.243 C 
ATOM      2  O   PRO d   1      30.917  64.974  34.278  0.00  0.00    -0.271 OA
ATOM      3  N   PRO d   1      28.793  64.296  34.616  0.00  0.00    -0.337 N 
ATOM      4  CA  PRO d   1      29.131  62.903  34.324  0.00  0.00     0.092 C 
ATOM      5  CB  PRO d   1      27.808  62.179  34.556  0.00  0.00    -0.036 C 
ATOM      6  CG  PRO d   1      27.143  63.014  35.619  0.00  0.00    -0.048 C 
ATOM      7  CD  PRO d   1      27.414  64.408  35.130  0.00  0.00    -0.001 C 
ATOM      8  H38 PRO d   1      29.924  62.519  34.983  0.00  0.00     0.087 H 
ATOM      9  H39 PRO d   1      27.977  61.151  34.910  0.00  0.00     0.036 H 
ATOM     10  H40 PRO d   1      27.204  62.156  33.637  0.00  0.00     0.036 H 
ATOM     11  H41 PRO d   1      27.596  62.841  36.606  0.00  0.00     0.035 H 
ATOM     12  H42 PRO d   1      26.063  62.811  35.671  0.00  0.00     0.035 H 
ATOM     13  H43 PRO d   1      27.352  65.138  35.951  0.00  0.00     0.064 H 
ATOM     14  H44 PRO d   1      26.713  64.694  34.332  0.00  0.00     0.064 H 
ENDROOT
BRANCH   1  15
ATOM     15  CA  PRO d   1      29.312  66.670  34.847  0.00  0.00     0.092 C 
ATOM     16  N   PRO d   1      30.434  67.584  35.040  0.00  0.00    -0.337 N 
ATOM     17  CD  PRO d   1      30.386  68.648  34.032  0.00  0.00    -0.001 C 
ATOM     18  C   PRO d   1      31.192  67.623  36.141  0.00  0.00     0.243 C 
ATOM     19  CG  PRO d   1      28.921  68.720  33.771  0.00  0.00    -0.048 C 
ATOM     20  H36 PRO d   1      30.774  69.598  34.428  0.00  0.00     0.064 H 
ATOM     21  H37 PRO d   1      30.945  68.373  33.126  0.00  0.00     0.064 H 
ATOM     22  CB  PRO d   1      28.584  67.289  33.659  0.00  0.00    -0.036 C 
ATOM     23  H34 PRO d   1      28.385  69.197  34.605  0.00  0.00     0.035 H 
ATOM     24  H35 PRO d   1      28.703  69.260  32.838  0.00  0.00     0.035 H 
ATOM     25  H32 PRO d   1      27.498  67.132  33.735  0.00  0.00     0.036 H 
ATOM     26  H33 PRO d   1      28.949  66.870  32.710  0.00  0.00     0.036 H 
ATOM     27  O   PRO d   1      30.937  66.940  37.137  0.00  0.00    -0.271 OA
ATOM     28  H31 PRO d   1      28.669  66.660  35.739  0.00  0.00     0.087 H 
BRANCH  18  29
ATOM     29  CA  PRO d   1      32.325  68.651  36.158  0.00  0.00     0.092 C 
ATOM     30  N   PRO d   1      32.353  69.386  37.420  0.00  0.00    -0.337 N 
ATOM     31  CD  PRO d   1      33.599  69.121  38.152  0.00  0.00    -0.001 C 
ATOM     32  C   PRO d   1      31.298  70.117  37.790  0.00  0.00     0.243 C 
ATOM     33  CG  PRO d   1      34.023  67.805  37.570  0.00  0.00    -0.048 C 
ATOM     34  H29 PRO d   1      34.349  69.903  37.962  0.00  0.00     0.064 H 
ATOM     35  H30 PRO d   1      33.418  69.041  39.234  0.00  0.00     0.064 H 
ATOM     36  CB  PRO d   1      33.700  67.996  36.123  0.00  0.00    -0.036 C 
ATOM     37  H27 PRO d   1      35.098  67.627  37.721  0.00  0.00     0.035 H 
ATOM     38  H28 PRO d   1      33.450  66.972  38.002  0.00  0.00     0.035 H 
ATOM     39  H25 PRO d   1      34.437  68.652  35.637  0.00  0.00     0.036 H 
ATOM     40  H26 PRO d   1      33.664  67.031  35.596  0.00  0.00     0.036 H 
ATOM     41  O   PRO d   1      30.282  70.194  37.100  0.00  0.00    -0.271 OA
ATOM     42  H24 PRO d   1      32.199  69.337  35.307  0.00  0.00     0.087 H 
BRANCH  32  43
ATOM     43  CA  PRO d   1      31.388  70.854  39.114  0.00  0.00     0.092 C 
ATOM     44  N   PRO d   1      30.434  71.964  39.070  0.00  0.00    -0.337 N 
ATOM     45  CD  PRO d   1      29.285  71.692  39.945  0.00  0.00    -0.001 C 
ATOM     46  C   PRO d   1      30.679  73.094  38.391  0.00  0.00     0.243 C 
ATOM     47  CG  PRO d   1      29.928  70.885  41.025  0.00  0.00    -0.048 C 
ATOM     48  H22 PRO d   1      28.851  72.622  40.341  0.00  0.00     0.064 H 
ATOM     49  H23 PRO d   1      28.507  71.118  39.421  0.00  0.00     0.064 H 
ATOM     50  CB  PRO d   1      30.847  69.972  40.244  0.00  0.00    -0.036 C 
ATOM     51  H20 PRO d   1      30.496  71.525  41.716  0.00  0.00     0.035 H 
ATOM     52  H21 PRO d   1      29.180  70.309  41.590  0.00  0.00     0.035 H 
ATOM     53  H18 PRO d   1      31.667  69.608  40.880  0.00  0.00     0.036 H 
ATOM     54  H19 PRO d   1      30.291  69.115  39.837  0.00  0.00     0.036 H 
ATOM     55  O   PRO d   1      31.756  73.302  37.833  0.00  0.00    -0.271 OA
ATOM     56  H17 PRO d   1      32.417  71.191  39.311  0.00  0.00     0.087 H 
BRANCH  46  57
ATOM     57  CA  PRO d   1      29.600  74.162  38.427  0.00  0.00     0.092 C 
ATOM     58  N   PRO d   1      30.049  75.487  37.985  0.00  0.00    -0.337 N 
ATOM     59  CD  PRO d   1      29.401  75.862  36.714  0.00  0.00    -0.001 C 
ATOM     60  C   PRO d   1      31.005  76.188  38.627  0.00  0.00     0.251 C 
ATOM     61  CG  PRO d   1      28.891  74.537  36.208  0.00  0.00    -0.048 C 
ATOM     62  H15 PRO d   1      28.575  76.569  36.882  0.00  0.00     0.064 H 
ATOM     63  H16 PRO d   1      30.125  76.304  36.013  0.00  0.00     0.064 H 
ATOM     64  CB  PRO d   1      28.457  73.851  37.461  0.00  0.00    -0.036 C 
ATOM     65  H13 PRO d   1      28.045  74.675  35.518  0.00  0.00     0.035 H 
ATOM     66  H14 PRO d   1      29.688  73.972  35.703  0.00  0.00     0.035 H 
ATOM     67  H11 PRO d   1      27.505  74.261  37.828  0.00  0.00     0.036 H 
ATOM     68  H12 PRO d   1      28.354  72.767  37.304  0.00  0.00     0.036 H 
ATOM     69  O   PRO d   1      31.604  75.730  39.605  0.00  0.00    -0.271 OA
ATOM     70  H10 PRO d   1      29.220  74.224  39.457  0.00  0.00     0.087 H 
BRANCH  60  71
ATOM     71  CA  PRO d   1      31.366  77.569  38.055  0.00  0.00     0.178 C 
ATOM     72  N   PRO d   1      30.399  78.597  38.464  0.00  0.00    -0.062 N 
ATOM     73  CD  PRO d   1      31.013  79.574  39.381  0.00  0.00     0.083 C 
ATOM     74  H1  PRO d   1      29.623  78.152  38.929  0.00  0.00     0.278 HD
ATOM     75  H2  PRO d   1      30.067  79.080  37.644  0.00  0.00     0.278 HD
ATOM     76  CG  PRO d   1      32.242  78.843  39.856  0.00  0.00    -0.040 C 
ATOM     77  H8  PRO d   1      31.280  80.501  38.853  0.00  0.00     0.075 H 
ATOM     78  H9  PRO d   1      30.341  79.810  40.219  0.00  0.00     0.075 H 
ATOM     79  CB  PRO d   1      32.682  78.105  38.622  0.00  0.00    -0.028 C 
ATOM     80  H6  PRO d   1      33.016  79.547  40.195  0.00  0.00     0.035 H 
ATOM     81  H7  PRO d   1      31.999  78.145  40.671  0.00  0.00     0.035 H 
ATOM     82  H4  PRO d   1      33.172  78.784  37.909  0.00  0.00     0.036 H 
ATOM     83  H5  PRO d   1      33.367  77.283  38.876  0.00  0.00     0.036 H 
ATOM     84  H3  PRO d   1      31.417  77.497  36.959  0.00  0.00     0.099 H 
ENDBRANCH  60  71
ENDBRANCH  46  57
ENDBRANCH  32  43
ENDBRANCH  18  29
ENDBRANCH   1  15
BRANCH   4  85
ATOM     85  C   PRO d   1      29.560  62.819  32.865  0.00  0.00     0.243 C 
ATOM     86  O   PRO d   1      29.277  63.718  32.077  0.00  0.00    -0.271 OA
ATOM     87  N   PRO d   1      30.277  61.759  32.487  0.00  0.00    -0.337 N 
ATOM     88  CA  PRO d   1      30.683  61.681  31.085  0.00  0.00     0.092 C 
ATOM     89  CD  PRO d   1      30.758  60.594  33.255  0.00  0.00    -0.001 C 
ATOM     90  CB  PRO d   1      31.698  60.544  31.102  0.00  0.00    -0.036 C 
ATOM     91  H45 PRO d   1      31.137  62.617  30.728  0.00  0.00     0.087 H 
ATOM     92  CG  PRO d   1      31.155  59.635  32.170  0.00  0.00    -0.048 C 
ATOM     93  H46 PRO d   1      32.701  60.911  31.365  0.00  0.00     0.036 H 
ATOM     94  H47 PRO d   1      31.738  60.033  30.129  0.00  0.00     0.036 H 
ATOM     95  H48 PRO d   1      31.926  58.934  32.523  0.00  0.00     0.035 H 
ATOM     96  H49 PRO d   1      30.285  59.069  31.804  0.00  0.00     0.035 H 
ATOM     97  H50 PRO d   1      31.619  60.861  33.885  0.00  0.00     0.064 H 
ATOM     98  H51 PRO d   1      29.959  60.175  33.884  0.00  0.00     0.064 H 
BRANCH  88  99
ATOM     99  C   PRO d   1      29.444  61.344  30.258  0.00  0.00     0.243 C 
ATOM    100  O   PRO d   1      28.341  61.260  30.803  0.00  0.00    -0.271 OA
ATOM    101  N   PRO d   1      29.571  61.298  28.925  0.00  0.00    -0.337 N 
ATOM    102  CA  PRO d   1      28.356  60.958  28.183  0.00  0.00     0.092 C 
ATOM    103  CD  PRO d   1      30.579  61.867  28.023  0.00  0.00    -0.001 C 
ATOM    104  CB  PRO d   1      28.727  61.307  26.742  0.00  0.00    -0.036 C 
ATOM    105  H52 PRO d   1      27.479  61.526  28.526  0.00  0.00     0.087 H 
ATOM    106  CG  PRO d   1      29.711  62.409  26.914  0.00  0.00    -0.048 C 
ATOM    107  H53 PRO d   1      27.846  61.647  26.177  0.00  0.00     0.036 H 
ATOM    108  H54 PRO d   1      29.182  60.446  26.230  0.00  0.00     0.036 H 
ATOM    109  H55 PRO d   1      29.217  63.346  27.212  0.00  0.00     0.035 H 
ATOM    110  H56 PRO d   1      30.291  62.576  25.995  0.00  0.00     0.035 H 
ATOM    111  H57 PRO d   1      31.152  62.667  28.514  0.00  0.00     0.064 H 
ATOM    112  H58 PRO d   1      31.270  61.095  27.653  0.00  0.00     0.064 H 
BRANCH 102 113
ATOM    113  C   PRO d   1      28.133  59.465  28.350  0.00  0.00     0.243 C 
ATOM    114  O   PRO d   1      29.051  58.739  28.741  0.00  0.00    -0.271 OA
ATOM    115  N   PRO d   1      26.888  59.004  28.162  0.00  0.00    -0.337 N 
ATOM    116  CA  PRO d   1      26.567  57.580  28.296  0.00  0.00     0.092 C 
ATOM    117  CD  PRO d   1      25.658  59.802  27.984  0.00  0.00    -0.001 C 
ATOM    118  CB  PRO d   1      25.129  57.535  27.798  0.00  0.00    -0.036 C 
ATOM    119  H59 PRO d   1      26.612  57.273  29.351  0.00  0.00     0.087 H 
ATOM    120  CG  PRO d   1      24.569  58.820  28.362  0.00  0.00    -0.048 C 
ATOM    121  H60 PRO d   1      24.595  56.658  28.193  0.00  0.00     0.036 H 
ATOM    122  H61 PRO d   1      25.085  57.527  26.699  0.00  0.00     0.036 H 
ATOM    123  H62 PRO d   1      24.441  58.760  29.453  0.00  0.00     0.035 H 
ATOM    124  H63 PRO d   1      23.609  59.082  27.893  0.00  0.00     0.035 H 
ATOM    125  H64 PRO d   1      25.652  60.677  28.651  0.00  0.00     0.064 H 
ATOM    126  H65 PRO d   1      25.548  60.135  26.941  0.00  0.00     0.064 H 
BRANCH 116 127
ATOM    127  C   PRO d   1      27.536  56.687  27.495  0.00  0.00     0.243 C 
ATOM    128  O   PRO d   1      28.130  57.139  26.513  0.00  0.00    -0.271 OA
ATOM    129  N   PRO d   1      27.639  55.396  27.865  0.00  0.00    -0.336 N 
ATOM    130  CA  PRO d   1      28.481  54.350  27.293  0.00  0.00     0.098 C 
ATOM    131  CD  PRO d   1      26.405  54.749  28.312  0.00  0.00    -0.001 C 
ATOM    132  CB  PRO d   1      27.499  53.608  26.396  0.00  0.00    -0.035 C 
ATOM    133  H66 PRO d   1      28.793  53.680  28.108  0.00  0.00     0.089 H 
ATOM    134  CG  PRO d   1      26.192  53.675  27.218  0.00  0.00    -0.048 C 
ATOM    135  H67 PRO d   1      27.815  52.567  26.234  0.00  0.00     0.036 H 
ATOM    136  H68 PRO d   1      27.386  54.113  25.425  0.00  0.00     0.036 H 
ATOM    137  H69 PRO d   1      25.986  52.699  27.681  0.00  0.00     0.035 H 
ATOM    138  H70 PRO d   1      25.351  53.958  26.569  0.00  0.00     0.035 H 
ATOM    139  H71 PRO d   1      26.531  54.290  29.304  0.00  0.00     0.064 H 
ATOM    140  H72 PRO d   1      25.568  55.462  28.341  0.00  0.00     0.064 H 
BRANCH 130 141
ATOM    141  C   PRO d   1      29.771  54.778  26.589  0.00  0.00     0.196 C 
ATOM    142  O   PRO d   1      30.137  54.147  25.577  0.00  0.00    -0.646 OA
ATOM    143  OXT PRO d   1      30.467  55.662  27.137  0.00  0.00    -0.646 OA
ENDBRANCH 130 141
ENDBRANCH 116 127
ENDBRANCH 102 113
ENDBRANCH  88  99
ENDBRANCH   4  85
TORSDOF 10
