REMARK  12 active torsions:
REMARK  status: ('A' for Active; 'I' for Inactive)
REMARK    1  A    between atoms: C1_1  and  O1_7 
REMARK    2  A    between atoms: C2_2  and  O2_8 
REMARK    3  A    between atoms: C3_3  and  O3_9 
REMARK    4  A    between atoms: C4_4  and  O4_10 
REMARK    5  A    between atoms: C5_5  and  C6_6 
REMARK    6  A    between atoms: C6_6  and  O6_12 
REMARK    7  A    between atoms: O4_10  and  C1_13 
REMARK    8  A    between atoms: C2_14  and  O2_19 
REMARK    9  A    between atoms: C3_15  and  O3_20 
REMARK   10  A    between atoms: C4_16  and  O4_21 
REMARK   11  A    between atoms: C5_17  and  C6_18 
REMARK   12  A    between atoms: C6_18  and  O6_23 
ROOT
ATOM      1  O4  MOL d   1      18.351  -1.073  36.180  0.00  0.00    -0.348 OA
ENDROOT
BRANCH   1   2
ATOM      2  C4  MOL d   1      19.389  -1.277  37.158  0.00  0.00     0.096 C 
ATOM      3  C3  MOL d   1      20.138  -2.583  36.856  0.00  0.00     0.092 C 
ATOM      4  C2  MOL d   1      21.357  -2.707  37.760  0.00  0.00     0.110 C 
ATOM      5  H3  MOL d   1      20.465  -2.574  35.806  0.00  0.00     0.091 H 
ATOM      6  C1  MOL d   1      22.223  -1.455  37.643  0.00  0.00     0.156 C 
ATOM      7  H2  MOL d   1      21.023  -2.815  38.802  0.00  0.00     0.094 H 
ATOM      8  O5  MOL d   1      21.457  -0.305  37.994  0.00  0.00    -0.349 OA
ATOM      9  H1  MOL d   1      22.597  -1.359  36.613  0.00  0.00     0.133 H 
ATOM     10  C5  MOL d   1      20.362  -0.097  37.092  0.00  0.00     0.089 C 
ATOM     11  H5  MOL d   1      20.747  -0.033  36.064  0.00  0.00     0.090 H 
ATOM     12  H4  MOL d   1      18.944  -1.334  38.163  0.00  0.00     0.091 H 
BRANCH   3  13
ATOM     13  O3  MOL d   1      19.287  -3.697  37.070  0.00  0.00    -0.390 OA
ATOM     14  H10 MOL d   1      18.532  -3.632  36.498  0.00  0.00     0.210 HD
ENDBRANCH   3  13
BRANCH   4  15
ATOM     15  O2  MOL d   1      22.108  -3.857  37.391  0.00  0.00    -0.388 OA
ATOM     16  H9  MOL d   1      22.391  -3.773  36.488  0.00  0.00     0.210 HD
ENDBRANCH   4  15
BRANCH   6  17
ATOM     17  O1  MOL d   1      23.283  -1.537  38.526  0.00  0.00    -0.369 OA
ATOM     18  H8  MOL d   1      23.813  -0.752  38.456  0.00  0.00     0.212 HD
ENDBRANCH   6  17
BRANCH  10  19
ATOM     19  C6  MOL d   1      19.730   1.232  37.453  0.00  0.00     0.043 C 
ATOM     20  H6  MOL d   1      19.186   1.620  36.579  0.00  0.00     0.078 H 
ATOM     21  H7  MOL d   1      20.522   1.941  37.736  0.00  0.00     0.078 H 
BRANCH  19  22
ATOM     22  O6  MOL d   1      18.825   1.092  38.538  0.00  0.00    -0.398 OA
ATOM     23  H11 MOL d   1      18.444   1.938  38.743  0.00  0.00     0.209 HD
ENDBRANCH  19  22
ENDBRANCH  10  19
ENDBRANCH   1   2
BRANCH   1  24
ATOM     24  C1  MOL d   1      17.064  -1.466  36.505  0.00  0.00     0.159 C 
ATOM     25  C2  MOL d   1      16.088  -0.813  35.520  0.00  0.00     0.110 C 
ATOM     26  C3  MOL d   1      14.673  -1.364  35.716  0.00  0.00     0.092 C 
ATOM     27  H13 MOL d   1      16.416  -1.040  34.495  0.00  0.00     0.094 H 
ATOM     28  C4  MOL d   1      14.709  -2.886  35.594  0.00  0.00     0.090 C 
ATOM     29  H14 MOL d   1      14.309  -1.087  36.717  0.00  0.00     0.091 H 
ATOM     30  C5  MOL d   1      15.688  -3.424  36.631  0.00  0.00     0.089 C 
ATOM     31  H15 MOL d   1      13.706  -3.297  35.783  0.00  0.00     0.091 H 
ATOM     32  O5  MOL d   1      17.007  -2.895  36.384  0.00  0.00    -0.348 OA
ATOM     33  H16 MOL d   1      15.346  -3.106  37.627  0.00  0.00     0.090 H 
ATOM     34  H12 MOL d   1      16.817  -1.163  37.533  0.00  0.00     0.133 H 
BRANCH  25  35
ATOM     35  O2  MOL d   1      16.091   0.595  35.702  0.00  0.00    -0.388 OA
ATOM     36  H19 MOL d   1      15.508   0.996  35.068  0.00  0.00     0.210 HD
ENDBRANCH  25  35
BRANCH  26  37
ATOM     37  O3  MOL d   1      13.801  -0.821  34.736  0.00  0.00    -0.390 OA
ATOM     38  H20 MOL d   1      12.926  -1.167  34.866  0.00  0.00     0.210 HD
ENDBRANCH  26  37
BRANCH  28  39
ATOM     39  O4  MOL d   1      15.134  -3.260  34.286  0.00  0.00    -0.390 OA
ATOM     40  H21 MOL d   1      14.519  -2.921  33.646  0.00  0.00     0.210 HD
ENDBRANCH  28  39
BRANCH  30  41
ATOM     41  C6  MOL d   1      15.803  -4.931  36.613  0.00  0.00     0.043 C 
ATOM     42  H17 MOL d   1      16.149  -5.255  35.620  0.00  0.00     0.078 H 
ATOM     43  H18 MOL d   1      14.816  -5.371  36.819  0.00  0.00     0.078 H 
BRANCH  41  44
ATOM     44  O6  MOL d   1      16.723  -5.374  37.593  0.00  0.00    -0.398 OA
ATOM     45  H22 MOL d   1      17.577  -4.998  37.416  0.00  0.00     0.209 HD
ENDBRANCH  41  44
ENDBRANCH  30  41
ENDBRANCH   1  24
TORSDOF 12
