REMARK  13 active torsions:
REMARK  status: ('A' for Active; 'I' for Inactive)
REMARK    1  A    between atoms: C1_1  and  O1_10 
REMARK    2  A    between atoms: N2_9  and  C2_2 
REMARK    3  A    between atoms: C3_3  and  O3_11 
REMARK    4  A    between atoms: C4_4  and  O4_12 
REMARK    5  A    between atoms: C5_5  and  C6_6 
REMARK    6  A    between atoms: C6_6  and  O6_14 
REMARK    7  A    between atoms: C7_7  and  C8_8 
REMARK       I    between atoms: C7_7  and  N2_9 
REMARK    8  A    between atoms: O4_12  and  C1_16 
REMARK    9  A    between atoms: C2_17  and  O2_22 
REMARK   10  A    between atoms: C3_18  and  O3_23 
REMARK   11  A    between atoms: C4_19  and  O4_24 
REMARK   12  A    between atoms: C5_20  and  C6_21 
REMARK   13  A    between atoms: C6_21  and  O6_26 
ROOT
ATOM      1  C1  MOL d   1      22.142  -1.276  37.978  0.00  0.00     0.151 C 
ATOM      2  C2  MOL d   1      21.336  -2.572  38.024  0.00  0.00     0.086 C 
ATOM      3  C3  MOL d   1      20.153  -2.514  37.056  0.00  0.00     0.087 C 
ATOM      4  C4  MOL d   1      19.324  -1.247  37.308  0.00  0.00     0.095 C 
ATOM      5  C5  MOL d   1      20.251  -0.029  37.268  0.00  0.00     0.089 C 
ATOM      6  O5  MOL d   1      21.288  -0.166  38.255  0.00  0.00    -0.349 OA
ATOM      7  H1  MOL d   1      22.953  -1.319  38.720  0.00  0.00     0.132 H 
ATOM      8  H2  MOL d   1      20.953  -2.714  39.045  0.00  0.00     0.084 H 
ATOM      9  H3  MOL d   1      20.532  -2.494  36.023  0.00  0.00     0.090 H 
ATOM     10  H4  MOL d   1      18.844  -1.313  38.295  0.00  0.00     0.091 H 
ATOM     11  H5  MOL d   1      20.707   0.014  36.268  0.00  0.00     0.090 H 
ENDROOT
BRANCH   4  12
ATOM     12  O4  MOL d   1      18.309  -1.108  36.289  0.00  0.00    -0.348 OA
BRANCH  12  13
ATOM     13  C1  MOL d   1      17.012  -1.492  36.608  0.00  0.00     0.159 C 
ATOM     14  C2  MOL d   1      16.038  -0.843  35.615  0.00  0.00     0.110 C 
ATOM     15  C3  MOL d   1      14.620  -1.393  35.802  0.00  0.00     0.092 C 
ATOM     16  H16 MOL d   1      16.372  -1.071  34.592  0.00  0.00     0.094 H 
ATOM     17  C4  MOL d   1      14.650  -2.915  35.708  0.00  0.00     0.090 C 
ATOM     18  H17 MOL d   1      14.244  -1.097  36.792  0.00  0.00     0.091 H 
ATOM     19  C5  MOL d   1      15.626  -3.442  36.751  0.00  0.00     0.089 C 
ATOM     20  H18 MOL d   1      13.645  -3.318  35.903  0.00  0.00     0.091 H 
ATOM     21  O5  MOL d   1      16.946  -2.920  36.502  0.00  0.00    -0.348 OA
ATOM     22  H19 MOL d   1      15.283  -3.116  37.744  0.00  0.00     0.090 H 
ATOM     23  H15 MOL d   1      16.763  -1.178  37.632  0.00  0.00     0.133 H 
BRANCH  14  24
ATOM     24  O2  MOL d   1      16.037   0.566  35.796  0.00  0.00    -0.388 OA
ATOM     25  H22 MOL d   1      16.919   0.900  35.679  0.00  0.00     0.210 HD
ENDBRANCH  14  24
BRANCH  15  26
ATOM     26  O3  MOL d   1      13.761  -0.868  34.800  0.00  0.00    -0.390 OA
ATOM     27  H23 MOL d   1      12.883  -1.209  34.926  0.00  0.00     0.210 HD
ENDBRANCH  15  26
BRANCH  17  28
ATOM     28  O4  MOL d   1      15.074  -3.311  34.407  0.00  0.00    -0.390 OA
ATOM     29  H24 MOL d   1      14.461  -2.979  33.761  0.00  0.00     0.210 HD
ENDBRANCH  17  28
BRANCH  19  30
ATOM     30  C6  MOL d   1      15.738  -4.952  36.738  0.00  0.00     0.043 C 
ATOM     31  H20 MOL d   1      16.035  -5.284  35.732  0.00  0.00     0.078 H 
ATOM     32  H21 MOL d   1      14.762  -5.389  36.995  0.00  0.00     0.078 H 
BRANCH  30  33
ATOM     33  O6  MOL d   1      16.705  -5.387  37.677  0.00  0.00    -0.398 OA
ATOM     34  H25 MOL d   1      17.550  -5.013  37.456  0.00  0.00     0.209 HD
ENDBRANCH  30  33
ENDBRANCH  19  30
ENDBRANCH  12  13
ENDBRANCH   4  12
BRANCH   3  35
ATOM     35  O3  MOL d   1      19.347  -3.670  37.235  0.00  0.00    -0.391 OA
ATOM     36  H13 MOL d   1      18.620  -3.646  36.623  0.00  0.00     0.210 HD
ENDBRANCH   3  35
BRANCH   5  37
ATOM     37  C6  MOL d   1      19.553   1.289  37.531  0.00  0.00     0.043 C 
ATOM     38  H6  MOL d   1      18.968   1.568  36.643  0.00  0.00     0.078 H 
ATOM     39  H7  MOL d   1      20.310   2.062  37.730  0.00  0.00     0.078 H 
BRANCH  37  40
ATOM     40  O6  MOL d   1      18.683   1.195  38.648  0.00  0.00    -0.398 OA
ATOM     41  H14 MOL d   1      18.260   2.034  38.790  0.00  0.00     0.209 HD
ENDBRANCH  37  40
ENDBRANCH   5  37
BRANCH   2  42
ATOM     42  N2  MOL d   1      22.185  -3.695  37.677  0.00  0.00    -0.349 N 
ATOM     43  C7  MOL d   1      22.623  -4.517  38.624  0.00  0.00     0.214 C 
ATOM     44  O7  MOL d   1      22.349  -4.374  39.821  0.00  0.00    -0.274 OA
ATOM     45  H11 MOL d   1      22.441  -3.851  36.723  0.00  0.00     0.163 HD
BRANCH  43  46
ATOM     46  C8  MOL d   1      23.503  -5.672  38.172  0.00  0.00    -0.003 C 
ATOM     47  H8  MOL d   1      23.796  -6.273  39.045  0.00  0.00     0.040 H 
ATOM     48  H9  MOL d   1      24.404  -5.276  37.680  0.00  0.00     0.040 H 
ATOM     49  H10 MOL d   1      22.945  -6.302  37.464  0.00  0.00     0.040 H 
ENDBRANCH  43  46
ENDBRANCH   2  42
BRANCH   1  50
ATOM     50  O1  MOL d   1      22.670  -1.102  36.708  0.00  0.00    -0.369 OA
ATOM     51  H12 MOL d   1      21.963  -1.065  36.075  0.00  0.00     0.212 HD
ENDBRANCH   1  50
TORSDOF 13
