REMARK  5 active torsions:
REMARK  status: ('A' for Active; 'I' for Inactive)
REMARK    1  A    between atoms: C2_2  and  O2_11 
REMARK    2  A    between atoms: C3_3  and  O3_12 
REMARK    3  A    between atoms: C4_4  and  O4_13 
REMARK    4  A    between atoms: C5_5  and  C6_6 
REMARK    5  A    between atoms: C6_6  and  O6_14 
ROOT
ATOM      1  C1  HTP d   1      34.130  22.454  27.244  0.00  0.00     0.077 A 
ATOM      2  C2  HTP d   1      34.015  22.875  25.792  0.00  0.00     0.105 C 
ATOM      3  C3  HTP d   1      32.610  22.460  25.276  0.00  0.00     0.092 C 
ATOM      4  C4  HTP d   1      32.349  20.999  25.610  0.00  0.00     0.086 C 
ATOM      5  C5  HTP d   1      32.153  20.853  27.140  0.00  0.00     0.079 C 
ATOM      6  C7  HTP d   1      35.011  22.802  28.219  0.00  0.00     0.045 A 
ATOM      7  N17 HTP d   1      33.646  21.276  29.117  0.00  0.00     0.005 NA
ATOM      8  N18 HTP d   1      34.738  22.104  29.332  0.00  0.00    -0.170 NA
ATOM      9  N1  HTP d   1      33.243  21.489  27.806  0.00  0.00    -0.265 N 
ATOM     10  H1  HTP d   1      34.763  22.302  25.224  0.00  0.00     0.097 H 
ATOM     11  H2  HTP d   1      31.839  23.090  25.743  0.00  0.00     0.091 H 
ATOM     12  H3  HTP d   1      33.243  20.427  25.319  0.00  0.00     0.090 H 
ATOM     13  H4  HTP d   1      31.221  21.371  27.410  0.00  0.00     0.082 H 
ATOM     14  H7  HTP d   1      35.812  23.532  28.113  0.00  0.00     0.120 H 
ENDROOT
BRANCH   5  15
ATOM     15  C6  HTP d   1      32.040  19.428  27.618  0.00  0.00     0.040 C 
ATOM     16  H5  HTP d   1      31.093  18.990  27.271  0.00  0.00     0.077 H 
ATOM     17  H6  HTP d   1      32.077  19.397  28.717  0.00  0.00     0.077 H 
BRANCH  15  18
ATOM     18  O6  HTP d   1      33.141  18.701  27.073  0.00  0.00    -0.399 OA
ATOM     19  H11 HTP d   1      33.955  19.088  27.374  0.00  0.00     0.209 HD
ENDBRANCH  15  18
ENDBRANCH   5  15
BRANCH   4  20
ATOM     20  O4  HTP d   1      31.245  20.437  24.922  0.00  0.00    -0.391 OA
ATOM     21  H10 HTP d   1      30.450  20.888  25.180  0.00  0.00     0.210 HD
ENDBRANCH   4  20
BRANCH   3  22
ATOM     22  O3  HTP d   1      32.588  22.628  23.883  0.00  0.00    -0.390 OA
ATOM     23  H9  HTP d   1      32.751  23.540  23.672  0.00  0.00     0.210 HD
ENDBRANCH   3  22
BRANCH   2  24
ATOM     24  O2  HTP d   1      34.297  24.249  25.561  0.00  0.00    -0.387 OA
ATOM     25  H8  HTP d   1      35.163  24.453  25.893  0.00  0.00     0.210 HD
ENDBRANCH   2  24
TORSDOF 5
