REMARK  8 active torsions:
REMARK  status: ('A' for Active; 'I' for Inactive)
REMARK    1  A    between atoms: C4_5  and  C7_7 
REMARK    2  A    between atoms: C11_9  and  O19_19 
REMARK    3  A    between atoms: C10_10  and  C13_13 
REMARK    4  A    between atoms: C16_16  and  C20_20 
REMARK       I    between atoms: C20_20  and  N22_22 
REMARK    5  A    between atoms: N22_22  and  C23_23 
REMARK    6  A    between atoms: C23_23  and  C24_24 
REMARK    7  A    between atoms: C24_24  and  C25_25 
REMARK    8  A    between atoms: C25_25  and  C26_26 
ROOT
ATOM      1  C7  HOP d   1       8.886  -3.853  57.387  0.00  0.00    -0.026 C 
ATOM      2  C12 HOP d   1       9.018  -5.418  57.282  0.00  0.00    -0.033 C 
ATOM      3  C11 HOP d   1       8.570  -5.978  55.890  0.00  0.00     0.043 C 
ATOM      4  C10 HOP d   1       9.404  -5.312  54.739  0.00  0.00    -0.004 C 
ATOM      5  C9  HOP d   1       9.203  -3.753  54.803  0.00  0.00    -0.055 C 
ATOM      6  C8  HOP d   1       9.623  -3.178  56.192  0.00  0.00    -0.057 C 
ATOM      7  H6  HOP d   1       7.818  -3.607  57.297  0.00  0.00     0.047 H 
ATOM      8  H7  HOP d   1       8.392  -5.876  58.062  0.00  0.00     0.037 H 
ATOM      9  H8  HOP d   1      10.070  -5.693  57.448  0.00  0.00     0.037 H 
ATOM     10  H9  HOP d   1       7.508  -5.737  55.734  0.00  0.00     0.084 H 
ATOM     11  H10 HOP d   1      10.465  -5.533  54.925  0.00  0.00     0.051 H 
ATOM     12  H11 HOP d   1       8.142  -3.522  54.627  0.00  0.00     0.034 H 
ATOM     13  H12 HOP d   1       9.816  -3.281  54.021  0.00  0.00     0.034 H 
ATOM     14  H13 HOP d   1      10.705  -3.329  56.319  0.00  0.00     0.034 H 
ATOM     15  H14 HOP d   1       9.398  -2.101  56.206  0.00  0.00     0.034 H 
ENDROOT
BRANCH   4  16
ATOM     16  C13 HOP d   1       9.056  -5.851  53.302  0.00  0.00    -0.051 A 
ATOM     17  C14 HOP d   1       7.792  -5.675  52.643  0.00  0.00    -0.075 A 
ATOM     18  C15 HOP d   1       7.594  -6.203  51.319  0.00  0.00    -0.067 A 
ATOM     19  H15 HOP d   1       6.989  -5.145  53.142  0.00  0.00     0.084 H 
ATOM     20  C16 HOP d   1       8.652  -6.914  50.627  0.00  0.00     0.032 A 
ATOM     21  H16 HOP d   1       6.636  -6.067  50.830  0.00  0.00     0.085 H 
ATOM     22  C17 HOP d   1       9.894  -7.070  51.313  0.00  0.00    -0.067 A 
ATOM     23  C18 HOP d   1      10.091  -6.552  52.615  0.00  0.00    -0.075 A 
ATOM     24  H17 HOP d   1      10.705  -7.598  50.825  0.00  0.00     0.085 H 
ATOM     25  H18 HOP d   1      11.050  -6.691  53.101  0.00  0.00     0.084 H 
BRANCH  20  26
ATOM     26  C20 HOP d   1       8.489  -7.496  49.206  0.00  0.00     0.251 C 
ATOM     27  O21 HOP d   1       9.439  -8.095  48.670  0.00  0.00    -0.268 OA
ATOM     28  N22 HOP d   1       7.301  -7.358  48.521  0.00  0.00    -0.357 N 
ATOM     29  H20 HOP d   1       6.550  -6.872  48.968  0.00  0.00     0.162 HD
BRANCH  28  30
ATOM     30  C23 HOP d   1       7.074  -7.898  47.141  0.00  0.00    -0.004 C 
ATOM     31  H21 HOP d   1       6.651  -8.911  47.218  0.00  0.00     0.064 H 
ATOM     32  H22 HOP d   1       8.037  -7.942  46.611  0.00  0.00     0.064 H 
BRANCH  30  33
ATOM     33  C24 HOP d   1       6.096  -7.003  46.337  0.00  0.00    -0.041 C 
ATOM     34  H23 HOP d   1       5.874  -6.106  46.933  0.00  0.00     0.036 H 
ATOM     35  H24 HOP d   1       5.168  -7.567  46.164  0.00  0.00     0.036 H 
BRANCH  33  36
ATOM     36  C25 HOP d   1       6.666  -6.553  44.958  0.00  0.00     0.017 C 
ATOM     37  H25 HOP d   1       7.725  -6.291  45.099  0.00  0.00     0.049 H 
ATOM     38  H26 HOP d   1       6.107  -5.662  44.635  0.00  0.00     0.049 H 
BRANCH  36  39
ATOM     39  C26 HOP d   1       6.582  -7.601  43.830  0.00  0.00     0.172 C 
ATOM     40  O27 HOP d   1       5.544  -8.178  43.480  0.00  0.00    -0.648 OA
ATOM     41  O28 HOP d   1       7.794  -7.824  43.243  0.00  0.00    -0.648 OA
ENDBRANCH  36  39
ENDBRANCH  33  36
ENDBRANCH  30  33
ENDBRANCH  28  30
ENDBRANCH  20  26
ENDBRANCH   4  16
BRANCH   3  42
ATOM     42  O19 HOP d   1       8.722  -7.397  55.889  0.00  0.00    -0.395 OA
ATOM     43  H19 HOP d   1       9.638  -7.616  56.014  0.00  0.00     0.210 HD
ENDBRANCH   3  42
BRANCH   1  44
ATOM     44  C4  HOP d   1       9.365  -3.297  58.764  0.00  0.00    -0.054 A 
ATOM     45  C5  HOP d   1      10.771  -3.170  59.057  0.00  0.00    -0.076 A 
ATOM     46  C6  HOP d   1      11.214  -2.685  60.316  0.00  0.00    -0.082 A 
ATOM     47  H4  HOP d   1      11.501  -3.449  58.305  0.00  0.00     0.084 H 
ATOM     48  C1  HOP d   1      10.264  -2.322  61.300  0.00  0.00    -0.083 A 
ATOM     49  H3  HOP d   1      12.274  -2.593  60.522  0.00  0.00     0.083 H 
ATOM     50  C2  HOP d   1       8.877  -2.438  61.024  0.00  0.00    -0.082 A 
ATOM     51  H1  HOP d   1      10.596  -1.955  62.265  0.00  0.00     0.083 H 
ATOM     52  C3  HOP d   1       8.428  -2.923  59.765  0.00  0.00    -0.076 A 
ATOM     53  H2  HOP d   1       8.153  -2.154  61.780  0.00  0.00     0.083 H 
ATOM     54  H5  HOP d   1       7.365  -3.008  59.568  0.00  0.00     0.084 H 
ENDBRANCH   1  44
TORSDOF 8
