REMARK  6 active torsions:
REMARK  status: ('A' for Active; 'I' for Inactive)
REMARK    1  A    between atoms: C1_1  and  O1_7 
REMARK    2  A    between atoms: C2_2  and  O2_8 
REMARK    3  A    between atoms: C3_3  and  O3_9 
REMARK    4  A    between atoms: C4_4  and  O4_10 
REMARK    5  A    between atoms: C5_5  and  C6_6 
REMARK    6  A    between atoms: C6_6  and  O6_12 
ROOT
ATOM      1  C1  GAL d   1      16.989  -1.261  36.522  0.00  0.00     0.156 C 
ATOM      2  C2  GAL d   1      16.000  -0.680  35.510  0.00  0.00     0.110 C 
ATOM      3  C3  GAL d   1      14.605  -1.240  35.768  0.00  0.00     0.092 C 
ATOM      4  C4  GAL d   1      14.655  -2.766  35.762  0.00  0.00     0.090 C 
ATOM      5  C5  GAL d   1      15.701  -3.254  36.762  0.00  0.00     0.089 C 
ATOM      6  O5  GAL d   1      16.988  -2.689  36.449  0.00  0.00    -0.349 OA
ATOM      7  H1  GAL d   1      16.706  -0.940  37.535  0.00  0.00     0.133 H 
ATOM      8  H2  GAL d   1      16.318  -0.957  34.494  0.00  0.00     0.094 H 
ATOM      9  H3  GAL d   1      14.252  -0.893  36.751  0.00  0.00     0.091 H 
ATOM     10  H4  GAL d   1      13.669  -3.161  36.048  0.00  0.00     0.091 H 
ATOM     11  H5  GAL d   1      15.395  -2.935  37.769  0.00  0.00     0.090 H 
ENDROOT
BRANCH   5  12
ATOM     12  C6  GAL d   1      15.862  -4.760  36.748  0.00  0.00     0.043 C 
ATOM     13  H6  GAL d   1      16.286  -5.068  35.781  0.00  0.00     0.078 H 
ATOM     14  H7  GAL d   1      14.876  -5.229  36.882  0.00  0.00     0.078 H 
BRANCH  12  15
ATOM     15  O6  GAL d   1      16.725  -5.187  37.791  0.00  0.00    -0.398 OA
ATOM     16  H12 GAL d   1      16.811  -6.133  37.762  0.00  0.00     0.209 HD
ENDBRANCH  12  15
ENDBRANCH   5  12
BRANCH   4  17
ATOM     17  O4  GAL d   1      14.985  -3.232  34.461  0.00  0.00    -0.390 OA
ATOM     18  H11 GAL d   1      14.326  -2.936  33.843  0.00  0.00     0.210 HD
ENDBRANCH   4  17
BRANCH   3  19
ATOM     19  O3  GAL d   1      13.710  -0.784  34.763  0.00  0.00    -0.390 OA
ATOM     20  H10 GAL d   1      12.843  -1.136  34.929  0.00  0.00     0.210 HD
ENDBRANCH   3  19
BRANCH   1  21
ATOM     21  O1  GAL d   1      18.268  -0.822  36.229  0.00  0.00    -0.369 OA
ATOM     22  H8  GAL d   1      18.878  -1.185  36.860  0.00  0.00     0.212 HD
ENDBRANCH   1  21
BRANCH   2  23
ATOM     23  O2  GAL d   1      15.977   0.736  35.622  0.00  0.00    -0.388 OA
ATOM     24  H9  GAL d   1      16.845   1.080  35.448  0.00  0.00     0.210 HD
ENDBRANCH   2  23
TORSDOF 6
