REMARK  23 active torsions:
REMARK  status: ('A' for Active; 'I' for Inactive)
REMARK    1  A    between atoms: C7_7  and  C4_4 
REMARK    2  A    between atoms: O8_8  and  C7_7 
REMARK    3  A    between atoms: C9_9  and  O8_8 
REMARK       I    between atoms: N20_20  and  C9_9 
REMARK    4  A    between atoms: C11_11  and  C12_12 
REMARK    5  A    between atoms: C16_16  and  C11_11 
REMARK    6  A    between atoms: C11_11  and  N20_20 
REMARK    7  A    between atoms: C12_12  and  C13_13 
REMARK    8  A    between atoms: C13_13  and  C14_14 
REMARK    9  A    between atoms: C13_13  and  C15_15 
REMARK       I    between atoms: N18_18  and  C16_16 
REMARK   10  A    between atoms: N19_19  and  N18_18 
REMARK   11  A    between atoms: C21_21  and  N19_19 
REMARK   12  A    between atoms: C21_21  and  O22_22 
REMARK   13  A    between atoms: N41_41  and  C21_21 
REMARK   14  A    between atoms: C29_29  and  C26_26 
REMARK   15  A    between atoms: O30_30  and  C29_29 
REMARK   16  A    between atoms: C31_31  and  O30_30 
REMARK       I    between atoms: N42_42  and  C31_31 
REMARK   17  A    between atoms: C33_33  and  C34_34 
REMARK   18  A    between atoms: C38_38  and  C33_33 
REMARK   19  A    between atoms: C33_33  and  N42_42 
REMARK   20  A    between atoms: C34_34  and  C35_35 
REMARK   21  A    between atoms: C35_35  and  C36_36 
REMARK   22  A    between atoms: C35_35  and  C37_37 
REMARK       I    between atoms: N40_40  and  C38_38 
REMARK   23  A    between atoms: N40_40  and  N41_41 
ROOT
ATOM      1  C21 INA d   1     -22.089 -18.852  58.136  0.00  0.00     0.387 C 
ATOM      2  H22 INA d   1     -22.777 -19.568  58.610  0.00  0.00     0.185 H 
ENDROOT
BRANCH   1   3
ATOM      3  N19 INA d   1     -22.624 -18.534  56.742  0.00  0.00     0.062 N 
ATOM      4  H19 INA d   1     -22.273 -19.218  56.090  0.00  0.00     0.311 HD
ATOM      5  H20 INA d   1     -23.631 -18.571  56.758  0.00  0.00     0.311 HD
BRANCH   3   6
ATOM      6  N18 INA d   1     -22.192 -17.174  56.304  0.00  0.00    -0.182 N 
ATOM      7  C16 INA d   1     -23.003 -16.056  56.345  0.00  0.00     0.264 C 
ATOM      8  O17 INA d   1     -24.158 -16.147  56.754  0.00  0.00    -0.270 OA
ATOM      9  H18 INA d   1     -21.259 -17.065  55.960  0.00  0.00     0.196 HD
BRANCH   7  10
ATOM     10  C11 INA d   1     -22.453 -14.708  55.877  0.00  0.00     0.093 C 
ATOM     11  H8  INA d   1     -22.329 -14.787  54.787  0.00  0.00     0.087 H 
BRANCH  10  12
ATOM     12  C12 INA d   1     -21.047 -14.473  56.477  0.00  0.00    -0.035 C 
ATOM     13  H9  INA d   1     -20.506 -15.427  56.385  0.00  0.00     0.037 H 
ATOM     14  H10 INA d   1     -21.198 -14.239  57.541  0.00  0.00     0.037 H 
BRANCH  12  15
ATOM     15  C13 INA d   1     -20.107 -13.384  55.921  0.00  0.00    -0.059 C 
ATOM     16  H11 INA d   1     -19.502 -13.867  55.139  0.00  0.00     0.038 H 
BRANCH  15  17
ATOM     17  C14 INA d   1     -19.146 -12.915  57.006  0.00  0.00    -0.073 C 
ATOM     18  H12 INA d   1     -18.482 -12.139  56.597  0.00  0.00     0.028 H 
ATOM     19  H13 INA d   1     -18.544 -13.767  57.355  0.00  0.00     0.028 H 
ATOM     20  H14 INA d   1     -19.719 -12.501  57.849  0.00  0.00     0.028 H 
ENDBRANCH  15  17
BRANCH  15  21
ATOM     21  C15 INA d   1     -20.827 -12.173  55.229  0.00  0.00    -0.073 C 
ATOM     22  H15 INA d   1     -21.511 -12.548  54.453  0.00  0.00     0.028 H 
ATOM     23  H16 INA d   1     -20.076 -11.514  54.768  0.00  0.00     0.028 H 
ATOM     24  H17 INA d   1     -21.398 -11.608  55.980  0.00  0.00     0.028 H 
ENDBRANCH  15  21
ENDBRANCH  12  15
ENDBRANCH  10  12
BRANCH  10  25
ATOM     25  N20 INA d   1     -23.336 -13.552  56.102  0.00  0.00    -0.324 N 
ATOM     26  C9  INA d   1     -23.288 -12.790  57.200  0.00  0.00     0.361 C 
ATOM     27  O10 INA d   1     -22.497 -12.994  58.133  0.00  0.00    -0.238 OA
ATOM     28  H21 INA d   1     -24.007 -13.324  55.397  0.00  0.00     0.165 HD
BRANCH  26  29
ATOM     29  O8  INA d   1     -24.191 -11.680  57.239  0.00  0.00    -0.299 OA
BRANCH  29  30
ATOM     30  C7  INA d   1     -25.312 -11.537  58.158  0.00  0.00     0.054 C 
ATOM     31  H6  INA d   1     -25.689 -12.526  58.458  0.00  0.00     0.082 H 
ATOM     32  H7  INA d   1     -25.005 -10.975  59.052  0.00  0.00     0.082 H 
BRANCH  30  33
ATOM     33  C4  INA d   1     -26.368 -10.782  57.404  0.00  0.00    -0.034 A 
ATOM     34  C3  INA d   1     -27.111  -9.775  58.032  0.00  0.00    -0.075 A 
ATOM     35  C2  INA d   1     -28.070  -9.033  57.305  0.00  0.00    -0.082 A 
ATOM     36  H3  INA d   1     -26.950  -9.563  59.083  0.00  0.00     0.084 H 
ATOM     37  C1  INA d   1     -28.282  -9.310  55.936  0.00  0.00    -0.083 A 
ATOM     38  H2  INA d   1     -28.641  -8.254  57.797  0.00  0.00     0.083 H 
ATOM     39  C6  INA d   1     -27.542 -10.321  55.310  0.00  0.00    -0.082 A 
ATOM     40  H1  INA d   1     -29.014  -8.743  55.373  0.00  0.00     0.083 H 
ATOM     41  C5  INA d   1     -26.594 -11.048  56.046  0.00  0.00    -0.075 A 
ATOM     42  H5  INA d   1     -27.701 -10.541  54.261  0.00  0.00     0.083 H 
ATOM     43  H4  INA d   1     -26.026 -11.830  55.556  0.00  0.00     0.084 H 
ENDBRANCH  30  33
ENDBRANCH  29  30
ENDBRANCH  26  29
ENDBRANCH  10  25
ENDBRANCH   7  10
ENDBRANCH   3   6
ENDBRANCH   1   3
BRANCH   1  44
ATOM     44  O22 INA d   1     -22.102 -17.804  58.750  0.00  0.00    -0.346 OA
ATOM     45  H23 INA d   1     -21.776 -17.950  59.630  0.00  0.00     0.214 HD
ENDBRANCH   1  44
BRANCH   1  46
ATOM     46  N41 INA d   1     -20.704 -19.436  58.209  0.00  0.00     0.062 N 
ATOM     47  H42 INA d   1     -20.487 -19.627  59.175  0.00  0.00     0.311 HD
ATOM     48  H43 INA d   1     -20.051 -18.759  57.845  0.00  0.00     0.311 HD
BRANCH  46  49
ATOM     49  N40 INA d   1     -20.558 -20.703  57.430  0.00  0.00    -0.182 N 
ATOM     50  C38 INA d   1     -20.066 -21.831  58.030  0.00  0.00     0.264 C 
ATOM     51  O39 INA d   1     -19.736 -21.858  59.216  0.00  0.00    -0.270 OA
ATOM     52  H41 INA d   1     -20.821 -20.727  56.465  0.00  0.00     0.196 HD
BRANCH  50  53
ATOM     53  C33 INA d   1     -19.948 -23.086  57.184  0.00  0.00     0.093 C 
ATOM     54  H31 INA d   1     -19.848 -22.788  56.130  0.00  0.00     0.087 H 
BRANCH  53  55
ATOM     55  C34 INA d   1     -21.231 -23.902  57.348  0.00  0.00    -0.035 C 
ATOM     56  H32 INA d   1     -21.644 -24.078  56.344  0.00  0.00     0.037 H 
ATOM     57  H33 INA d   1     -21.938 -23.296  57.934  0.00  0.00     0.037 H 
BRANCH  55  58
ATOM     58  C35 INA d   1     -21.105 -25.252  58.035  0.00  0.00    -0.059 C 
ATOM     59  H34 INA d   1     -20.234 -25.210  58.705  0.00  0.00     0.038 H 
BRANCH  58  60
ATOM     60  C36 INA d   1     -22.315 -25.592  58.888  0.00  0.00    -0.073 C 
ATOM     61  H35 INA d   1     -22.168 -26.576  59.358  0.00  0.00     0.028 H 
ATOM     62  H36 INA d   1     -23.214 -25.619  58.255  0.00  0.00     0.028 H 
ATOM     63  H37 INA d   1     -22.440 -24.827  59.669  0.00  0.00     0.028 H 
ENDBRANCH  58  60
BRANCH  58  64
ATOM     64  C37 INA d   1     -20.840 -26.311  56.988  0.00  0.00    -0.073 C 
ATOM     65  H38 INA d   1     -19.959 -26.027  56.394  0.00  0.00     0.028 H 
ATOM     66  H39 INA d   1     -21.715 -26.400  56.327  0.00  0.00     0.028 H 
ATOM     67  H40 INA d   1     -20.654 -27.276  57.482  0.00  0.00     0.028 H 
ENDBRANCH  58  64
ENDBRANCH  55  58
ENDBRANCH  53  55
BRANCH  53  68
ATOM     68  N42 INA d   1     -18.779 -23.896  57.541  0.00  0.00    -0.324 N 
ATOM     69  C31 INA d   1     -17.558 -23.663  57.052  0.00  0.00     0.361 C 
ATOM     70  O32 INA d   1     -17.320 -22.741  56.267  0.00  0.00    -0.238 OA
ATOM     71  H44 INA d   1     -18.901 -24.657  58.179  0.00  0.00     0.165 HD
BRANCH  69  72
ATOM     72  O30 INA d   1     -16.523 -24.580  57.487  0.00  0.00    -0.299 OA
BRANCH  72  73
ATOM     73  C29 INA d   1     -15.452 -24.211  58.400  0.00  0.00     0.054 C 
ATOM     74  H29 INA d   1     -14.840 -23.450  57.893  0.00  0.00     0.082 H 
ATOM     75  H30 INA d   1     -15.922 -23.769  59.291  0.00  0.00     0.082 H 
BRANCH  73  76
ATOM     76  C26 INA d   1     -14.516 -25.287  58.879  0.00  0.00    -0.034 A 
ATOM     77  C25 INA d   1     -14.614 -25.791  60.172  0.00  0.00    -0.075 A 
ATOM     78  C24 INA d   1     -13.750 -26.799  60.623  0.00  0.00    -0.082 A 
ATOM     79  H26 INA d   1     -15.370 -25.398  60.842  0.00  0.00     0.084 H 
ATOM     80  C23 INA d   1     -12.778 -27.305  59.765  0.00  0.00    -0.083 A 
ATOM     81  H25 INA d   1     -13.838 -27.182  61.633  0.00  0.00     0.083 H 
ATOM     82  C28 INA d   1     -12.667 -26.809  58.471  0.00  0.00    -0.082 A 
ATOM     83  H24 INA d   1     -12.108 -28.086  60.106  0.00  0.00     0.083 H 
ATOM     84  C27 INA d   1     -13.536 -25.805  58.031  0.00  0.00    -0.075 A 
ATOM     85  H28 INA d   1     -11.908 -27.200  57.803  0.00  0.00     0.083 H 
ATOM     86  H27 INA d   1     -13.447 -25.425  57.020  0.00  0.00     0.084 H 
ENDBRANCH  73  76
ENDBRANCH  72  73
ENDBRANCH  69  72
ENDBRANCH  53  68
ENDBRANCH  50  53
ENDBRANCH  46  49
ENDBRANCH   1  46
TORSDOF 23
