REMARK  22 active torsions:
REMARK  status: ('A' for Active; 'I' for Inactive)
REMARK    1  A    between atoms: C7_7  and  C4_4 
REMARK    2  A    between atoms: O8_8  and  C7_7 
REMARK    3  A    between atoms: C9_9  and  O8_8 
REMARK       I    between atoms: N24_20  and  C9_9 
REMARK    4  A    between atoms: C11_11  and  C12_12 
REMARK    5  A    between atoms: C17_16  and  C11_11 
REMARK    6  A    between atoms: C11_11  and  N24_20 
REMARK    7  A    between atoms: C12_12  and  C14_13 
REMARK    8  A    between atoms: C14_13  and  C15_14 
REMARK    9  A    between atoms: C14_13  and  C16_15 
REMARK   10  A    between atoms: C21_22  and  C20_19 
REMARK   11  A    between atoms: C21_22  and  O22_23 
REMARK   12  A    between atoms: N42_42  and  C21_22 
REMARK   13  A    between atoms: C7'_30  and  C4'_27 
REMARK   14  A    between atoms: O8'_31  and  C7'_30 
REMARK   15  A    between atoms: C9'_32  and  O8'_31 
REMARK       I    between atoms: N43_43  and  C9'_32 
REMARK   16  A    between atoms: C34_34  and  C35_35 
REMARK   17  A    between atoms: C39_39  and  C34_34 
REMARK   18  A    between atoms: C34_34  and  N43_43 
REMARK   19  A    between atoms: C35_35  and  C36_36 
REMARK   20  A    between atoms: C36_36  and  C37_37 
REMARK   21  A    between atoms: C36_36  and  C38_38 
REMARK       I    between atoms: N41_41  and  C39_39 
REMARK   22  A    between atoms: N41_41  and  N42_42 
ROOT
ATOM      1  C21 IN6 d   1     -21.576 -19.104  58.242  0.00  0.00     0.255 C 
ATOM      2  H20 IN6 d   1     -22.282 -19.929  58.416  0.00  0.00     0.143 H 
ENDROOT
BRANCH   1   3
ATOM      3  C20 IN6 d   1     -22.208 -17.872  57.393  0.00  0.00     0.100 A 
ATOM      4  N19 IN6 d   1     -21.796 -16.549  57.498  0.00  0.00    -0.243 NA
ATOM      5  C17 IN6 d   1     -22.498 -15.590  56.800  0.00  0.00     0.098 A 
ATOM      6  S18 IN6 d   1     -23.784 -16.315  55.923  0.00  0.00    -0.082 SA
ATOM      7  C42 IN6 d   1     -23.274 -17.877  56.551  0.00  0.00    -0.015 A 
ATOM      8  H19 IN6 d   1     -23.786 -18.799  56.279  0.00  0.00     0.098 H 
BRANCH   5   9
ATOM      9  C11 IN6 d   1     -22.266 -14.013  56.705  0.00  0.00     0.063 C 
ATOM     10  H8  IN6 d   1     -22.613 -13.708  55.707  0.00  0.00     0.083 H 
BRANCH   9  11
ATOM     11  C12 IN6 d   1     -20.775 -13.625  56.802  0.00  0.00    -0.038 C 
ATOM     12  H9  IN6 d   1     -20.197 -14.554  56.685  0.00  0.00     0.037 H 
ATOM     13  H10 IN6 d   1     -20.618 -13.221  57.813  0.00  0.00     0.037 H 
BRANCH  11  14
ATOM     14  C14 IN6 d   1     -20.177 -12.602  55.816  0.00  0.00    -0.059 C 
ATOM     15  H11 IN6 d   1     -19.762 -13.174  54.974  0.00  0.00     0.038 H 
BRANCH  14  16
ATOM     16  C15 IN6 d   1     -19.006 -11.829  56.472  0.00  0.00    -0.073 C 
ATOM     17  H12 IN6 d   1     -18.595 -11.106  55.752  0.00  0.00     0.028 H 
ATOM     18  H13 IN6 d   1     -18.219 -12.538  56.769  0.00  0.00     0.028 H 
ATOM     19  H14 IN6 d   1     -19.372 -11.294  57.361  0.00  0.00     0.028 H 
ENDBRANCH  14  16
BRANCH  14  20
ATOM     20  C16 IN6 d   1     -21.222 -11.635  55.226  0.00  0.00    -0.073 C 
ATOM     21  H15 IN6 d   1     -22.039 -12.213  54.769  0.00  0.00     0.028 H 
ATOM     22  H16 IN6 d   1     -20.747 -11.003  54.461  0.00  0.00     0.028 H 
ATOM     23  H17 IN6 d   1     -21.627 -10.999  56.027  0.00  0.00     0.028 H 
ENDBRANCH  14  20
ENDBRANCH  11  14
ENDBRANCH   9  11
BRANCH   9  24
ATOM     24  N24 IN6 d   1     -23.054 -13.250  57.681  0.00  0.00    -0.326 N 
ATOM     25  C9  IN6 d   1     -24.031 -12.420  57.297  0.00  0.00     0.361 C 
ATOM     26  O10 IN6 d   1     -24.330 -12.231  56.098  0.00  0.00    -0.238 OA
ATOM     27  H18 IN6 d   1     -22.856 -13.353  58.656  0.00  0.00     0.165 HD
BRANCH  25  28
ATOM     28  O8  IN6 d   1     -24.727 -11.765  58.361  0.00  0.00    -0.299 OA
BRANCH  28  29
ATOM     29  C7  IN6 d   1     -25.200 -10.405  58.348  0.00  0.00     0.054 C 
ATOM     30  H6  IN6 d   1     -25.513 -10.150  59.371  0.00  0.00     0.082 H 
ATOM     31  H7  IN6 d   1     -24.359  -9.761  58.051  0.00  0.00     0.082 H 
BRANCH  29  32
ATOM     32  C4  IN6 d   1     -26.351 -10.105  57.430  0.00  0.00    -0.034 A 
ATOM     33  C3  IN6 d   1     -27.556  -9.627  57.939  0.00  0.00    -0.075 A 
ATOM     34  C2  IN6 d   1     -28.629  -9.334  57.084  0.00  0.00    -0.082 A 
ATOM     35  H3  IN6 d   1     -27.666  -9.480  59.007  0.00  0.00     0.084 H 
ATOM     36  C1  IN6 d   1     -28.495  -9.523  55.701  0.00  0.00    -0.083 A 
ATOM     37  H2  IN6 d   1     -29.561  -8.962  57.492  0.00  0.00     0.083 H 
ATOM     38  C6  IN6 d   1     -27.290 -10.001  55.185  0.00  0.00    -0.082 A 
ATOM     39  H1  IN6 d   1     -29.322  -9.299  55.037  0.00  0.00     0.083 H 
ATOM     40  C5  IN6 d   1     -26.228 -10.288  56.052  0.00  0.00    -0.075 A 
ATOM     41  H5  IN6 d   1     -27.176 -10.150  54.117  0.00  0.00     0.083 H 
ATOM     42  H4  IN6 d   1     -25.294 -10.659  55.645  0.00  0.00     0.084 H 
ENDBRANCH  29  32
ENDBRANCH  28  29
ENDBRANCH  25  28
ENDBRANCH   9  24
ENDBRANCH   5   9
ENDBRANCH   1   3
BRANCH   1  43
ATOM     43  O22 IN6 d   1     -21.372 -18.386  59.169  0.00  0.00    -0.363 OA
ATOM     44  H21 IN6 d   1     -20.954 -18.880  59.865  0.00  0.00     0.212 HD
ENDBRANCH   1  43
BRANCH   1  45
ATOM     45  N42 IN6 d   1     -20.198 -19.648  57.780  0.00  0.00     0.039 N 
ATOM     46  H40 IN6 d   1     -19.612 -19.723  58.597  0.00  0.00     0.309 HD
ATOM     47  H41 IN6 d   1     -19.803 -18.973  57.144  0.00  0.00     0.309 HD
BRANCH  45  48
ATOM     48  N41 IN6 d   1     -20.182 -20.996  57.082  0.00  0.00    -0.184 N 
ATOM     49  C39 IN6 d   1     -19.867 -22.149  57.760  0.00  0.00     0.264 C 
ATOM     50  O40 IN6 d   1     -19.604 -22.125  58.962  0.00  0.00    -0.270 OA
ATOM     51  H39 IN6 d   1     -20.405 -21.046  56.108  0.00  0.00     0.196 HD
BRANCH  49  52
ATOM     52  C34 IN6 d   1     -19.822 -23.492  57.000  0.00  0.00     0.093 C 
ATOM     53  H29 IN6 d   1     -19.437 -23.281  55.991  0.00  0.00     0.087 H 
BRANCH  52  54
ATOM     54  C35 IN6 d   1     -21.217 -24.118  56.838  0.00  0.00    -0.035 C 
ATOM     55  H30 IN6 d   1     -21.140 -24.820  55.995  0.00  0.00     0.037 H 
ATOM     56  H31 IN6 d   1     -21.892 -23.292  56.567  0.00  0.00     0.037 H 
BRANCH  54  57
ATOM     57  C36 IN6 d   1     -21.919 -24.887  57.968  0.00  0.00    -0.059 C 
ATOM     58  H32 IN6 d   1     -22.980 -24.948  57.684  0.00  0.00     0.038 H 
BRANCH  57  59
ATOM     59  C37 IN6 d   1     -21.435 -26.307  58.121  0.00  0.00    -0.073 C 
ATOM     60  H33 IN6 d   1     -21.979 -26.793  58.944  0.00  0.00     0.028 H 
ATOM     61  H34 IN6 d   1     -20.358 -26.305  58.344  0.00  0.00     0.028 H 
ATOM     62  H35 IN6 d   1     -21.615 -26.858  57.187  0.00  0.00     0.028 H 
ENDBRANCH  57  59
BRANCH  57  63
ATOM     63  C38 IN6 d   1     -21.865 -24.153  59.287  0.00  0.00    -0.073 C 
ATOM     64  H36 IN6 d   1     -22.223 -23.122  59.148  0.00  0.00     0.028 H 
ATOM     65  H37 IN6 d   1     -20.828 -24.135  59.654  0.00  0.00     0.028 H 
ATOM     66  H38 IN6 d   1     -22.505 -24.667  60.019  0.00  0.00     0.028 H 
ENDBRANCH  57  63
ENDBRANCH  54  57
ENDBRANCH  52  54
BRANCH  52  67
ATOM     67  N43 IN6 d   1     -18.904 -24.443  57.633  0.00  0.00    -0.324 N 
ATOM     68  C9' IN6 d   1     -17.910 -25.028  56.962  0.00  0.00     0.361 C 
ATOM     69  O33 IN6 d   1     -17.690 -24.810  55.772  0.00  0.00    -0.238 OA
ATOM     70  H42 IN6 d   1     -19.027 -24.661  58.601  0.00  0.00     0.165 HD
BRANCH  68  71
ATOM     71  O8' IN6 d   1     -17.102 -25.930  57.709  0.00  0.00    -0.299 OA
BRANCH  71  72
ATOM     72  C7' IN6 d   1     -15.723 -25.671  58.137  0.00  0.00     0.054 C 
ATOM     73  H27 IN6 d   1     -15.730 -25.062  59.053  0.00  0.00     0.082 H 
ATOM     74  H28 IN6 d   1     -15.213 -26.625  58.335  0.00  0.00     0.082 H 
BRANCH  72  75
ATOM     75  C4' IN6 d   1     -14.998 -24.929  57.042  0.00  0.00    -0.034 A 
ATOM     76  C3' IN6 d   1     -14.833 -23.544  57.118  0.00  0.00    -0.075 A 
ATOM     77  C2' IN6 d   1     -14.232 -22.838  56.077  0.00  0.00    -0.082 A 
ATOM     78  H24 IN6 d   1     -15.177 -23.012  57.998  0.00  0.00     0.084 H 
ATOM     79  C1' IN6 d   1     -13.785 -23.508  54.959  0.00  0.00    -0.083 A 
ATOM     80  H23 IN6 d   1     -14.116 -21.762  56.147  0.00  0.00     0.083 H 
ATOM     81  C6' IN6 d   1     -13.935 -24.901  54.866  0.00  0.00    -0.082 A 
ATOM     82  H22 IN6 d   1     -13.317 -22.959  54.150  0.00  0.00     0.083 H 
ATOM     83  C5' IN6 d   1     -14.535 -25.604  55.908  0.00  0.00    -0.075 A 
ATOM     84  H26 IN6 d   1     -13.585 -25.428  53.986  0.00  0.00     0.083 H 
ATOM     85  H25 IN6 d   1     -14.644 -26.680  55.840  0.00  0.00     0.084 H 
ENDBRANCH  72  75
ENDBRANCH  71  72
ENDBRANCH  68  71
ENDBRANCH  52  67
ENDBRANCH  49  52
ENDBRANCH  45  48
ENDBRANCH   1  45
TORSDOF 22
