REMARK WARNING: 32 MAX_TORS EXCEEDED!!!
REMARK  33 active torsions:
REMARK  status: ('A' for Active; 'I' for Inactive)
REMARK    1  A    between atoms: N_1  and  CA_2 
REMARK    2  A    between atoms: CA_2  and  C_3 
REMARK    3  A    between atoms: CA_2  and  CB_5 
REMARK       I    between atoms: C_3  and  N_19 
REMARK    4  A    between atoms: CB_5  and  CG1_6 
REMARK    5  A    between atoms: CB_5  and  CG2_7 
REMARK    6  A    between atoms: CA_20  and  C_21 
REMARK       I    between atoms: C_21  and  N_33 
REMARK    7  A    between atoms: CA_34  and  C_35 
REMARK       I    between atoms: C_35  and  N_47 
REMARK    8  A    between atoms: CA_48  and  C_49 
REMARK       I    between atoms: C_49  and  N_61 
REMARK    9  A    between atoms: N_61  and  CA_62 
REMARK   10  A    between atoms: CA_62  and  C_63 
REMARK   11  A    between atoms: CA_62  and  CB_65 
REMARK       I    between atoms: C_63  and  N_77 
REMARK   12  A    between atoms: CB_65  and  CG1_66 
REMARK   13  A    between atoms: CB_65  and  CG2_67 
REMARK   14  A    between atoms: CA_78  and  C_79 
REMARK       I    between atoms: C_79  and  N_91 
REMARK   15  A    between atoms: CA_92  and  C_93 
REMARK       I    between atoms: C_93  and  N_105 
REMARK   16  A    between atoms: N_105  and  CA_106 
REMARK   17  A    between atoms: CA_106  and  C_107 
REMARK   18  A    between atoms: CA_106  and  CB_109 
REMARK       I    between atoms: C_107  and  N_129 
REMARK   19  A    between atoms: CB_109  and  CG_110 
REMARK   20  A    between atoms: CG_110  and  CD_111 
REMARK   21  A    between atoms: CD_111  and  NE_112 
REMARK       I    between atoms: NE_112  and  CZ_113 
REMARK       I    between atoms: CZ_113  and  NH1_114 
REMARK       I    between atoms: CZ_113  and  NH2_115 
REMARK   22  A    between atoms: N_129  and  CA_130 
REMARK   23  A    between atoms: CA_130  and  C_131 
REMARK   24  A    between atoms: CA_130  and  CB_133 
REMARK       I    between atoms: C_131  and  N_153 
REMARK   25  A    between atoms: CB_133  and  CG_134 
REMARK   26  A    between atoms: CG_134  and  CD_135 
REMARK   27  A    between atoms: CD_135  and  NE_136 
REMARK       I    between atoms: NE_136  and  CZ_137 
REMARK       I    between atoms: CZ_137  and  NH1_138 
REMARK       I    between atoms: CZ_137  and  NH2_139 
REMARK   28  A    between atoms: N_153  and  CA_154 
REMARK   29  A    between atoms: CA_154  and  C_155 
REMARK   30  A    between atoms: CA_154  and  CB_157 
REMARK   31  A    between atoms: CB_157  and  CG_158 
REMARK   32  A    between atoms: CG_158  and  CD_159 
REMARK   33  A    between atoms: CD_159  and  NE_160 
REMARK       I    between atoms: NE_160  and  CZ_161 
REMARK       I    between atoms: CZ_161  and  NH1_162 
ROOT
ATOM      1  C   PRO d   1      -8.692  -0.281   6.511  0.00  0.00     0.243 C 
ATOM      2  O   PRO d   1      -8.733   0.131   5.352  0.00  0.00    -0.271 OA
ATOM      3  N   PRO d   1      -9.423   0.298   7.483  0.00  0.00    -0.337 N 
ATOM      4  CA  PRO d   1     -10.237   1.494   7.270  0.00  0.00     0.091 C 
ATOM      5  CB  PRO d   1     -11.085   1.634   8.541  0.00  0.00    -0.036 C 
ATOM      6  CG  PRO d   1     -10.193   1.017   9.620  0.00  0.00    -0.048 C 
ATOM      7  CD  PRO d   1      -9.492  -0.123   8.876  0.00  0.00    -0.001 C 
ATOM      8  H49 PRO d   1     -10.891   1.359   6.396  0.00  0.00     0.087 H 
ATOM      9  H50 PRO d   1     -12.032   1.082   8.447  0.00  0.00     0.036 H 
ATOM     10  H51 PRO d   1     -11.297   2.691   8.760  0.00  0.00     0.036 H 
ATOM     11  H52 PRO d   1     -10.794   0.632  10.457  0.00  0.00     0.035 H 
ATOM     12  H53 PRO d   1      -9.464   1.750   9.998  0.00  0.00     0.035 H 
ATOM     13  H54 PRO d   1      -8.481  -0.280   9.280  0.00  0.00     0.064 H 
ATOM     14  H55 PRO d   1     -10.071  -1.054   8.967  0.00  0.00     0.064 H 
ENDROOT
BRANCH   1  15
ATOM     15  CA  PRO d   1      -7.746  -1.445   6.875  0.00  0.00     0.092 C 
ATOM     16  N   PRO d   1      -7.392  -2.287   5.729  0.00  0.00    -0.337 N 
ATOM     17  C   VAL d   1      -8.292  -2.985   5.004  0.00  0.00     0.243 C 
ATOM     18  CD  PRO d   1      -5.944  -2.358   5.590  0.00  0.00    -0.001 C 
ATOM     19  O   VAL d   1      -9.491  -2.976   5.288  0.00  0.00    -0.271 OA
ATOM     20  CG  PRO d   1      -5.385  -1.937   6.947  0.00  0.00    -0.048 C 
ATOM     21  H47 PRO d   1      -5.599  -1.672   4.802  0.00  0.00     0.064 H 
ATOM     22  H48 PRO d   1      -5.631  -3.384   5.346  0.00  0.00     0.064 H 
ATOM     23  CB  PRO d   1      -6.410  -0.908   7.412  0.00  0.00    -0.036 C 
ATOM     24  H45 PRO d   1      -5.334  -2.790   7.639  0.00  0.00     0.035 H 
ATOM     25  H46 PRO d   1      -4.386  -1.487   6.845  0.00  0.00     0.035 H 
ATOM     26  H43 PRO d   1      -6.428  -0.843   8.510  0.00  0.00     0.036 H 
ATOM     27  H44 PRO d   1      -6.189   0.083   6.989  0.00  0.00     0.036 H 
ATOM     28  H42 PRO d   1      -8.237  -2.062   7.642  0.00  0.00     0.087 H 
BRANCH  17  29
ATOM     29  CA  VAL d   1      -7.826  -3.794   3.775  0.00  0.00     0.092 C 
ATOM     30  H34 VAL d   1      -6.755  -3.611   3.606  0.00  0.00     0.088 H 
BRANCH  29  31
ATOM     31  N   VAL d   1      -8.045  -5.211   4.062  0.00  0.00    -0.346 N 
ATOM     32  C   PRO d   1      -7.093  -6.099   4.386  0.00  0.00     0.241 C 
ATOM     33  O   PRO d   1      -5.893  -5.822   4.401  0.00  0.00    -0.271 OA
ATOM     34  H33 VAL d   1      -8.986  -5.547   4.013  0.00  0.00     0.163 HD
BRANCH  32  35
ATOM     35  CA  PRO d   1      -7.587  -7.502   4.782  0.00  0.00     0.091 C 
ATOM     36  N   PRO d   1      -6.593  -8.534   4.501  0.00  0.00    -0.337 N 
ATOM     37  C   PRO d   1      -6.387  -9.052   3.272  0.00  0.00     0.243 C 
ATOM     38  CD  PRO d   1      -5.966  -8.974   5.742  0.00  0.00    -0.001 C 
ATOM     39  O   PRO d   1      -6.962  -8.603   2.280  0.00  0.00    -0.271 OA
ATOM     40  CG  PRO d   1      -6.479  -8.029   6.832  0.00  0.00    -0.048 C 
ATOM     41  H31 PRO d   1      -4.871  -8.906   5.662  0.00  0.00     0.064 H 
ATOM     42  H32 PRO d   1      -6.254 -10.011   5.969  0.00  0.00     0.064 H 
ATOM     43  CB  PRO d   1      -7.843  -7.600   6.291  0.00  0.00    -0.036 C 
ATOM     44  H29 PRO d   1      -6.581  -8.552   7.794  0.00  0.00     0.035 H 
ATOM     45  H30 PRO d   1      -5.811  -7.164   6.954  0.00  0.00     0.035 H 
ATOM     46  H27 PRO d   1      -8.614  -8.352   6.515  0.00  0.00     0.036 H 
ATOM     47  H28 PRO d   1      -8.147  -6.628   6.706  0.00  0.00     0.036 H 
ATOM     48  H26 PRO d   1      -8.514  -7.716   4.229  0.00  0.00     0.087 H 
BRANCH  37  49
ATOM     49  CA  PRO d   1      -5.440 -10.260   3.109  0.00  0.00     0.092 C 
ATOM     50  N   PRO d   1      -6.173 -11.394   2.550  0.00  0.00    -0.337 N 
ATOM     51  C   PRO d   1      -7.145 -12.059   3.206  0.00  0.00     0.243 C 
ATOM     52  CD  PRO d   1      -5.716 -11.681   1.197  0.00  0.00    -0.001 C 
ATOM     53  O   PRO d   1      -7.468 -11.763   4.358  0.00  0.00    -0.271 OA
ATOM     54  CG  PRO d   1      -4.853 -10.488   0.784  0.00  0.00    -0.048 C 
ATOM     55  H24 PRO d   1      -6.574 -11.786   0.517  0.00  0.00     0.064 H 
ATOM     56  H25 PRO d   1      -5.122 -12.607   1.182  0.00  0.00     0.064 H 
ATOM     57  CB  PRO d   1      -4.301  -9.980   2.117  0.00  0.00    -0.036 C 
ATOM     58  H22 PRO d   1      -4.039 -10.803   0.114  0.00  0.00     0.035 H 
ATOM     59  H23 PRO d   1      -5.459  -9.716   0.288  0.00  0.00     0.035 H 
ATOM     60  H20 PRO d   1      -3.390 -10.528   2.400  0.00  0.00     0.036 H 
ATOM     61  H21 PRO d   1      -4.080  -8.904   2.066  0.00  0.00     0.036 H 
ATOM     62  H19 PRO d   1      -5.022 -10.522   4.092  0.00  0.00     0.087 H 
BRANCH  51  63
ATOM     63  CA  PRO d   1      -7.873 -13.206   2.474  0.00  0.00     0.092 C 
ATOM     64  N   PRO d   1      -8.493 -14.137   3.414  0.00  0.00    -0.337 N 
ATOM     65  C   VAL d   1      -7.809 -15.081   4.093  0.00  0.00     0.251 C 
ATOM     66  CD  PRO d   1      -9.934 -13.918   3.469  0.00  0.00    -0.001 C 
ATOM     67  O   VAL d   1      -6.586 -15.191   4.001  0.00  0.00    -0.271 OA
ATOM     68  CG  PRO d   1     -10.208 -12.687   2.601  0.00  0.00    -0.048 C 
ATOM     69  H17 PRO d   1     -10.253 -13.733   4.505  0.00  0.00     0.064 H 
ATOM     70  H18 PRO d   1     -10.469 -14.793   3.071  0.00  0.00     0.064 H 
ATOM     71  CB  PRO d   1      -9.037 -12.685   1.619  0.00  0.00    -0.036 C 
ATOM     72  H15 PRO d   1     -11.167 -12.784   2.071  0.00  0.00     0.035 H 
ATOM     73  H16 PRO d   1     -10.215 -11.770   3.208  0.00  0.00     0.035 H 
ATOM     74  H13 PRO d   1      -9.233 -13.353   0.768  0.00  0.00     0.036 H 
ATOM     75  H14 PRO d   1      -8.833 -11.670   1.249  0.00  0.00     0.036 H 
ATOM     76  H12 PRO d   1      -7.147 -13.736   1.840  0.00  0.00     0.087 H 
BRANCH  65  77
ATOM     77  CA  VAL d   1      -8.577 -16.067   4.997  0.00  0.00     0.178 C 
ATOM     78  H4  VAL d   1      -9.651 -15.921   4.808  0.00  0.00     0.099 H 
BRANCH  77  79
ATOM     79  N   VAL d   1      -8.245 -17.467   4.646  0.00  0.00    -0.066 N 
ATOM     80  H1  VAL d   1      -8.415 -17.616   3.664  0.00  0.00     0.275 HD
ATOM     81  H2  VAL d   1      -8.820 -18.094   5.186  0.00  0.00     0.275 HD
ATOM     82  H3  VAL d   1      -7.274 -17.643   4.849  0.00  0.00     0.275 HD
ENDBRANCH  77  79
BRANCH  77  83
ATOM     83  CB  VAL d   1      -8.330 -15.794   6.498  0.00  0.00    -0.025 C 
ATOM     84  H5  VAL d   1      -7.296 -16.091   6.729  0.00  0.00     0.042 H 
BRANCH  83  85
ATOM     85  CG1 VAL d   1      -8.505 -14.313   6.884  0.00  0.00    -0.071 C 
ATOM     86  H6  VAL d   1      -8.316 -14.190   7.960  0.00  0.00     0.028 H 
ATOM     87  H7  VAL d   1      -9.532 -13.993   6.653  0.00  0.00     0.028 H 
ATOM     88  H8  VAL d   1      -7.793 -13.699   6.314  0.00  0.00     0.028 H 
ENDBRANCH  83  85
BRANCH  83  89
ATOM     89  CG2 VAL d   1      -9.292 -16.631   7.358  0.00  0.00    -0.071 C 
ATOM     90  H9  VAL d   1      -9.184 -17.695   7.099  0.00  0.00     0.028 H 
ATOM     91  H10 VAL d   1     -10.327 -16.310   7.168  0.00  0.00     0.028 H 
ATOM     92  H11 VAL d   1      -9.053 -16.487   8.422  0.00  0.00     0.028 H 
ENDBRANCH  83  89
ENDBRANCH  77  83
ENDBRANCH  65  77
ENDBRANCH  51  63
ENDBRANCH  37  49
ENDBRANCH  32  35
ENDBRANCH  29  31
BRANCH  29  93
ATOM     93  CB  VAL d   1      -8.610  -3.403   2.499  0.00  0.00    -0.033 C 
ATOM     94  H35 VAL d   1      -9.672  -3.635   2.664  0.00  0.00     0.042 H 
BRANCH  93  95
ATOM     95  CG1 VAL d   1      -8.473  -1.902   2.199  0.00  0.00    -0.071 C 
ATOM     96  H36 VAL d   1      -9.040  -1.657   1.289  0.00  0.00     0.028 H 
ATOM     97  H37 VAL d   1      -7.412  -1.653   2.048  0.00  0.00     0.028 H 
ATOM     98  H38 VAL d   1      -8.869  -1.321   3.045  0.00  0.00     0.028 H 
ENDBRANCH  93  95
BRANCH  93  99
ATOM     99  CG2 VAL d   1      -8.115  -4.194   1.275  0.00  0.00    -0.071 C 
ATOM    100  H39 VAL d   1      -8.207  -5.272   1.474  0.00  0.00     0.028 H 
ATOM    101  H40 VAL d   1      -7.061  -3.945   1.079  0.00  0.00     0.028 H 
ATOM    102  H41 VAL d   1      -8.723  -3.930   0.397  0.00  0.00     0.028 H 
ENDBRANCH  93  99
ENDBRANCH  29  93
ENDBRANCH  17  29
ENDBRANCH   1  15
BRANCH   4 103
ATOM    103  C   PRO d   1      -9.340   2.724   7.037  0.00  0.00     0.241 C 
ATOM    104  O   PRO d   1      -8.309   2.877   7.694  0.00  0.00    -0.271 OA
ATOM    105  N   ARG d   1      -9.723   3.595   6.090  0.00  0.00    -0.346 N 
ATOM    106  H56 ARG d   1     -10.587   3.424   5.616  0.00  0.00     0.163 HD
BRANCH 105 107
ATOM    107  CA  ARG d   1      -8.950   4.783   5.708  0.00  0.00     0.089 C 
ATOM    108  H57 ARG d   1      -7.939   4.435   5.449  0.00  0.00     0.087 H 
BRANCH 107 109
ATOM    109  C   ARG d   1      -8.789   5.807   6.845  0.00  0.00     0.241 C 
ATOM    110  O   ARG d   1      -7.773   6.500   6.883  0.00  0.00    -0.271 OA
ATOM    111  N   ARG d   1      -9.774   5.891   7.756  0.00  0.00    -0.346 N 
ATOM    112  H69 ARG d   1     -10.580   5.321   7.598  0.00  0.00     0.163 HD
BRANCH 111 113
ATOM    113  CA  ARG d   1      -9.788   6.732   8.957  0.00  0.00     0.089 C 
ATOM    114  H70 ARG d   1     -10.522   6.300   9.653  0.00  0.00     0.087 H 
BRANCH 113 115
ATOM    115  C   ARG d   1     -10.253   8.161   8.631  0.00  0.00     0.241 C 
ATOM    116  O   ARG d   1      -9.740   8.786   7.703  0.00  0.00    -0.271 OA
ATOM    117  N   ARG d   1     -11.218   8.678   9.406  0.00  0.00    -0.345 N 
ATOM    118  H82 ARG d   1     -11.629   8.085  10.098  0.00  0.00     0.163 HD
BRANCH 117 119
ATOM    119  CA  ARG d   1     -11.710  10.054   9.306  0.00  0.00     0.096 C 
ATOM    120  H83 ARG d   1     -11.806  10.295   8.237  0.00  0.00     0.089 H 
BRANCH 119 121
ATOM    121  C   ARG d   1     -10.720  11.065   9.914  0.00  0.00     0.196 C 
ATOM    122  O   ARG d   1     -10.675  12.199   9.389  0.00  0.00    -0.646 OA
ATOM    123  OXT ARG d   1     -10.039  10.703  10.901  0.00  0.00    -0.646 OA
ENDBRANCH 119 121
BRANCH 119 124
ATOM    124  CB  ARG d   1     -13.112  10.168   9.935  0.00  0.00    -0.035 C 
ATOM    125  H84 ARG d   1     -13.767   9.426   9.456  0.00  0.00     0.036 H 
ATOM    126  H85 ARG d   1     -13.498  11.179   9.738  0.00  0.00     0.036 H 
BRANCH 124 127
ATOM    127  CG  ARG d   1     -13.139   9.927  11.456  0.00  0.00    -0.047 C 
ATOM    128  H86 ARG d   1     -12.491  10.669  11.945  0.00  0.00     0.035 H 
ATOM    129  H87 ARG d   1     -12.759   8.915  11.662  0.00  0.00     0.035 H 
BRANCH 127 130
ATOM    130  CD  ARG d   1     -14.559  10.052  12.032  0.00  0.00     0.009 C 
ATOM    131  H88 ARG d   1     -14.944  11.057  11.807  0.00  0.00     0.064 H 
ATOM    132  H89 ARG d   1     -14.511   9.913  13.122  0.00  0.00     0.064 H 
BRANCH 130 133
ATOM    133  NE  ARG d   1     -15.485   9.053  11.468  0.00  0.00    -0.227 N 
ATOM    134  CZ  ARG d   1     -15.534   7.745  11.776  0.00  0.00     0.665 C 
ATOM    135  NH1 ARG d   1     -14.713   7.209  12.686  0.00  0.00    -0.235 N 
ATOM    136  NH2 ARG d   1     -16.422   6.958  11.161  0.00  0.00    -0.235 N 
ATOM    137  H91 ARG d   1     -14.771   6.204  12.903  0.00  0.00     0.174 HD
ATOM    138  H92 ARG d   1     -14.023   7.801  13.169  0.00  0.00     0.174 HD
ATOM    139  H93 ARG d   1     -17.062   7.355  10.458  0.00  0.00     0.174 HD
ATOM    140  H94 ARG d   1     -16.467   5.955  11.390  0.00  0.00     0.174 HD
ATOM    141  H90 ARG d   1     -16.162   9.390  10.769  0.00  0.00     0.177 HD
ENDBRANCH 130 133
ENDBRANCH 127 130
ENDBRANCH 124 127
ENDBRANCH 119 124
ENDBRANCH 117 119
ENDBRANCH 113 115
BRANCH 113 142
ATOM    142  CB  ARG d   1      -8.420   6.722   9.669  0.00  0.00    -0.036 C 
ATOM    143  H71 ARG d   1      -7.753   7.428   9.152  0.00  0.00     0.036 H 
ATOM    144  H72 ARG d   1      -8.001   5.707   9.604  0.00  0.00     0.036 H 
BRANCH 142 145
ATOM    145  CG  ARG d   1      -8.498   7.123  11.151  0.00  0.00    -0.048 C 
ATOM    146  H73 ARG d   1      -9.042   6.343  11.703  0.00  0.00     0.035 H 
ATOM    147  H74 ARG d   1      -9.040   8.076  11.234  0.00  0.00     0.035 H 
BRANCH 145 148
ATOM    148  CD  ARG d   1      -7.099   7.289  11.770  0.00  0.00     0.009 C 
ATOM    149  H75 ARG d   1      -7.209   7.479  12.848  0.00  0.00     0.064 H 
ATOM    150  H76 ARG d   1      -6.602   8.148  11.295  0.00  0.00     0.064 H 
BRANCH 148 151
ATOM    151  NE  ARG d   1      -6.257   6.090  11.583  0.00  0.00    -0.227 N 
ATOM    152  CZ  ARG d   1      -5.375   5.867  10.591  0.00  0.00     0.665 C 
ATOM    153  NH1 ARG d   1      -5.099   6.790   9.662  0.00  0.00    -0.235 N 
ATOM    154  NH2 ARG d   1      -4.754   4.688  10.516  0.00  0.00    -0.235 N 
ATOM    155  H78 ARG d   1      -4.418   6.584   8.917  0.00  0.00     0.174 HD
ATOM    156  H79 ARG d   1      -5.568   7.707   9.692  0.00  0.00     0.174 HD
ATOM    157  H80 ARG d   1      -4.947   3.959  11.217  0.00  0.00     0.174 HD
ATOM    158  H81 ARG d   1      -4.082   4.507   9.757  0.00  0.00     0.174 HD
ATOM    159  H77 ARG d   1      -6.355   5.345  12.287  0.00  0.00     0.177 HD
ENDBRANCH 148 151
ENDBRANCH 145 148
ENDBRANCH 142 145
ENDBRANCH 113 142
ENDBRANCH 111 113
ENDBRANCH 107 109
BRANCH 107 160
ATOM    160  CB  ARG d   1      -9.543   5.445   4.452  0.00  0.00    -0.036 C 
ATOM    161  H58 ARG d   1      -8.937   6.326   4.196  0.00  0.00     0.036 H 
ATOM    162  H59 ARG d   1     -10.574   5.760   4.671  0.00  0.00     0.036 H 
BRANCH 160 163
ATOM    163  CG  ARG d   1      -9.562   4.488   3.246  0.00  0.00    -0.048 C 
ATOM    164  H60 ARG d   1     -10.519   3.945   3.237  0.00  0.00     0.035 H 
ATOM    165  H61 ARG d   1      -8.735   3.771   3.348  0.00  0.00     0.035 H 
BRANCH 163 166
ATOM    166  CD  ARG d   1      -9.406   5.240   1.919  0.00  0.00     0.009 C 
ATOM    167  H62 ARG d   1      -9.410   4.508   1.098  0.00  0.00     0.064 H 
ATOM    168  H63 ARG d   1      -8.444   5.774   1.929  0.00  0.00     0.064 H 
BRANCH 166 169
ATOM    169  NE  ARG d   1     -10.482   6.216   1.683  0.00  0.00    -0.227 N 
ATOM    170  CZ  ARG d   1     -10.481   7.159   0.723  0.00  0.00     0.665 C 
ATOM    171  NH1 ARG d   1      -9.437   7.327  -0.094  0.00  0.00    -0.235 N 
ATOM    172  NH2 ARG d   1     -11.544   7.954   0.573  0.00  0.00    -0.235 N 
ATOM    173  H65 ARG d   1      -9.464   8.057  -0.820  0.00  0.00     0.174 HD
ATOM    174  H66 ARG d   1      -8.606   6.726   0.003  0.00  0.00     0.174 HD
ATOM    175  H67 ARG d   1     -12.361   7.844   1.191  0.00  0.00     0.174 HD
ATOM    176  H68 ARG d   1     -11.547   8.677  -0.160  0.00  0.00     0.174 HD
ATOM    177  H64 ARG d   1     -11.303   6.174   2.304  0.00  0.00     0.177 HD
ENDBRANCH 166 169
ENDBRANCH 163 166
ENDBRANCH 160 163
ENDBRANCH 107 160
ENDBRANCH 105 107
ENDBRANCH   4 103
TORSDOF 33
