REMARK WARNING: 32 MAX_TORS EXCEEDED!!!
REMARK  47 active torsions:
REMARK  status: ('A' for Active; 'I' for Inactive)
REMARK    1  A    between atoms: CA_2  and  C_3 
REMARK       I    between atoms: C_3  and  N_8 
REMARK    2  A    between atoms: CA_9  and  C_10 
REMARK       I    between atoms: C_10  and  N_15 
REMARK    3  A    between atoms: N_15  and  CA_16 
REMARK    4  A    between atoms: CA_16  and  C_17 
REMARK    5  A    between atoms: CA_16  and  CB_19 
REMARK       I    between atoms: C_17  and  N_26 
REMARK    6  A    between atoms: CB_19  and  CG_20 
REMARK    7  A    between atoms: CG_20  and  CD_21 
REMARK    8  A    between atoms: CD_21  and  NE_22 
REMARK       I    between atoms: NE_22  and  CZ_23 
REMARK       I    between atoms: CZ_23  and  NH1_24 
REMARK    9  A    between atoms: CA_27  and  C_28 
REMARK       I    between atoms: C_28  and  N_33 
REMARK   10  A    between atoms: N_33  and  CA_34 
REMARK   11  A    between atoms: CA_34  and  C_35 
REMARK   12  A    between atoms: CA_34  and  CB_37 
REMARK       I    between atoms: C_35  and  N_41 
REMARK   13  A    between atoms: CB_37  and  CG_38 
REMARK   14  A    between atoms: CG_38  and  CD1_39 
REMARK   15  A    between atoms: CG_38  and  CD2_40 
REMARK   16  A    between atoms: CA_42  and  C_43 
REMARK       I    between atoms: C_43  and  N_48 
REMARK   17  A    between atoms: N_48  and  CA_49 
REMARK   18  A    between atoms: CA_49  and  C_50 
REMARK   19  A    between atoms: CA_49  and  CB_52 
REMARK       I    between atoms: C_50  and  N_55 
REMARK   20  A    between atoms: CB_52  and  CG1_53 
REMARK   21  A    between atoms: CB_52  and  CG2_54 
REMARK   22  A    between atoms: N_55  and  CA_56 
REMARK   23  A    between atoms: CA_56  and  C_57 
REMARK   24  A    between atoms: CA_56  and  CB_59 
REMARK       I    between atoms: C_57  and  N_60 
REMARK   25  A    between atoms: CA_61  and  C_62 
REMARK       I    between atoms: C_62  and  N_67 
REMARK   26  A    between atoms: N_67  and  CA_68 
REMARK   27  A    between atoms: CA_68  and  C_69 
REMARK       I    between atoms: C_69  and  N_71 
REMARK   28  A    between atoms: N_71  and  CA_72 
REMARK   29  A    between atoms: CA_72  and  C_73 
REMARK   30  A    between atoms: CA_72  and  CB_75 
REMARK       I    between atoms: C_73  and  N_77 
REMARK   31  A    between atoms: CB_75  and  OG_76 
REMARK   32  A    between atoms: N_77  and  CA_78 
REMARK   33  A    between atoms: CA_78  and  C_79 
REMARK   34  A    between atoms: CA_78  and  CB_81 
REMARK       I    between atoms: C_79  and  N_83 
REMARK   35  A    between atoms: CB_81  and  OG_82 
REMARK   36  A    between atoms: N_83  and  CA_84 
REMARK   37  A    between atoms: CA_84  and  C_85 
REMARK   38  A    between atoms: CA_84  and  CB_87 
REMARK       I    between atoms: C_85  and  N_92 
REMARK   39  A    between atoms: CB_87  and  CG_88 
REMARK   40  A    between atoms: CG_88  and  CD_89 
REMARK   41  A    between atoms: CD_89  and  CE_90 
REMARK   42  A    between atoms: CE_90  and  NZ_91 
REMARK   43  A    between atoms: N_92  and  CA_93 
REMARK   44  A    between atoms: CA_93  and  C_94 
REMARK   45  A    between atoms: CA_93  and  CB_96 
REMARK   46  A    between atoms: CB_96  and  OG1_97 
REMARK   47  A    between atoms: CB_96  and  CG2_98 
ROOT
ATOM      1  CA  VAL d   1      31.493  15.727  15.874  0.00  0.00     0.092 C 
ATOM      2  H56 VAL d   1      31.127  15.649  14.840  0.00  0.00     0.088 H 
ENDROOT
BRANCH   1   3
ATOM      3  N   VAL d   1      30.815  16.865  16.555  0.00  0.00    -0.346 N 
ATOM      4  C   PRO d   1      29.577  16.746  16.949  0.00  0.00     0.241 C 
ATOM      5  O   PRO d   1      28.956  15.717  16.771  0.00  0.00    -0.271 OA
ATOM      6  H55 VAL d   1      31.309  17.721  16.710  0.00  0.00     0.163 HD
BRANCH   4   7
ATOM      7  CA  PRO d   1      28.936  17.951  17.641  0.00  0.00     0.091 A 
ATOM      8  N   PRO d   1      28.126  18.719  16.679  0.00  0.00    -0.337 N 
ATOM      9  C   LEU d   1      28.646  19.277  15.616  0.00  0.00     0.243 C 
ATOM     10  CD  PRO d   1      26.692  18.809  17.004  0.00  0.00    -0.001 A 
ATOM     11  O   LEU d   1      29.825  19.215  15.328  0.00  0.00    -0.271 OA
ATOM     12  CG  PRO d   1      26.539  18.026  18.318  0.00  0.00    -0.048 A 
ATOM     13  H53 PRO d   1      26.085  18.353  16.208  0.00  0.00     0.064 H 
ATOM     14  H54 PRO d   1      26.390  19.858  17.140  0.00  0.00     0.064 H 
ATOM     15  CB  PRO d   1      27.939  17.490  18.714  0.00  0.00    -0.036 A 
ATOM     16  H51 PRO d   1      26.155  18.690  19.107  0.00  0.00     0.035 H 
ATOM     17  H52 PRO d   1      25.843  17.186  18.175  0.00  0.00     0.035 H 
ATOM     18  H49 PRO d   1      28.231  17.893  19.695  0.00  0.00     0.036 H 
ATOM     19  H50 PRO d   1      27.920  16.391  18.760  0.00  0.00     0.036 H 
ATOM     20  H48 PRO d   1      29.720  18.583  18.084  0.00  0.00     0.087 H 
BRANCH   9  21
ATOM     21  CA  LEU d   1      27.664  20.040  14.720  0.00  0.00     0.090 C 
ATOM     22  H38 LEU d   1      26.642  19.678  14.903  0.00  0.00     0.087 H 
BRANCH  21  23
ATOM     23  N   LEU d   1      27.740  21.495  15.030  0.00  0.00    -0.346 N 
ATOM     24  C   PRO d   1      28.823  22.166  14.748  0.00  0.00     0.241 C 
ATOM     25  O   PRO d   1      29.783  21.627  14.232  0.00  0.00    -0.271 OA
ATOM     26  H37 LEU d   1      26.961  21.957  15.454  0.00  0.00     0.163 HD
BRANCH  24  27
ATOM     27  CA  PRO d   1      28.839  23.658  15.090  0.00  0.00     0.091 A 
ATOM     28  N   PRO d   1      27.808  24.368  14.313  0.00  0.00    -0.337 N 
ATOM     29  C   ARG d   1      27.825  24.409  13.006  0.00  0.00     0.243 C 
ATOM     30  CD  PRO d   1      26.765  25.025  15.118  0.00  0.00    -0.001 A 
ATOM     31  O   ARG d   1      28.677  23.875  12.324  0.00  0.00    -0.271 OA
ATOM     32  CG  PRO d   1      27.156  24.738  16.576  0.00  0.00    -0.048 A 
ATOM     33  H35 PRO d   1      25.776  24.601  14.891  0.00  0.00     0.064 H 
ATOM     34  H36 PRO d   1      26.752  26.108  14.926  0.00  0.00     0.064 H 
ATOM     35  CB  PRO d   1      28.446  23.878  16.558  0.00  0.00    -0.036 A 
ATOM     36  H33 PRO d   1      27.343  25.683  17.107  0.00  0.00     0.035 H 
ATOM     37  H34 PRO d   1      26.347  24.189  17.080  0.00  0.00     0.035 H 
ATOM     38  H31 PRO d   1      29.254  24.404  17.088  0.00  0.00     0.036 H 
ATOM     39  H32 PRO d   1      28.258  22.910  17.045  0.00  0.00     0.036 H 
ATOM     40  H30 PRO d   1      29.837  24.074  14.887  0.00  0.00     0.087 H 
BRANCH  29  41
ATOM     41  CA  ARG d   1      26.679  25.187  12.353  0.00  0.00     0.089 C 
ATOM     42  H18 ARG d   1      26.177  25.807  13.111  0.00  0.00     0.087 H 
BRANCH  41  43
ATOM     43  N   ARG d   1      27.221  26.061  11.276  0.00  0.00    -0.346 N 
ATOM     44  C   PRO d   1      28.304  26.760  11.486  0.00  0.00     0.241 C 
ATOM     45  O   PRO d   1      28.887  26.714  12.551  0.00  0.00    -0.271 OA
ATOM     46  H17 ARG d   1      26.756  26.113  10.392  0.00  0.00     0.163 HD
BRANCH  44  47
ATOM     47  CA  PRO d   1      28.812  27.641  10.341  0.00  0.00     0.091 A 
ATOM     48  N   PRO d   1      28.762  29.061  10.733  0.00  0.00    -0.337 N 
ATOM     49  C   PRO d   1      27.643  29.663  11.040  0.00  0.00     0.251 C 
ATOM     50  CD  PRO d   1      30.063  29.750  10.750  0.00  0.00    -0.001 A 
ATOM     51  O   PRO d   1      26.556  29.120  11.035  0.00  0.00    -0.271 OA
ATOM     52  CG  PRO d   1      31.077  28.680  10.317  0.00  0.00    -0.048 A 
ATOM     53  H15 PRO d   1      30.294  30.117  11.761  0.00  0.00     0.064 H 
ATOM     54  H16 PRO d   1      30.064  30.594  10.044  0.00  0.00     0.064 H 
ATOM     55  CB  PRO d   1      30.296  27.364  10.064  0.00  0.00    -0.036 A 
ATOM     56  H13 PRO d   1      31.585  28.997   9.394  0.00  0.00     0.035 H 
ATOM     57  H14 PRO d   1      31.822  28.527  11.112  0.00  0.00     0.035 H 
ATOM     58  H11 PRO d   1      30.429  27.044   9.020  0.00  0.00     0.036 H 
ATOM     59  H12 PRO d   1      30.662  26.576  10.738  0.00  0.00     0.036 H 
ATOM     60  H10 PRO d   1      28.207  27.462   9.440  0.00  0.00     0.087 H 
BRANCH  49  61
ATOM     61  CA  PRO d   1      27.777  31.140  11.422  0.00  0.00     0.178 A 
ATOM     62  N   PRO d   1      26.420  31.767  11.491  0.00  0.00    -0.062 N 
ATOM     63  CD  PRO d   1      26.200  32.292  12.874  0.00  0.00     0.083 A 
ATOM     64  H1  PRO d   1      25.717  31.078  11.275  0.00  0.00     0.278 HD
ATOM     65  H2  PRO d   1      26.363  32.524  10.828  0.00  0.00     0.278 HD
ATOM     66  CG  PRO d   1      27.442  31.977  13.708  0.00  0.00    -0.040 A 
ATOM     67  H8  PRO d   1      25.319  31.808  13.320  0.00  0.00     0.075 H 
ATOM     68  H9  PRO d   1      26.042  33.380  12.838  0.00  0.00     0.075 H 
ATOM     69  CB  PRO d   1      28.431  31.261  12.798  0.00  0.00    -0.028 A 
ATOM     70  H6  PRO d   1      27.887  32.909  14.087  0.00  0.00     0.035 H 
ATOM     71  H7  PRO d   1      27.172  31.328  14.554  0.00  0.00     0.035 H 
ATOM     72  H4  PRO d   1      29.362  31.842  12.723  0.00  0.00     0.036 H 
ATOM     73  H5  PRO d   1      28.654  30.261  13.198  0.00  0.00     0.036 H 
ATOM     74  H3  PRO d   1      28.390  31.660  10.671  0.00  0.00     0.099 H 
ENDBRANCH  49  61
ENDBRANCH  44  47
ENDBRANCH  41  43
BRANCH  41  75
ATOM     75  CB  ARG d   1      25.674  24.201  11.753  0.00  0.00    -0.036 C 
ATOM     76  H19 ARG d   1      25.428  23.430  12.498  0.00  0.00     0.036 H 
ATOM     77  H20 ARG d   1      26.115  23.724  10.865  0.00  0.00     0.036 H 
BRANCH  75  78
ATOM     78  CG  ARG d   1      24.399  24.946  11.351  0.00  0.00    -0.048 C 
ATOM     79  H21 ARG d   1      23.611  24.218  11.108  0.00  0.00     0.035 H 
ATOM     80  H22 ARG d   1      24.603  25.573  10.470  0.00  0.00     0.035 H 
BRANCH  78  81
ATOM     81  CD  ARG d   1      23.936  25.831  12.509  0.00  0.00     0.009 C 
ATOM     82  H23 ARG d   1      24.261  25.388  13.462  0.00  0.00     0.064 H 
ATOM     83  H24 ARG d   1      22.839  25.908  12.496  0.00  0.00     0.064 H 
BRANCH  81  84
ATOM     84  NE  ARG d   1      24.531  27.189  12.363  0.00  0.00    -0.227 N 
ATOM     85  CZ  ARG d   1      24.895  27.859  13.422  0.00  0.00     0.665 C 
ATOM     86  NH1 ARG d   1      23.996  28.283  14.268  0.00  0.00    -0.235 N 
ATOM     87  NH2 ARG d   1      26.159  28.105  13.637  0.00  0.00    -0.235 N 
ATOM     88  H26 ARG d   1      24.284  28.812  15.104  0.00  0.00     0.174 HD
ATOM     89  H27 ARG d   1      22.998  28.089  14.100  0.00  0.00     0.174 HD
ATOM     90  H28 ARG d   1      26.869  27.771  12.970  0.00  0.00     0.174 HD
ATOM     91  H29 ARG d   1      26.446  28.633  14.473  0.00  0.00     0.174 HD
ATOM     92  H25 ARG d   1      24.655  27.599  11.426  0.00  0.00     0.177 HD
ENDBRANCH  81  84
ENDBRANCH  78  81
ENDBRANCH  75  78
ENDBRANCH  41  75
ENDBRANCH  29  41
ENDBRANCH  24  27
ENDBRANCH  21  23
BRANCH  21  93
ATOM     93  CB  LEU d   1      28.031  19.814  13.251  0.00  0.00    -0.035 C 
ATOM     94  H39 LEU d   1      28.848  19.080  13.186  0.00  0.00     0.037 H 
ATOM     95  H40 LEU d   1      28.356  20.765  12.804  0.00  0.00     0.037 H 
BRANCH  93  96
ATOM     96  CG  LEU d   1      26.811  19.286  12.495  0.00  0.00    -0.059 C 
ATOM     97  H41 LEU d   1      25.909  19.811  12.842  0.00  0.00     0.038 H 
BRANCH  96  98
ATOM     98  CD1 LEU d   1      26.996  19.526  10.995  0.00  0.00    -0.073 C 
ATOM     99  H42 LEU d   1      26.118  19.146  10.452  0.00  0.00     0.028 H 
ATOM    100  H43 LEU d   1      27.898  19.000  10.648  0.00  0.00     0.028 H 
ATOM    101  H44 LEU d   1      27.105  20.604  10.807  0.00  0.00     0.028 H 
ENDBRANCH  96  98
BRANCH  96 102
ATOM    102  CD2 LEU d   1      26.662  17.785  12.756  0.00  0.00    -0.073 C 
ATOM    103  H45 LEU d   1      26.529  17.612  13.834  0.00  0.00     0.028 H 
ATOM    104  H46 LEU d   1      27.565  17.261  12.409  0.00  0.00     0.028 H 
ATOM    105  H47 LEU d   1      25.785  17.404  12.212  0.00  0.00     0.028 H 
ENDBRANCH  96 102
ENDBRANCH  93  96
ENDBRANCH  21  93
ENDBRANCH   9  21
ENDBRANCH   4   7
ENDBRANCH   1   3
BRANCH   1 106
ATOM    106  C   VAL d   1      31.188  14.428  16.622  0.00  0.00     0.241 C 
ATOM    107  O   VAL d   1      31.428  14.312  17.807  0.00  0.00    -0.271 OA
ATOM    108  N   ALA d   1      30.663  13.449  15.938  0.00  0.00    -0.346 N 
ATOM    109  H64 ALA d   1      30.473  13.566  14.963  0.00  0.00     0.163 HD
BRANCH 108 110
ATOM    110  CA  ALA d   1      30.346  12.157  16.609  0.00  0.00     0.086 C 
ATOM    111  H65 ALA d   1      29.470  12.287  17.261  0.00  0.00     0.086 H 
BRANCH 110 112
ATOM    112  C   ALA d   1      31.546  11.712  17.450  0.00  0.00     0.243 C 
ATOM    113  O   ALA d   1      32.597  12.319  17.397  0.00  0.00    -0.271 OA
ATOM    114  N   PRO d   1      31.348  10.663  18.204  0.00  0.00    -0.337 N 
ATOM    115  CA  PRO d   1      32.399  10.108  19.076  0.00  0.00     0.091 A 
ATOM    116  CD  PRO d   1      30.061   9.948  18.247  0.00  0.00    -0.001 A 
ATOM    117  CB  PRO d   1      31.742   8.902  19.762  0.00  0.00    -0.036 A 
ATOM    118  H69 PRO d   1      32.720  10.852  19.820  0.00  0.00     0.087 H 
ATOM    119  CG  PRO d   1      30.285   8.800  19.243  0.00  0.00    -0.048 A 
ATOM    120  H70 PRO d   1      31.742   9.046  20.853  0.00  0.00     0.036 H 
ATOM    121  H71 PRO d   1      32.293   7.983  19.513  0.00  0.00     0.036 H 
ATOM    122  H72 PRO d   1      29.581   8.891  20.083  0.00  0.00     0.035 H 
ATOM    123  H73 PRO d   1      30.133   7.833  18.740  0.00  0.00     0.035 H 
ATOM    124  H74 PRO d   1      29.803   9.554  17.253  0.00  0.00     0.064 H 
ATOM    125  H75 PRO d   1      29.259  10.614  18.597  0.00  0.00     0.064 H 
BRANCH 115 126
ATOM    126  C   PRO d   1      33.605   9.662  18.244  0.00  0.00     0.241 C 
ATOM    127  O   PRO d   1      33.745   8.502  17.909  0.00  0.00    -0.271 OA
ATOM    128  N   GLY d   1      34.479  10.573  17.913  0.00  0.00    -0.351 N 
ATOM    129  H76 GLY d   1      34.344  11.521  18.200  0.00  0.00     0.163 HD
BRANCH 128 130
ATOM    130  CA  GLY d   1      35.678  10.202  17.108  0.00  0.00     0.069 C 
ATOM    131  H77 GLY d   1      36.425   9.728  17.762  0.00  0.00     0.078 H 
ATOM    132  H78 GLY d   1      36.109  11.107  16.656  0.00  0.00     0.078 H 
BRANCH 130 133
ATOM    133  C   GLY d   1      35.276   9.224  16.003  0.00  0.00     0.236 C 
ATOM    134  O   GLY d   1      34.121   9.121  15.641  0.00  0.00    -0.272 OA
ATOM    135  N   SER d   1      36.222   8.505  15.463  0.00  0.00    -0.344 N 
ATOM    136  H79 SER d   1      37.166   8.607  15.775  0.00  0.00     0.163 HD
BRANCH 135 137
ATOM    137  CA  SER d   1      35.897   7.533  14.382  0.00  0.00     0.109 C 
ATOM    138  H80 SER d   1      35.141   7.968  13.713  0.00  0.00     0.090 H 
BRANCH 137 139
ATOM    139  C   SER d   1      35.350   6.245  15.000  0.00  0.00     0.243 C 
ATOM    140  O   SER d   1      36.028   5.238  15.061  0.00  0.00    -0.271 OA
ATOM    141  N   SER d   1      34.129   6.266  15.458  0.00  0.00    -0.344 N 
ATOM    142  H84 SER d   1      33.586   7.104  15.398  0.00  0.00     0.163 HD
BRANCH 141 143
ATOM    143  CA  SER d   1      33.544   5.041  16.071  0.00  0.00     0.109 C 
ATOM    144  H85 SER d   1      32.599   5.297  16.573  0.00  0.00     0.090 H 
BRANCH 143 145
ATOM    145  C   SER d   1      34.525   4.466  17.093  0.00  0.00     0.243 C 
ATOM    146  O   SER d   1      34.981   3.346  16.970  0.00  0.00    -0.271 OA
ATOM    147  N   LYS d   1      34.855   5.224  18.102  0.00  0.00    -0.346 N 
ATOM    148  H89 LYS d   1      34.469   6.143  18.184  0.00  0.00     0.163 HD
BRANCH 147 149
ATOM    149  CA  LYS d   1      35.807   4.722  19.132  0.00  0.00     0.089 C 
ATOM    150  H90 LYS d   1      36.416   3.912  18.704  0.00  0.00     0.087 H 
BRANCH 149 151
ATOM    151  C   LYS d   1      35.025   4.191  20.335  0.00  0.00     0.241 C 
ATOM    152  O   LYS d   1      34.157   4.856  20.865  0.00  0.00    -0.271 OA
ATOM    153  N   THR d   1      35.323   2.997  20.769  0.00  0.00    -0.343 N 
ATOM    154 2H10 THR d   1      36.040   2.466  20.318  0.00  0.00     0.163 HD
BRANCH 153 155
ATOM    155  CA  THR d   1      34.595   2.426  21.936  0.00  0.00     0.120 C 
ATOM    156 3H10 THR d   1      35.031   1.451  22.200  0.00  0.00     0.093 H 
BRANCH 155 157
ATOM    157  C   THR d   1      33.120   2.245  21.574  0.00  0.00     0.199 C 
ATOM    158  O   THR d   1      32.290   2.848  22.234  0.00  0.00    -0.646 OA
ATOM    159  OXT THR d   1      32.845   1.508  20.641  0.00  0.00    -0.646 OA
ENDBRANCH 155 157
BRANCH 155 160
ATOM    160  CB  THR d   1      34.715   3.379  23.127  0.00  0.00     0.061 C 
ATOM    161 4H10 THR d   1      33.992   4.200  23.013  0.00  0.00     0.086 H 
BRANCH 160 162
ATOM    162  OG1 THR d   1      36.031   3.912  23.176  0.00  0.00    -0.393 OA
ATOM    163 5H10 THR d   1      36.210   4.385  22.372  0.00  0.00     0.210 HD
ENDBRANCH 160 162
BRANCH 160 164
ATOM    164  CG2 THR d   1      34.422   2.620  24.422  0.00  0.00    -0.050 C 
ATOM    165 6H10 THR d   1      34.509   3.307  25.277  0.00  0.00     0.031 H 
ATOM    166 7H10 THR d   1      35.144   1.798  24.537  0.00  0.00     0.031 H 
ATOM    167 8H10 THR d   1      33.402   2.209  24.384  0.00  0.00     0.031 H 
ENDBRANCH 160 164
ENDBRANCH 155 160
ENDBRANCH 153 155
ENDBRANCH 149 151
BRANCH 149 168
ATOM    168  CB  LYS d   1      36.720   5.865  19.582  0.00  0.00    -0.038 C 
ATOM    169  H91 LYS d   1      37.662   5.451  19.971  0.00  0.00     0.036 H 
ATOM    170  H92 LYS d   1      36.220   6.444  20.372  0.00  0.00     0.036 H 
BRANCH 168 171
ATOM    171  CG  LYS d   1      37.018   6.778  18.391  0.00  0.00    -0.061 C 
ATOM    172  H93 LYS d   1      36.445   7.712  18.493  0.00  0.00     0.033 H 
ATOM    173  H94 LYS d   1      36.729   6.270  17.459  0.00  0.00     0.033 H 
BRANCH 171 174
ATOM    174  CD  LYS d   1      38.513   7.099  18.354  0.00  0.00    -0.043 C 
ATOM    175  H95 LYS d   1      39.070   6.311  18.881  0.00  0.00     0.035 H 
ATOM    176  H96 LYS d   1      38.693   8.066  18.846  0.00  0.00     0.035 H 
BRANCH 174 177
ATOM    177  CE  LYS d   1      38.984   7.171  16.900  0.00  0.00     0.080 C 
ATOM    178  H97 LYS d   1      38.897   8.206  16.537  0.00  0.00     0.075 H 
ATOM    179  H98 LYS d   1      38.360   6.511  16.279  0.00  0.00     0.075 H 
BRANCH 177 180
ATOM    180  NZ  LYS d   1      40.406   6.733  16.817  0.00  0.00    -0.079 N 
ATOM    181  H99 LYS d   1      40.717   6.780  15.859  0.00  0.00     0.274 HD
ATOM    182 0H10 LYS d   1      40.486   5.785  17.150  0.00  0.00     0.274 HD
ATOM    183 1H10 LYS d   1      40.978   7.338  17.386  0.00  0.00     0.274 HD
ENDBRANCH 177 180
ENDBRANCH 174 177
ENDBRANCH 171 174
ENDBRANCH 168 171
ENDBRANCH 149 168
ENDBRANCH 147 149
ENDBRANCH 143 145
BRANCH 143 184
ATOM    184  CB  SER d   1      33.278   4.003  14.980  0.00  0.00     0.044 C 
ATOM    185  H86 SER d   1      32.276   4.165  14.555  0.00  0.00     0.077 H 
ATOM    186  H87 SER d   1      33.335   2.993  15.412  0.00  0.00     0.077 H 
BRANCH 184 187
ATOM    187  OG  SER d   1      34.255   4.137  13.956  0.00  0.00    -0.398 OA
ATOM    188  H88 SER d   1      35.120   3.998  14.325  0.00  0.00     0.209 HD
ENDBRANCH 184 187
ENDBRANCH 143 184
ENDBRANCH 141 143
ENDBRANCH 137 139
BRANCH 137 189
ATOM    189  CB  SER d   1      37.162   7.217  13.585  0.00  0.00     0.044 C 
ATOM    190  H81 SER d   1      36.994   6.322  12.968  0.00  0.00     0.077 H 
ATOM    191  H82 SER d   1      37.996   7.034  14.278  0.00  0.00     0.077 H 
BRANCH 189 192
ATOM    192  OG  SER d   1      37.476   8.320  12.745  0.00  0.00    -0.398 OA
ATOM    193  H83 SER d   1      38.262   8.125  12.249  0.00  0.00     0.209 HD
ENDBRANCH 189 192
ENDBRANCH 137 189
ENDBRANCH 135 137
ENDBRANCH 130 133
ENDBRANCH 128 130
ENDBRANCH 115 126
ENDBRANCH 110 112
BRANCH 110 194
ATOM    194  CB  ALA d   1      30.041  11.096  15.549  0.00  0.00    -0.049 C 
ATOM    195  H66 ALA d   1      29.807  10.141  16.043  0.00  0.00     0.030 H 
ATOM    196  H67 ALA d   1      30.918  10.966  14.897  0.00  0.00     0.030 H 
ATOM    197  H68 ALA d   1      29.180  11.418  14.945  0.00  0.00     0.030 H 
ENDBRANCH 110 194
ENDBRANCH 108 110
ENDBRANCH   1 106
BRANCH   1 198
ATOM    198  CB  VAL d   1      33.003  15.965  15.862  0.00  0.00    -0.033 C 
ATOM    199  H57 VAL d   1      33.347  16.188  16.883  0.00  0.00     0.042 H 
BRANCH 198 200
ATOM    200  CG1 VAL d   1      33.712  14.712  15.346  0.00  0.00    -0.071 C 
ATOM    201  H58 VAL d   1      34.799  14.883  15.337  0.00  0.00     0.028 H 
ATOM    202  H59 VAL d   1      33.368  14.490  14.325  0.00  0.00     0.028 H 
ATOM    203  H60 VAL d   1      33.480  13.862  16.004  0.00  0.00     0.028 H 
ENDBRANCH 198 200
BRANCH 198 204
ATOM    204  CG2 VAL d   1      33.326  17.147  14.945  0.00  0.00    -0.071 C 
ATOM    205  H61 VAL d   1      32.816  18.049  15.316  0.00  0.00     0.028 H 
ATOM    206  H62 VAL d   1      32.981  16.924  13.925  0.00  0.00     0.028 H 
ATOM    207  H63 VAL d   1      34.413  17.318  14.936  0.00  0.00     0.028 H 
ENDBRANCH 198 204
ENDBRANCH   1 198
TORSDOF 47
