REMARK  12 active torsions:
REMARK  status: ('A' for Active; 'I' for Inactive)
REMARK    1  A    between atoms: C7_11  and  C7M_12 
REMARK    2  A    between atoms: C8_13  and  C8M_14 
REMARK    3  A    between atoms: N10_17  and  C1_19 
REMARK    4  A    between atoms: C1_19  and  C2_20 
REMARK    5  A    between atoms: C2_20  and  O2_21 
REMARK    6  A    between atoms: C2_20  and  C3_22 
REMARK    7  A    between atoms: C3_22  and  O3_23 
REMARK    8  A    between atoms: C3_22  and  C4_24 
REMARK    9  A    between atoms: C4_24  and  O4_25 
REMARK   10  A    between atoms: C4_24  and  C5_26 
REMARK   11  A    between atoms: C5_26  and  O5_27 
REMARK   12  A    between atoms: O5_27  and  P_28 
ROOT
ATOM      1  N1  FMN d   1      -4.206  36.133  18.122  0.00  0.00    -0.186 NA
ATOM      2  C2  FMN d   1      -3.235  36.829  18.790  0.00  0.00     0.281 A 
ATOM      3  O2  FMN d   1      -2.391  37.629  18.127  0.00  0.00    -0.149 OA
ATOM      4  N3  FMN d   1      -3.162  36.752  20.182  0.00  0.00    -0.295 N 
ATOM      5  C4  FMN d   1      -4.043  35.941  20.877  0.00  0.00     0.214 A 
ATOM      6  O4  FMN d   1      -3.887  35.840  22.235  0.00  0.00    -0.169 OA
ATOM      7  C4A FMN d   1      -5.033  35.200  20.162  0.00  0.00     0.157 A 
ATOM      8  N5  FMN d   1      -5.885  34.384  20.860  0.00  0.00    -0.238 NA
ATOM      9  C5A FMN d   1      -6.897  33.774  20.129  0.00  0.00     0.085 A 
ATOM     10  C6  FMN d   1      -7.851  33.052  20.918  0.00  0.00    -0.047 A 
ATOM     11  C7  FMN d   1      -8.904  32.482  20.163  0.00  0.00    -0.054 A 
ATOM     12  C8  FMN d   1      -8.963  32.595  18.747  0.00  0.00    -0.054 A 
ATOM     13  C9  FMN d   1      -8.016  33.327  18.011  0.00  0.00    -0.048 A 
ATOM     14  C9A FMN d   1      -6.935  33.912  18.732  0.00  0.00     0.065 A 
ATOM     15  N10 FMN d   1      -6.012  34.616  17.974  0.00  0.00    -0.325 N 
ATOM     16  C10 FMN d   1      -5.084  35.304  18.745  0.00  0.00     0.168 A 
ATOM     17  H1  FMN d   1      -2.474  37.282  20.677  0.00  0.00     0.171 HD
ATOM     18  H2  FMN d   1      -7.773  32.952  21.994  0.00  0.00     0.088 H 
ATOM     19  H9  FMN d   1      -8.104  33.442  16.937  0.00  0.00     0.087 H 
ENDROOT
BRANCH  15  20
ATOM     20  C1  FMN d   1      -5.935  34.804  16.576  0.00  0.00     0.028 C 
ATOM     21  H10 FMN d   1      -5.299  35.671  16.343  0.00  0.00     0.069 H 
ATOM     22  H11 FMN d   1      -6.940  34.963  16.158  0.00  0.00     0.069 H 
BRANCH  20  23
ATOM     23  C2  FMN d   1      -5.315  33.519  15.998  0.00  0.00     0.078 C 
ATOM     24  H12 FMN d   1      -5.895  32.637  16.308  0.00  0.00     0.089 H 
BRANCH  23  25
ATOM     25  O2  FMN d   1      -3.943  33.380  16.370  0.00  0.00    -0.391 OA
ATOM     26  H13 FMN d   1      -3.875  33.346  17.317  0.00  0.00     0.210 HD
ENDBRANCH  23  25
BRANCH  23  27
ATOM     27  C3  FMN d   1      -5.304  33.690  14.455  0.00  0.00     0.088 C 
ATOM     28  H14 FMN d   1      -5.115  34.746  14.211  0.00  0.00     0.091 H 
BRANCH  27  29
ATOM     29  O3  FMN d   1      -6.659  33.325  14.126  0.00  0.00    -0.390 OA
ATOM     30  H15 FMN d   1      -6.784  33.390  13.187  0.00  0.00     0.210 HD
ENDBRANCH  27  29
BRANCH  27  31
ATOM     31  C4  FMN d   1      -4.353  32.886  13.682  0.00  0.00     0.084 C 
ATOM     32  H16 FMN d   1      -3.335  33.169  13.988  0.00  0.00     0.090 H 
BRANCH  31  33
ATOM     33  O4  FMN d   1      -4.533  33.198  12.270  0.00  0.00    -0.391 OA
ATOM     34  H17 FMN d   1      -4.370  34.123  12.128  0.00  0.00     0.210 HD
ENDBRANCH  31  33
BRANCH  31  35
ATOM     35  C5  FMN d   1      -4.500  31.452  13.875  0.00  0.00     0.059 C 
ATOM     36  H18 FMN d   1      -5.457  31.107  13.456  0.00  0.00     0.079 H 
ATOM     37  H19 FMN d   1      -4.459  31.206  14.946  0.00  0.00     0.079 H 
BRANCH  35  38
ATOM     38  O5  FMN d   1      -3.397  30.834  13.178  0.00  0.00    -0.280 OA
BRANCH  38  39
ATOM     39  P   FMN d   1      -3.298  29.247  12.780  0.00  0.00     0.422 P 
ATOM     40  O1P FMN d   1      -3.382  28.415  14.143  0.00  0.00    -0.617 OA
ATOM     41  O2P FMN d   1      -1.891  28.986  11.965  0.00  0.00    -0.617 OA
ATOM     42  O3P FMN d   1      -4.513  28.853  11.727  0.00  0.00    -0.617 OA
ENDBRANCH  38  39
ENDBRANCH  35  38
ENDBRANCH  31  35
ENDBRANCH  27  31
ENDBRANCH  23  27
ENDBRANCH  20  23
ENDBRANCH  15  20
BRANCH  12  43
ATOM     43  C8M FMN d   1     -10.052  31.963  18.059  0.00  0.00    -0.051 C 
ATOM     44  H6  FMN d   1      -9.955  32.141  16.978  0.00  0.00     0.033 H 
ATOM     45  H7  FMN d   1     -11.004  32.383  18.416  0.00  0.00     0.033 H 
ATOM     46  H8  FMN d   1     -10.031  30.881  18.256  0.00  0.00     0.033 H 
ENDBRANCH  12  43
BRANCH  11  47
ATOM     47  C7M FMN d   1      -9.977  31.714  20.785  0.00  0.00    -0.051 C 
ATOM     48  H3  FMN d   1      -9.829  31.694  21.875  0.00  0.00     0.033 H 
ATOM     49  H4  FMN d   1      -9.966  30.686  20.395  0.00  0.00     0.033 H 
ATOM     50  H5  FMN d   1     -10.945  32.183  20.555  0.00  0.00     0.033 H 
ENDBRANCH  11  47
TORSDOF 12
