REMARK WARNING: 32 MAX_TORS EXCEEDED!!!
REMARK  52 active torsions:
REMARK  status: ('A' for Active; 'I' for Inactive)
REMARK    1  A    between atoms: O10_1  and  C11_2 
REMARK    2  A    between atoms: O10_1  and  C12_3 
REMARK    3  A    between atoms: C13_4  and  C15_6 
REMARK    4  A    between atoms: C15_6  and  O16_7 
REMARK    5  A    between atoms: O16_7  and  S17_8 
REMARK    6  A    between atoms: S17_8  and  O19_10 
REMARK    7  A    between atoms: C1B_12  and  O1C_13 
REMARK    8  A    between atoms: O1C_13  and  C1D_14 
REMARK    9  A    between atoms: C1E_15  and  O1F_16 
REMARK   10  A    between atoms: O1F_16  and  S1G_17 
REMARK   11  A    between atoms: S1G_17  and  O1J_20 
REMARK   12  A    between atoms: C1K_21  and  O1L_22 
REMARK   13  A    between atoms: O1L_22  and  C20_23 
REMARK   14  A    between atoms: C21_24  and  C23_26 
REMARK   15  A    between atoms: C26_29  and  O27_30 
REMARK   16  A    between atoms: O27_30  and  C28_31 
REMARK   17  A    between atoms: C29_32  and  O2A_33 
REMARK   18  A    between atoms: O2A_33  and  C2B_34 
REMARK   19  A    between atoms: C2C_35  and  O2D_36 
REMARK   20  A    between atoms: O2D_36  and  C30_37 
REMARK   21  A    between atoms: C31_38  and  C33_40 
REMARK   22  A    between atoms: C33_40  and  O34_41 
REMARK   23  A    between atoms: O34_41  and  S35_42 
REMARK   24  A    between atoms: S35_42  and  O36_43 
REMARK   25  A    between atoms: C39_46  and  O3A_47 
REMARK   26  A    between atoms: O3A_47  and  S3B_48 
REMARK   27  A    between atoms: S3B_48  and  O3E_51 
REMARK   28  A    between atoms: C3F_52  and  O3G_53 
REMARK   29  A    between atoms: O3G_53  and  S3H_54 
REMARK   30  A    between atoms: S3H_54  and  O3K_57 
REMARK   31  A    between atoms: C3L_58  and  O3M_59 
REMARK   32  A    between atoms: O3M_59  and  C40_60 
REMARK   33  A    between atoms: C41_61  and  C43_63 
REMARK   34  A    between atoms: C46_66  and  O47_67 
REMARK   35  A    between atoms: O47_67  and  C48_68 
REMARK   36  A    between atoms: C49_69  and  O4A_70 
REMARK   37  A    between atoms: O4A_70  and  S4B_71 
REMARK   38  A    between atoms: S4B_71  and  O4C_72 
REMARK   39  A    between atoms: C4F_75  and  O4G_76 
REMARK   40  A    between atoms: O4G_76  and  C50_77 
REMARK   41  A    between atoms: C51_78  and  C53_80 
REMARK   42  A    between atoms: C53_80  and  O54_81 
REMARK   43  A    between atoms: O54_81  and  S55_82 
REMARK   44  A    between atoms: S55_82  and  O56_83 
REMARK   45  A    between atoms: C59_86  and  O5A_87 
REMARK   46  A    between atoms: O5A_87  and  S5B_88 
REMARK   47  A    between atoms: S5B_88  and  O5E_91 
REMARK   48  A    between atoms: C5F_92  and  O5G_93 
REMARK   49  A    between atoms: O5G_93  and  S5H_94 
REMARK   50  A    between atoms: S5H_94  and  O5K_97 
REMARK   51  A    between atoms: C5L_98  and  O5M_99 
REMARK   52  A    between atoms: O5M_99  and  C5N_100 
ROOT
ATOM      1  C30 NTP d   1       7.031  41.388  12.662  0.00  0.00     0.097 C 
ATOM      2  C31 NTP d   1       5.706  42.125  12.411  0.00  0.00     0.091 C 
ATOM      3  O32 NTP d   1       4.606  41.209  12.415  0.00  0.00    -0.348 OA
ATOM      4  C39 NTP d   1       6.941  40.653  14.004  0.00  0.00     0.117 C 
ATOM      5  C3F NTP d   1       5.778  39.658  13.927  0.00  0.00     0.135 C 
ATOM      6  C3L NTP d   1       4.474  40.452  13.644  0.00  0.00     0.161 C 
ATOM      7  H27 NTP d   1       7.214  40.662  11.856  0.00  0.00     0.091 H 
ATOM      8  H28 NTP d   1       5.562  42.858  13.218  0.00  0.00     0.090 H 
ATOM      9  H32 NTP d   1       6.750  41.381  14.806  0.00  0.00     0.094 H 
ATOM     10  H34 NTP d   1       5.959  38.950  13.104  0.00  0.00     0.097 H 
ATOM     11  H36 NTP d   1       3.634  39.750  13.541  0.00  0.00     0.133 H 
ENDROOT
BRANCH   6  12
ATOM     12  O3M NTP d   1       4.229  41.323  14.759  0.00  0.00    -0.347 OA
BRANCH  12  13
ATOM     13  C40 NTP d   1       3.198  42.313  14.632  0.00  0.00     0.104 C 
ATOM     14  C41 NTP d   1       3.552  43.495  15.574  0.00  0.00     0.152 C 
ATOM     15  O42 NTP d   1       3.324  43.100  16.924  0.00  0.00    -0.340 OA
ATOM     16  H38 NTP d   1       2.895  44.343  15.330  0.00  0.00     0.104 H 
ATOM     17  C4F NTP d   1       1.941  42.975  17.232  0.00  0.00     0.161 C 
ATOM     18  C49 NTP d   1       1.074  42.638  15.985  0.00  0.00     0.133 C 
ATOM     19  H45 NTP d   1       1.820  42.167  17.968  0.00  0.00     0.133 H 
ATOM     20  C46 NTP d   1       1.848  41.680  15.055  0.00  0.00     0.097 C 
ATOM     21  H43 NTP d   1       0.858  43.569  15.441  0.00  0.00     0.097 H 
ATOM     22  H39 NTP d   1       2.052  40.745  15.598  0.00  0.00     0.091 H 
ATOM     23  H37 NTP d   1       3.135  42.667  13.592  0.00  0.00     0.092 H 
BRANCH  14  24
ATOM     24  C43 NTP d   1       5.003  43.951  15.429  0.00  0.00     0.206 C 
ATOM     25  O44 NTP d   1       5.346  44.656  14.452  0.00  0.00    -0.646 OA
ATOM     26  O45 NTP d   1       5.855  43.631  16.292  0.00  0.00    -0.646 OA
ENDBRANCH  14  24
BRANCH  17  27
ATOM     27  O4G NTP d   1       1.482  44.194  17.798  0.00  0.00    -0.348 OA
BRANCH  27  28
ATOM     28  C50 NTP d   1       1.881  44.470  19.138  0.00  0.00     0.097 C 
ATOM     29  C51 NTP d   1       0.703  44.215  20.093  0.00  0.00     0.091 C 
ATOM     30  O52 NTP d   1       1.072  44.512  21.445  0.00  0.00    -0.348 OA
ATOM     31  H47 NTP d   1      -0.131  44.867  19.794  0.00  0.00     0.090 H 
ATOM     32  C5L NTP d   1       1.518  45.861  21.649  0.00  0.00     0.159 C 
ATOM     33  C5F NTP d   1       2.726  46.167  20.724  0.00  0.00     0.135 C 
ATOM     34  H55 NTP d   1       1.839  45.971  22.695  0.00  0.00     0.133 H 
ATOM     35  C59 NTP d   1       2.320  45.926  19.257  0.00  0.00     0.117 C 
ATOM     36  H53 NTP d   1       3.552  45.487  20.981  0.00  0.00     0.097 H 
ATOM     37  H51 NTP d   1       1.484  46.589  18.990  0.00  0.00     0.094 H 
ATOM     38  H46 NTP d   1       2.720  43.813  19.410  0.00  0.00     0.091 H 
BRANCH  29  39
ATOM     39  C53 NTP d   1       0.234  42.757  20.051  0.00  0.00     0.066 C 
ATOM     40  H48 NTP d   1      -0.229  42.544  19.076  0.00  0.00     0.080 H 
ATOM     41  H49 NTP d   1      -0.499  42.580  20.852  0.00  0.00     0.080 H 
BRANCH  39  42
ATOM     42  O54 NTP d   1       1.364  41.912  20.240  0.00  0.00    -0.261 OA
BRANCH  42  43
ATOM     43  S55 NTP d   1       1.082  40.331  20.427  0.00  0.00     0.240 S 
ATOM     44  O57 NTP d   1      -0.333  40.183  20.345  0.00  0.00    -0.579 OA
ATOM     45  O58 NTP d   1       1.610  39.995  21.709  0.00  0.00    -0.579 OA
BRANCH  43  46
ATOM     46  O56 NTP d   1       1.773  39.705  19.345  0.00  0.00    -0.274 OA
ATOM     47  H50 NTP d   1       1.429  40.029  18.521  0.00  0.00     0.234 HD
ENDBRANCH  43  46
ENDBRANCH  42  43
ENDBRANCH  39  42
ENDBRANCH  29  39
BRANCH  32  48
ATOM     48  O5M NTP d   1       0.459  46.777  21.402  0.00  0.00    -0.363 OA
BRANCH  48  49
ATOM     49  C5N NTP d   1       0.010  47.437  22.580  0.00  0.00     0.007 C 
ATOM     50  H56 NTP d   1      -0.806  48.129  22.324  0.00  0.00     0.066 H 
ATOM     51  H57 NTP d   1       0.843  48.001  23.024  0.00  0.00     0.066 H 
ATOM     52  H58 NTP d   1      -0.354  46.691  23.302  0.00  0.00     0.066 H 
ENDBRANCH  48  49
ENDBRANCH  32  48
BRANCH  33  53
ATOM     53  O5G NTP d   1       3.169  47.511  20.907  0.00  0.00    -0.251 OA
BRANCH  53  54
ATOM     54  S5H NTP d   1       4.327  47.754  22.011  0.00  0.00     0.241 S 
ATOM     55  O5I NTP d   1       5.417  48.296  21.274  0.00  0.00    -0.579 OA
ATOM     56  O5J NTP d   1       4.601  46.476  22.557  0.00  0.00    -0.579 OA
BRANCH  54  57
ATOM     57  O5K NTP d   1       3.767  48.656  22.963  0.00  0.00    -0.274 OA
ATOM     58  H54 NTP d   1       2.994  48.264  23.352  0.00  0.00     0.234 HD
ENDBRANCH  54  57
ENDBRANCH  53  54
ENDBRANCH  33  53
BRANCH  35  59
ATOM     59  O5A NTP d   1       3.421  46.188  18.384  0.00  0.00    -0.253 OA
BRANCH  59  60
ATOM     60  S5B NTP d   1       3.292  47.413  17.333  0.00  0.00     0.240 S 
ATOM     61  O5C NTP d   1       2.184  47.071  16.514  0.00  0.00    -0.579 OA
ATOM     62  O5D NTP d   1       4.525  47.419  16.630  0.00  0.00    -0.579 OA
BRANCH  60  63
ATOM     63  O5E NTP d   1       3.082  48.583  18.117  0.00  0.00    -0.274 OA
ATOM     64  H52 NTP d   1       3.821  48.708  18.701  0.00  0.00     0.234 HD
ENDBRANCH  60  63
ENDBRANCH  59  60
ENDBRANCH  35  59
ENDBRANCH  27  28
ENDBRANCH  17  27
BRANCH  18  65
ATOM     65  O4A NTP d   1      -0.165  42.033  16.376  0.00  0.00    -0.251 OA
BRANCH  65  66
ATOM     66  S4B NTP d   1      -1.509  42.951  16.347  0.00  0.00     0.241 S 
ATOM     67  O4D NTP d   1      -1.763  43.202  14.966  0.00  0.00    -0.579 OA
ATOM     68  O4E NTP d   1      -2.506  42.140  16.971  0.00  0.00    -0.579 OA
BRANCH  66  69
ATOM     69  O4C NTP d   1      -1.196  44.136  17.085  0.00  0.00    -0.274 OA
ATOM     70  H44 NTP d   1      -0.467  44.582  16.671  0.00  0.00     0.234 HD
ENDBRANCH  66  69
ENDBRANCH  65  66
ENDBRANCH  18  65
BRANCH  20  71
ATOM     71  O47 NTP d   1       1.062  41.384  13.917  0.00  0.00    -0.385 OA
BRANCH  71  72
ATOM     72  C48 NTP d   1       0.635  40.031  13.899  0.00  0.00     0.005 C 
ATOM     73  H40 NTP d   1       0.029  39.850  12.999  0.00  0.00     0.066 H 
ATOM     74  H41 NTP d   1       0.031  39.825  14.795  0.00  0.00     0.066 H 
ATOM     75  H42 NTP d   1       1.514  39.369  13.889  0.00  0.00     0.066 H 
ENDBRANCH  71  72
ENDBRANCH  20  71
ENDBRANCH  12  13
ENDBRANCH   6  12
BRANCH   5  76
ATOM     76  O3G NTP d   1       5.663  38.925  15.151  0.00  0.00    -0.251 OA
BRANCH  76  77
ATOM     77  S3H NTP d   1       4.678  37.634  15.186  0.00  0.00     0.241 S 
ATOM     78  O3I NTP d   1       3.719  37.937  16.194  0.00  0.00    -0.579 OA
ATOM     79  O3J NTP d   1       5.507  36.532  15.516  0.00  0.00    -0.579 OA
BRANCH  77  80
ATOM     80  O3K NTP d   1       4.112  37.530  13.879  0.00  0.00    -0.274 OA
ATOM     81  H35 NTP d   1       4.807  37.413  13.242  0.00  0.00     0.234 HD
ENDBRANCH  77  80
ENDBRANCH  76  77
ENDBRANCH   5  76
BRANCH   2  82
ATOM     82  C33 NTP d   1       5.712  42.868  11.066  0.00  0.00     0.066 C 
ATOM     83  H29 NTP d   1       6.225  43.834  11.182  0.00  0.00     0.080 H 
ATOM     84  H30 NTP d   1       4.677  43.040  10.736  0.00  0.00     0.080 H 
BRANCH  82  85
ATOM     85  O34 NTP d   1       6.398  42.076  10.095  0.00  0.00    -0.261 OA
BRANCH  85  86
ATOM     86  S35 NTP d   1       6.529  42.681   8.594  0.00  0.00     0.240 S 
ATOM     87  O37 NTP d   1       5.887  43.953   8.632  0.00  0.00    -0.579 OA
ATOM     88  O38 NTP d   1       5.872  41.732   7.754  0.00  0.00    -0.579 OA
BRANCH  86  89
ATOM     89  O36 NTP d   1       7.932  42.781   8.347  0.00  0.00    -0.274 OA
ATOM     90  H31 NTP d   1       8.325  43.358   8.991  0.00  0.00     0.234 HD
ENDBRANCH  86  89
ENDBRANCH  85  86
ENDBRANCH  82  85
ENDBRANCH   2  82
BRANCH   4  91
ATOM     91  O3A NTP d   1       8.139  39.965  14.284  0.00  0.00    -0.253 OA
BRANCH  91  92
ATOM     92  S3B NTP d   1       8.829  40.335  15.691  0.00  0.00     0.240 S 
ATOM     93  O3C NTP d   1       7.850  40.028  16.675  0.00  0.00    -0.579 OA
ATOM     94  O3D NTP d   1       9.989  39.516  15.755  0.00  0.00    -0.579 OA
BRANCH  92  95
ATOM     95  O3E NTP d   1       9.129  41.725  15.604  0.00  0.00    -0.274 OA
ATOM     96  H33 NTP d   1       9.719  41.876  14.875  0.00  0.00     0.234 HD
ENDBRANCH  92  95
ENDBRANCH  91  92
ENDBRANCH   4  91
BRANCH   1  97
ATOM     97  O2D NTP d   1       8.087  42.344  12.693  0.00  0.00    -0.348 OA
BRANCH  97  98
ATOM     98  C2C NTP d   1       9.132  42.247  11.730  0.00  0.00     0.160 C 
ATOM     99  O22 NTP d   1      10.076  41.239  12.109  0.00  0.00    -0.340 OA
ATOM    100  C21 NTP d   1      11.181  41.122  11.195  0.00  0.00     0.152 C 
ATOM    101  C20 NTP d   1      11.937  42.478  11.128  0.00  0.00     0.103 C 
ATOM    102  H17 NTP d   1      10.799  40.871  10.194  0.00  0.00     0.104 H 
ATOM    103  C26 NTP d   1      10.964  43.576  10.659  0.00  0.00     0.095 C 
ATOM    104  H16 NTP d   1      12.318  42.734  12.128  0.00  0.00     0.092 H 
ATOM    105  C29 NTP d   1       9.816  43.623  11.663  0.00  0.00     0.112 C 
ATOM    106  H18 NTP d   1      10.572  43.315   9.665  0.00  0.00     0.091 H 
ATOM    107  H22 NTP d   1      10.216  43.874  12.656  0.00  0.00     0.095 H 
ATOM    108  H26 NTP d   1       8.709  41.993  10.747  0.00  0.00     0.133 H 
BRANCH 100 109
ATOM    109  C23 NTP d   1      12.136  40.003  11.666  0.00  0.00     0.206 C 
ATOM    110  O24 NTP d   1      12.405  39.855  12.884  0.00  0.00    -0.646 OA
ATOM    111  O25 NTP d   1      12.660  39.232  10.829  0.00  0.00    -0.646 OA
ENDBRANCH 100 109
BRANCH 101 112
ATOM    112  O1L NTP d   1      13.037  42.369  10.220  0.00  0.00    -0.347 OA
BRANCH 112 113
ATOM    113  C1K NTP d   1      14.146  43.251  10.430  0.00  0.00     0.161 C 
ATOM    114  O14 NTP d   1      15.115  42.638  11.287  0.00  0.00    -0.348 OA
ATOM    115  C13 NTP d   1      15.626  41.392  10.796  0.00  0.00     0.090 C 
ATOM    116  C12 NTP d   1      16.266  41.577   9.416  0.00  0.00     0.092 C 
ATOM    117  H5  NTP d   1      14.796  40.677  10.704  0.00  0.00     0.090 H 
ATOM    118  C1B NTP d   1      15.229  42.166   8.453  0.00  0.00     0.096 C 
ATOM    119  H4  NTP d   1      17.114  42.273   9.498  0.00  0.00     0.091 H 
ATOM    120  C1E NTP d   1      14.770  43.517   9.050  0.00  0.00     0.133 C 
ATOM    121  H9  NTP d   1      14.367  41.488   8.366  0.00  0.00     0.091 H 
ATOM    122  H13 NTP d   1      15.637  44.185   9.155  0.00  0.00     0.097 H 
ATOM    123  H15 NTP d   1      13.800  44.193  10.880  0.00  0.00     0.133 H 
BRANCH 115 124
ATOM    124  C15 NTP d   1      16.647  40.842  11.804  0.00  0.00     0.066 C 
ATOM    125  H6  NTP d   1      17.636  40.782  11.327  0.00  0.00     0.080 H 
ATOM    126  H7  NTP d   1      16.335  39.839  12.130  0.00  0.00     0.080 H 
BRANCH 124 127
ATOM    127  O16 NTP d   1      16.718  41.705  12.932  0.00  0.00    -0.261 OA
BRANCH 127 128
ATOM    128  S17 NTP d   1      17.770  41.318  14.083  0.00  0.00     0.240 S 
ATOM    129  O18 NTP d   1      18.621  42.453  14.191  0.00  0.00    -0.579 OA
ATOM    130  O1A NTP d   1      16.980  41.115  15.243  0.00  0.00    -0.579 OA
BRANCH 128 131
ATOM    131  O19 NTP d   1      18.445  40.152  13.620  0.00  0.00    -0.274 OA
ATOM    132  H8  NTP d   1      18.886  40.347  12.802  0.00  0.00     0.234 HD
ENDBRANCH 128 131
ENDBRANCH 127 128
ENDBRANCH 124 127
ENDBRANCH 115 124
BRANCH 116 133
ATOM    133  O10 NTP d   1      16.744  40.317   8.947  0.00  0.00    -0.385 OA
BRANCH 133 134
ATOM    134  C11 NTP d   1      17.967  40.421   8.225  0.00  0.00     0.005 C 
ATOM    135  H1  NTP d   1      18.282  39.421   7.892  0.00  0.00     0.066 H 
ATOM    136  H2  NTP d   1      18.742  40.851   8.876  0.00  0.00     0.066 H 
ATOM    137  H3  NTP d   1      17.822  41.071   7.349  0.00  0.00     0.066 H 
ENDBRANCH 133 134
ENDBRANCH 116 133
BRANCH 118 138
ATOM    138  O1C NTP d   1      15.819  42.341   7.171  0.00  0.00    -0.385 OA
BRANCH 138 139
ATOM    139  C1D NTP d   1      15.362  41.373   6.228  0.00  0.00     0.005 C 
ATOM    140  H10 NTP d   1      15.846  41.551   5.256  0.00  0.00     0.066 H 
ATOM    141  H11 NTP d   1      14.271  41.458   6.115  0.00  0.00     0.066 H 
ATOM    142  H12 NTP d   1      15.617  40.364   6.585  0.00  0.00     0.066 H 
ENDBRANCH 138 139
ENDBRANCH 118 138
BRANCH 120 143
ATOM    143  O1F NTP d   1      13.795  44.135   8.214  0.00  0.00    -0.251 OA
BRANCH 143 144
ATOM    144  S1G NTP d   1      14.251  45.443   7.393  0.00  0.00     0.241 S 
ATOM    145  O1H NTP d   1      15.309  45.000   6.550  0.00  0.00    -0.579 OA
ATOM    146  O1I NTP d   1      14.674  46.384   8.382  0.00  0.00    -0.579 OA
BRANCH 144 147
ATOM    147  O1J NTP d   1      13.084  45.843   6.670  0.00  0.00    -0.274 OA
ATOM    148  H14 NTP d   1      12.814  45.139   6.092  0.00  0.00     0.234 HD
ENDBRANCH 144 147
ENDBRANCH 143 144
ENDBRANCH 120 143
ENDBRANCH 112 113
ENDBRANCH 101 112
BRANCH 103 149
ATOM    149  O27 NTP d   1      11.614  44.843  10.576  0.00  0.00    -0.385 OA
BRANCH 149 150
ATOM    150  C28 NTP d   1      12.027  45.359  11.842  0.00  0.00     0.005 C 
ATOM    151  H19 NTP d   1      12.518  46.333  11.698  0.00  0.00     0.066 H 
ATOM    152  H20 NTP d   1      12.733  44.658  12.311  0.00  0.00     0.066 H 
ATOM    153  H21 NTP d   1      11.148  45.483  12.492  0.00  0.00     0.066 H 
ENDBRANCH 149 150
ENDBRANCH 103 149
BRANCH 105 154
ATOM    154  O2A NTP d   1       8.878  44.614  11.279  0.00  0.00    -0.383 OA
BRANCH 154 155
ATOM    155  C2B NTP d   1       8.593  45.531  12.331  0.00  0.00     0.005 C 
ATOM    156  H23 NTP d   1       7.863  46.275  11.981  0.00  0.00     0.066 H 
ATOM    157  H24 NTP d   1       9.519  46.041  12.634  0.00  0.00     0.066 H 
ATOM    158  H25 NTP d   1       8.177  44.985  13.191  0.00  0.00     0.066 H 
ENDBRANCH 154 155
ENDBRANCH 105 154
ENDBRANCH  97  98
ENDBRANCH   1  97
TORSDOF 52
