REMARK  16 active torsions:
REMARK  status: ('A' for Active; 'I' for Inactive)
REMARK    1  A    between atoms: C22_7  and  C15_3 
REMARK       I    between atoms: C15_3  and  N4_13 
REMARK    2  A    between atoms: C27_8  and  C19_4 
REMARK       I    between atoms: N28_19  and  C27_8 
REMARK    3  A    between atoms: C30_9  and  C31_10 
REMARK    4  A    between atoms: C30_9  and  C35_11 
REMARK    5  A    between atoms: C29_20  and  C30_9 
REMARK    6  A    between atoms: C29_20  and  N28_19 
REMARK    7  A    between atoms: C40_21  and  C29_20 
REMARK       I    between atoms: N54_29  and  C40_21 
REMARK    8  A    between atoms: C44_23  and  C52_27 
REMARK       I    between atoms: C52_27  and  N53_28 
REMARK    9  A    between atoms: N53_28  and  C59_31 
REMARK   10  A    between atoms: C59_31  and  C61_32 
REMARK   11  A    between atoms: C59_31  and  C71_35 
REMARK   12  A    between atoms: C61_32  and  C62_33 
REMARK   13  A    between atoms: C61_32  and  C66_34 
REMARK   14  A    between atoms: C71_35  and  C73_36 
REMARK   15  A    between atoms: C71_35  and  O74_37 
REMARK   16  A    between atoms: C73_36  and  C77_40 
ROOT
ATOM      1  C29 SEI d   1      71.151  53.198  56.063  0.00  0.00     0.092 C 
ATOM      2  H21 SEI d   1      71.295  53.334  57.145  0.00  0.00     0.088 H 
ENDROOT
BRANCH   1   3
ATOM      3  C30 SEI d   1      72.350  53.840  55.310  0.00  0.00    -0.033 C 
ATOM      4  H7  SEI d   1      72.370  53.451  54.281  0.00  0.00     0.042 H 
BRANCH   3   5
ATOM      5  C31 SEI d   1      73.634  53.469  56.002  0.00  0.00    -0.071 C 
ATOM      6  H8  SEI d   1      74.482  53.923  55.469  0.00  0.00     0.028 H 
ATOM      7  H9  SEI d   1      73.746  52.375  56.005  0.00  0.00     0.028 H 
ATOM      8  H10 SEI d   1      73.612  53.838  57.038  0.00  0.00     0.028 H 
ENDBRANCH   3   5
BRANCH   3   9
ATOM      9  C35 SEI d   1      72.224  55.370  55.256  0.00  0.00    -0.071 C 
ATOM     10  H11 SEI d   1      71.286  55.643  54.751  0.00  0.00     0.028 H 
ATOM     11  H12 SEI d   1      73.076  55.789  54.700  0.00  0.00     0.028 H 
ATOM     12  H13 SEI d   1      72.220  55.774  56.279  0.00  0.00     0.028 H 
ENDBRANCH   3   9
ENDBRANCH   1   3
BRANCH   1  13
ATOM     13  N28 SEI d   1      71.050  51.778  55.748  0.00  0.00    -0.343 N 
ATOM     14  C27 SEI d   1      71.308  51.004  56.841  0.00  0.00     0.252 C 
ATOM     15  O81 SEI d   1      71.252  51.457  57.989  0.00  0.00    -0.268 OA
ATOM     16  H20 SEI d   1      70.820  51.417  54.844  0.00  0.00     0.163 HD
BRANCH  14  17
ATOM     17  C19 SEI d   1      71.685  49.600  56.579  0.00  0.00     0.032 A 
ATOM     18  C20 SEI d   1      71.136  48.627  57.415  0.00  0.00    -0.067 A 
ATOM     19  C21 SEI d   1      71.547  47.302  57.276  0.00  0.00    -0.067 A 
ATOM     20  H5  SEI d   1      70.400  48.898  58.163  0.00  0.00     0.085 H 
ATOM     21  C22 SEI d   1      72.486  46.895  56.303  0.00  0.00     0.032 A 
ATOM     22  H6  SEI d   1      71.129  46.555  57.941  0.00  0.00     0.085 H 
ATOM     23  C17 SEI d   1      73.042  47.885  55.474  0.00  0.00    -0.067 A 
ATOM     24  C18 SEI d   1      72.597  49.215  55.564  0.00  0.00    -0.067 A 
ATOM     25  H18 SEI d   1      73.817  47.622  54.763  0.00  0.00     0.085 H 
ATOM     26  H19 SEI d   1      72.953  49.951  54.853  0.00  0.00     0.085 H 
BRANCH  21  27
ATOM     27  C15 SEI d   1      72.848  45.453  56.125  0.00  0.00     0.253 C 
ATOM     28  N4  SEI d   1      71.887  44.521  56.221  0.00  0.00    -0.344 N 
ATOM     29  C3  SEI d   1      72.298  43.125  56.197  0.00  0.00     0.018 C 
ATOM     30  C5  SEI d   1      70.478  44.808  55.977  0.00  0.00     0.018 C 
ATOM     31  C2  SEI d   1      71.249  42.254  56.829  0.00  0.00     0.034 C 
ATOM     32  H3  SEI d   1      72.449  42.810  55.154  0.00  0.00     0.067 H 
ATOM     33  H4  SEI d   1      73.241  43.016  56.753  0.00  0.00     0.067 H 
ATOM     34  O1  SEI d   1      70.063  42.641  56.186  0.00  0.00    -0.388 OA
ATOM     35  H1  SEI d   1      71.186  42.438  57.912  0.00  0.00     0.076 H 
ATOM     36  H2  SEI d   1      71.463  41.190  56.650  0.00  0.00     0.076 H 
ATOM     37  C6  SEI d   1      69.620  43.842  56.729  0.00  0.00     0.034 C 
ATOM     38  H16 SEI d   1      69.805  43.892  57.812  0.00  0.00     0.076 H 
ATOM     39  H17 SEI d   1      68.551  44.008  56.531  0.00  0.00     0.076 H 
ATOM     40  H14 SEI d   1      70.269  44.719  54.901  0.00  0.00     0.067 H 
ATOM     41  H15 SEI d   1      70.252  45.832  56.310  0.00  0.00     0.067 H 
ATOM     42  O16 SEI d   1      73.975  45.051  55.855  0.00  0.00    -0.267 OA
ENDBRANCH  21  27
ENDBRANCH  14  17
ENDBRANCH   1  13
BRANCH   1  43
ATOM     43  C40 SEI d   1      69.827  53.819  55.636  0.00  0.00     0.243 C 
ATOM     44  O42 SEI d   1      69.456  53.750  54.470  0.00  0.00    -0.271 OA
ATOM     45  N54 SEI d   1      69.081  54.357  56.595  0.00  0.00    -0.337 N 
ATOM     46  C44 SEI d   1      67.761  54.824  56.235  0.00  0.00     0.091 A 
ATOM     47  C45 SEI d   1      69.412  54.482  58.015  0.00  0.00    -0.001 A 
ATOM     48  C47 SEI d   1      67.162  55.232  57.567  0.00  0.00    -0.036 A 
ATOM     49  H22 SEI d   1      67.169  54.028  55.760  0.00  0.00     0.087 H 
ATOM     50  C46 SEI d   1      68.126  54.973  58.670  0.00  0.00    -0.048 A 
ATOM     51  H27 SEI d   1      66.244  54.653  57.744  0.00  0.00     0.036 H 
ATOM     52  H28 SEI d   1      66.919  56.305  57.542  0.00  0.00     0.036 H 
ATOM     53  H25 SEI d   1      68.316  55.898  59.234  0.00  0.00     0.035 H 
ATOM     54  H26 SEI d   1      67.728  54.205  59.349  0.00  0.00     0.035 H 
ATOM     55  H23 SEI d   1      69.712  53.509  58.431  0.00  0.00     0.064 H 
ATOM     56  H24 SEI d   1      70.224  55.209  58.161  0.00  0.00     0.064 H 
BRANCH  46  57
ATOM     57  C52 SEI d   1      67.870  56.012  55.299  0.00  0.00     0.241 C 
ATOM     58  N53 SEI d   1      66.873  56.013  54.410  0.00  0.00    -0.352 N 
ATOM     59  H29 SEI d   1      66.212  55.263  54.419  0.00  0.00     0.163 HD
ATOM     60  O58 SEI d   1      68.779  56.826  55.418  0.00  0.00    -0.271 OA
BRANCH  58  61
ATOM     61  C59 SEI d   1      66.725  57.068  53.437  0.00  0.00     0.045 C 
ATOM     62  H30 SEI d   1      67.620  57.697  53.552  0.00  0.00     0.077 H 
BRANCH  61  63
ATOM     63  C61 SEI d   1      66.756  56.479  51.992  0.00  0.00    -0.039 C 
ATOM     64  H31 SEI d   1      66.559  57.297  51.283  0.00  0.00     0.042 H 
BRANCH  63  65
ATOM     65  C62 SEI d   1      65.697  55.427  51.804  0.00  0.00    -0.071 C 
ATOM     66  H32 SEI d   1      65.748  55.035  50.778  0.00  0.00     0.028 H 
ATOM     67  H33 SEI d   1      64.705  55.870  51.979  0.00  0.00     0.028 H 
ATOM     68  H34 SEI d   1      65.864  54.607  52.518  0.00  0.00     0.028 H 
ENDBRANCH  63  65
BRANCH  63  69
ATOM     69  C66 SEI d   1      68.128  55.897  51.688  0.00  0.00    -0.071 C 
ATOM     70  H35 SEI d   1      68.895  56.673  51.828  0.00  0.00     0.028 H 
ATOM     71  H36 SEI d   1      68.153  55.541  50.648  0.00  0.00     0.028 H 
ATOM     72  H37 SEI d   1      68.329  55.056  52.368  0.00  0.00     0.028 H 
ENDBRANCH  63  69
ENDBRANCH  61  63
BRANCH  61  73
ATOM     73  C71 SEI d   1      65.536  58.020  53.561  0.00  0.00     0.127 C 
ATOM     74  H38 SEI d   1      64.779  57.244  53.750  0.00  0.00     0.096 H 
BRANCH  73  75
ATOM     75  C73 SEI d   1      65.391  58.734  55.035  0.00  0.00     0.366 C 
ATOM     76  F75 SEI d   1      64.122  59.101  55.604  0.00  0.00    -0.193 F 
ATOM     77  F76 SEI d   1      66.120  57.963  55.905  0.00  0.00    -0.193 F 
BRANCH  75  78
ATOM     78  C77 SEI d   1      66.017  60.044  54.943  0.00  0.00     0.457 C 
ATOM     79  F78 SEI d   1      67.273  59.804  54.683  0.00  0.00    -0.165 F 
ATOM     80  F79 SEI d   1      65.435  60.720  53.967  0.00  0.00    -0.165 F 
ATOM     81  F80 SEI d   1      65.803  60.612  56.106  0.00  0.00    -0.165 F 
ENDBRANCH  75  78
ENDBRANCH  73  75
BRANCH  73  82
ATOM     82  O74 SEI d   1      64.996  58.430  52.541  0.00  0.00    -0.387 OA
ATOM     83  H39 SEI d   1      64.054  58.433  52.662  0.00  0.00     0.210 HD
ENDBRANCH  73  82
ENDBRANCH  61  73
ENDBRANCH  58  61
ENDBRANCH  46  57
ENDBRANCH   1  43
TORSDOF 16
