REMARK  3 active torsions:
REMARK  status: ('A' for Active; 'I' for Inactive)
REMARK    1  A    between atoms: C1_1  and  C8_8 
REMARK    2  A    between atoms: C4_4  and  C7_7 
REMARK    3  A    between atoms: C7_7  and  N_9 
ROOT
ATOM      1  C1  AMH d   1       5.633  -0.356  -9.044  0.00  0.00     0.030 C 
ATOM      2  C2  AMH d   1       5.073   0.789  -9.892  0.00  0.00    -0.052 C 
ATOM      3  C3  AMH d   1       3.984   0.253 -10.818  0.00  0.00    -0.059 C 
ATOM      4  C4  AMH d   1       2.772  -0.312 -10.049  0.00  0.00    -0.031 C 
ATOM      5  C5  AMH d   1       3.275  -1.320  -9.014  0.00  0.00    -0.059 C 
ATOM      6  C6  AMH d   1       4.474  -0.842  -8.173  0.00  0.00    -0.052 C 
ATOM      7  H1  AMH d   1       5.950  -1.174  -9.708  0.00  0.00     0.056 H 
ATOM      8  H2  AMH d   1       5.882   1.229 -10.494  0.00  0.00     0.034 H 
ATOM      9  H3  AMH d   1       4.647   1.559  -9.232  0.00  0.00     0.034 H 
ATOM     10  H4  AMH d   1       4.412  -0.549 -11.437  0.00  0.00     0.033 H 
ATOM     11  H5  AMH d   1       3.639   1.072 -11.466  0.00  0.00     0.033 H 
ATOM     12  H6  AMH d   1       2.260   0.512  -9.532  0.00  0.00     0.042 H 
ATOM     13  H7  AMH d   1       3.574  -2.236  -9.546  0.00  0.00     0.033 H 
ATOM     14  H8  AMH d   1       2.446  -1.548  -8.328  0.00  0.00     0.033 H 
ATOM     15  H9  AMH d   1       4.146  -0.015  -7.526  0.00  0.00     0.034 H 
ATOM     16  H10 AMH d   1       4.825  -1.678  -7.550  0.00  0.00     0.034 H 
ENDROOT
BRANCH   4  17
ATOM     17  C7  AMH d   1       1.766  -0.996 -11.017  0.00  0.00     0.083 C 
ATOM     18  H11 AMH d   1       1.168  -0.223 -11.522  0.00  0.00     0.075 H 
ATOM     19  H12 AMH d   1       1.101  -1.656 -10.440  0.00  0.00     0.075 H 
BRANCH  17  20
ATOM     20  N   AMH d   1       2.475  -1.789 -12.024  0.00  0.00    -0.079 N 
ATOM     21  H13 AMH d   1       1.807  -2.224 -12.641  0.00  0.00     0.274 HD
ATOM     22  H14 AMH d   1       3.023  -2.501 -11.567  0.00  0.00     0.274 HD
ATOM     23  H15 AMH d   1       3.083  -1.188 -12.558  0.00  0.00     0.274 HD
ENDBRANCH  17  20
ENDBRANCH   4  17
BRANCH   1  24
ATOM     24  C8  AMH d   1       6.866   0.082  -8.209  0.00  0.00     0.177 C 
ATOM     25  O1  AMH d   1       7.463   1.118  -8.498  0.00  0.00    -0.648 OA
ATOM     26  O2  AMH d   1       7.265  -0.627  -7.287  0.00  0.00    -0.648 OA
ENDBRANCH   1  24
TORSDOF 3
