REMARK  7 active torsions:
REMARK  status: ('A' for Active; 'I' for Inactive)
REMARK    1  A    between atoms: O5_1  and  C5_2 
REMARK    2  A    between atoms: C5_2  and  C4_3 
REMARK    3  A    between atoms: C3_5  and  O3_6 
REMARK    4  A    between atoms: O3_6  and  P_21 
REMARK    5  A    between atoms: C2_7  and  O2_8 
REMARK    6  A    between atoms: C1_9  and  N9_10 
REMARK    7  A    between atoms: C2_17  and  N2_18 
ROOT
ATOM      1  C4    G d   1       5.176  27.436   2.803  0.00  0.00     0.089 C 
ATOM      2  O4    G d   1       5.725  27.866   4.059  0.00  0.00    -0.353 OA
ATOM      3  C3    G d   1       6.231  26.561   2.129  0.00  0.00     0.104 C 
ATOM      4  C2    G d   1       7.151  26.150   3.239  0.00  0.00     0.106 C 
ATOM      5  C1    G d   1       7.054  27.314   4.207  0.00  0.00     0.140 C 
ATOM      6  H4    G d   1       4.990  28.318   2.172  0.00  0.00     0.090 H 
ATOM      7  H5    G d   1       5.776  25.687   1.640  0.00  0.00     0.092 H 
ATOM      8  H6    G d   1       6.805  25.221   3.715  0.00  0.00     0.093 H 
ATOM      9  H8    G d   1       7.796  28.078   3.931  0.00  0.00     0.122 H 
ENDROOT
BRANCH   5  10
ATOM     10  N9    G d   1       7.324  26.889   5.602  0.00  0.00    -0.293 N 
ATOM     11  C8    G d   1       8.368  27.187   6.401  0.00  0.00     0.071 A 
ATOM     12  N7    G d   1       8.450  26.670   7.565  0.00  0.00    -0.234 NA
ATOM     13  H9    G d   1       9.142  27.869   6.053  0.00  0.00     0.144 H 
ATOM     14  C5    G d   1       7.281  25.895   7.559  0.00  0.00     0.173 A 
ATOM     15  C6    G d   1       6.744  25.090   8.570  0.00  0.00     0.292 A 
ATOM     16  C4    G d   1       6.591  26.040   6.370  0.00  0.00     0.186 A 
ATOM     17  O6    G d   1       7.198  24.889   9.693  0.00  0.00    -0.265 OA
ATOM     18  N1    G d   1       5.549  24.515   8.191  0.00  0.00    -0.152 N 
ATOM     19  C2    G d   1       4.930  24.706   6.986  0.00  0.00     0.703 A 
ATOM     20  H10   G d   1       5.099  23.911   8.849  0.00  0.00     0.187 HD
ATOM     21  N3    G d   1       5.418  25.468   6.023  0.00  0.00    -0.044 NA
BRANCH  19  22
ATOM     22  N2    G d   1       3.783  24.092   6.797  0.00  0.00    -0.233 N 
ATOM     23  H11   G d   1       3.279  24.205   5.906  0.00  0.00     0.174 HD
ATOM     24  H12   G d   1       3.388  23.498   7.540  0.00  0.00     0.174 HD
ENDBRANCH  19  22
ENDBRANCH   5  10
BRANCH   4  25
ATOM     25  O2    G d   1       8.467  25.958   2.750  0.00  0.00    -0.388 OA
ATOM     26  H7    G d   1       8.784  26.769   2.371  0.00  0.00     0.210 HD
ENDBRANCH   4  25
BRANCH   1  27
ATOM     27  C5    G d   1       3.843  26.700   2.993  0.00  0.00     0.043 C 
ATOM     28  H2    G d   1       3.160  27.347   3.563  0.00  0.00     0.078 H 
ATOM     29  H3    G d   1       3.410  26.491   2.004  0.00  0.00     0.078 H 
BRANCH  27  30
ATOM     30  O5    G d   1       4.000  25.471   3.693  0.00  0.00    -0.398 OA
ATOM     31  H1    G d   1       4.367  25.642   4.552  0.00  0.00     0.209 HD
ENDBRANCH  27  30
ENDBRANCH   1  27
BRANCH   3  32
ATOM     32  O3    G d   1       6.965  27.351   1.170  0.00  0.00    -0.303 OA
BRANCH  32  33
ATOM     33  P   U34 d   1       7.051  27.008  -0.395  0.00  0.00     0.240 P 
ATOM     34  O1P U34 d   1       7.314  25.542  -0.545  0.00  0.00    -0.648 OA
ATOM     35  O2P U34 d   1       8.012  27.942  -0.984  0.00  0.00    -0.648 OA
ATOM     36  H13 U34 d   1       6.157  27.191  -0.823  0.00  0.00     0.164 HD
ENDBRANCH  32  33
ENDBRANCH   3  32
TORSDOF 7
