REMARK  11 active torsions:
REMARK  status: ('A' for Active; 'I' for Inactive)
REMARK    1  A    between atoms: O3B_8  and  PG_1 
REMARK    2  A    between atoms: PB_5  and  O3B_8 
REMARK    3  A    between atoms: O3A_12  and  PB_5 
REMARK    4  A    between atoms: PA_9  and  O3A_12 
REMARK    5  A    between atoms: PA_9  and  O5_13 
REMARK    6  A    between atoms: O5_13  and  C5_14 
REMARK    7  A    between atoms: C5_14  and  C4_15 
REMARK    8  A    between atoms: C3_17  and  O3_18 
REMARK    9  A    between atoms: C2_19  and  O2_20 
REMARK   10  A    between atoms: C1_21  and  N9_22 
REMARK   11  A    between atoms: C6_26  and  N6_27 
ROOT
ATOM      1  C4  ATP d   1       0.148  24.648   9.554  0.00  0.00     0.089 C 
ATOM      2  O4  ATP d   1       0.247  25.795   8.690  0.00  0.00    -0.353 OA
ATOM      3  C3  ATP d   1       1.082  24.890  10.750  0.00  0.00     0.091 C 
ATOM      4  C2  ATP d   1       1.202  26.458  10.680  0.00  0.00     0.105 C 
ATOM      5  C1  ATP d   1       1.196  26.716   9.144  0.00  0.00     0.139 C 
ATOM      6  H3  ATP d   1       0.450  23.737   9.016  0.00  0.00     0.090 H 
ATOM      7  H4  ATP d   1       0.724  24.503  11.715  0.00  0.00     0.091 H 
ATOM      8  H6  ATP d   1       0.360  26.968  11.171  0.00  0.00     0.093 H 
ATOM      9  H8  ATP d   1       2.197  26.587   8.708  0.00  0.00     0.122 H 
ENDROOT
BRANCH   1  10
ATOM     10  C5  ATP d   1      -1.296  24.510  10.035  0.00  0.00     0.058 C 
ATOM     11  H1  ATP d   1      -1.985  24.551   9.178  0.00  0.00     0.079 H 
ATOM     12  H2  ATP d   1      -1.428  23.556  10.566  0.00  0.00     0.079 H 
BRANCH  10  13
ATOM     13  O5  ATP d   1      -1.554  25.630  10.942  0.00  0.00    -0.287 OA
BRANCH  13  14
ATOM     14  PA  ATP d   1      -2.802  25.365  11.864  0.00  0.00     0.417 P 
ATOM     15  O1A ATP d   1      -3.884  24.619  11.123  0.00  0.00    -0.624 OA
ATOM     16  O2A ATP d   1      -3.419  26.609  12.377  0.00  0.00    -0.624 OA
BRANCH  14  17
ATOM     17  O3A ATP d   1      -2.263  24.357  13.015  0.00  0.00    -0.180 OA
BRANCH  17  18
ATOM     18  PB  ATP d   1      -1.436  24.535  14.401  0.00  0.00     0.428 P 
ATOM     19  O1B ATP d   1      -0.793  25.836  14.439  0.00  0.00    -0.624 OA
ATOM     20  O2B ATP d   1      -0.434  23.440  14.436  0.00  0.00    -0.624 OA
BRANCH  18  21
ATOM     21  O3B ATP d   1      -2.579  24.269  15.473  0.00  0.00    -0.173 OA
BRANCH  21  22
ATOM     22  PG  ATP d   1      -3.806  25.217  15.796  0.00  0.00     0.431 P 
ATOM     23  O1G ATP d   1      -4.147  25.277  17.223  0.00  0.00    -0.616 OA
ATOM     24  O2G ATP d   1      -3.514  26.569  15.259  0.00  0.00    -0.616 OA
ATOM     25  O3G ATP d   1      -4.998  24.742  15.025  0.00  0.00    -0.616 OA
ENDBRANCH  21  22
ENDBRANCH  18  21
ENDBRANCH  17  18
ENDBRANCH  14  17
ENDBRANCH  13  14
ENDBRANCH  10  13
ENDBRANCH   1  10
BRANCH   3  26
ATOM     26  O3  ATP d   1       2.358  24.311  10.322  0.00  0.00    -0.390 OA
ATOM     27  H5  ATP d   1       3.001  24.419  11.013  0.00  0.00     0.210 HD
ENDBRANCH   3  26
BRANCH   5  28
ATOM     28  N9  ATP d   1       0.588  27.996   8.742  0.00  0.00    -0.294 N 
ATOM     29  C8  ATP d   1      -0.427  28.592   9.427  0.00  0.00     0.071 A 
ATOM     30  N7  ATP d   1      -0.608  29.839   9.246  0.00  0.00    -0.236 NA
ATOM     31  H9  ATP d   1      -1.061  28.022  10.105  0.00  0.00     0.144 H 
ATOM     32  C5  ATP d   1       0.298  30.160   8.350  0.00  0.00     0.149 A 
ATOM     33  C6  ATP d   1       0.559  31.388   7.783  0.00  0.00     0.155 A 
ATOM     34  C4  ATP d   1       1.076  29.074   7.991  0.00  0.00     0.167 A 
ATOM     35  N1  ATP d   1       1.582  31.433   6.899  0.00  0.00    -0.222 NA
ATOM     36  C2  ATP d   1       2.291  30.294   6.618  0.00  0.00     0.091 A 
ATOM     37  N3  ATP d   1       2.110  29.077   7.112  0.00  0.00    -0.222 NA
ATOM     38  H12 ATP d   1       3.099  30.401   5.904  0.00  0.00     0.146 H 
BRANCH  33  39
ATOM     39  N6  ATP d   1      -0.055  32.538   8.020  0.00  0.00    -0.382 N 
ATOM     40  H10 ATP d   1       0.240  33.391   7.524  0.00  0.00     0.157 HD
ATOM     41  H11 ATP d   1      -0.828  32.579   8.700  0.00  0.00     0.157 HD
ENDBRANCH  33  39
ENDBRANCH   5  28
BRANCH   4  42
ATOM     42  O2  ATP d   1       2.449  26.818  11.324  0.00  0.00    -0.388 OA
ATOM     43  H7  ATP d   1       2.435  26.522  12.227  0.00  0.00     0.210 HD
ENDBRANCH   4  42
TORSDOF 11
