REMARK  2 active torsions:
REMARK  status: ('A' for Active; 'I' for Inactive)
REMARK    1  A    between atoms: C6_5  and  N6_6 
REMARK    2  A    between atoms: N1_7  and  CN1_11 
ROOT
ATOM      1  N9  M1A d   1      18.584  12.314  19.680  0.00  0.00    -0.333 N 
ATOM      2  C8  M1A d   1      18.952  13.395  18.924  0.00  0.00     0.066 A 
ATOM      3  N7  M1A d   1      18.339  14.504  19.246  0.00  0.00    -0.236 NA
ATOM      4  C5  M1A d   1      17.497  14.142  20.305  0.00  0.00     0.147 A 
ATOM      5  C6  M1A d   1      16.574  14.880  21.107  0.00  0.00     0.135 A 
ATOM      6  N1  M1A d   1      15.914  14.217  22.059  0.00  0.00    -0.330 N 
ATOM      7  C2  M1A d   1      16.158  12.912  22.220  0.00  0.00     0.069 A 
ATOM      8  N3  M1A d   1      16.998  12.094  21.561  0.00  0.00    -0.224 NA
ATOM      9  C4  M1A d   1      17.644  12.798  20.581  0.00  0.00     0.162 A 
ATOM     10  H1  M1A d   1      18.931  11.348  19.598  0.00  0.00     0.168 HD
ATOM     11  H2  M1A d   1      19.690  13.336  18.125  0.00  0.00     0.143 H 
ATOM     12  H5  M1A d   1      15.586  12.437  23.009  0.00  0.00     0.143 H 
ENDROOT
BRANCH   6  13
ATOM     13  CN1 M1A d   1      14.978  14.984  22.858  0.00  0.00    -0.012 C 
ATOM     14  H6  M1A d   1      14.973  16.029  22.514  0.00  0.00     0.057 H 
ATOM     15  H7  M1A d   1      15.281  14.947  23.915  0.00  0.00     0.057 H 
ATOM     16  H8  M1A d   1      13.970  14.558  22.751  0.00  0.00     0.057 H 
ENDBRANCH   6  13
BRANCH   5  17
ATOM     17  N6  M1A d   1      16.346  16.176  20.985  0.00  0.00    -0.383 N 
ATOM     18  H3  M1A d   1      16.838  16.720  20.261  0.00  0.00     0.157 HD
ATOM     19  H4  M1A d   1      15.677  16.643  21.614  0.00  0.00     0.157 HD
ENDBRANCH   5  17
TORSDOF 2
