REMARK  9 active torsions:
REMARK  status: ('A' for Active; 'I' for Inactive)
REMARK       I    between atoms: C9_18  and  N1_1 
REMARK    1  A    between atoms: C2_2  and  O2_3 
REMARK    2  A    between atoms: C4_4  and  O4_10 
REMARK    3  A    between atoms: C5_5  and  C6_6 
REMARK    4  A    between atoms: C6_6  and  O6_13 
REMARK    5  A    between atoms: C1_7  and  N2_12 
REMARK    6  A    between atoms: C1_7  and  C9_18 
REMARK    7  A    between atoms: C3_8  and  O3_9 
REMARK       I    between atoms: N2_12  and  C7_14 
REMARK    8  A    between atoms: C7_14  and  O8_17 
REMARK    9  A    between atoms: O8_17  and  C8_16 
ROOT
ATOM      1  C2  CRA d   1      33.956  23.137  25.882  0.00  0.00     0.120 C 
ATOM      2  C4  CRA d   1      32.371  21.155  25.664  0.00  0.00     0.090 C 
ATOM      3  C5  CRA d   1      32.294  21.051  27.224  0.00  0.00     0.089 C 
ATOM      4  C1  CRA d   1      33.952  22.909  27.464  0.00  0.00     0.250 C 
ATOM      5  C3  CRA d   1      32.668  22.648  25.264  0.00  0.00     0.092 C 
ATOM      6  O5  CRA d   1      33.527  21.550  27.812  0.00  0.00    -0.340 OA
ATOM      7  H3  CRA d   1      34.790  22.555  25.463  0.00  0.00     0.095 H 
ATOM      8  H5  CRA d   1      33.181  20.508  25.296  0.00  0.00     0.091 H 
ATOM      9  H6  CRA d   1      31.444  21.644  27.593  0.00  0.00     0.090 H 
ATOM     10  H9  CRA d   1      31.838  23.279  25.614  0.00  0.00     0.091 H 
ENDROOT
BRANCH   4  11
ATOM     11  N2  CRA d   1      35.325  22.971  27.911  0.00  0.00    -0.294 N 
ATOM     12  C7  CRA d   1      35.764  23.314  29.118  0.00  0.00     0.362 C 
ATOM     13  O7  CRA d   1      35.015  23.581  30.065  0.00  0.00    -0.238 OA
ATOM     14  H12 CRA d   1      36.023  22.729  27.237  0.00  0.00     0.168 HD
BRANCH  12  15
ATOM     15  O8  CRA d   1      37.162  23.315  29.251  0.00  0.00    -0.309 OA
BRANCH  15  16
ATOM     16  C8  CRA d   1      37.699  23.618  30.555  0.00  0.00     0.015 C 
ATOM     17  H14 CRA d   1      38.798  23.584  30.516  0.00  0.00     0.067 H 
ATOM     18  H15 CRA d   1      37.335  22.878  31.283  0.00  0.00     0.067 H 
ATOM     19  H16 CRA d   1      37.374  24.623  30.861  0.00  0.00     0.067 H 
ENDBRANCH  15  16
ENDBRANCH  12  15
ENDBRANCH   4  11
BRANCH   4  20
ATOM     20  C9  CRA d   1      33.063  23.952  28.237  0.00  0.00     0.274 C 
ATOM     21  N1  CRA d   1      33.363  25.241  28.104  0.00  0.00    -0.366 N 
ATOM     22  H1  CRA d   1      32.820  25.933  28.580  0.00  0.00     0.159 HD
ATOM     23  H2  CRA d   1      34.132  25.519  27.528  0.00  0.00     0.159 HD
ATOM     24  O9  CRA d   1      31.993  23.572  28.732  0.00  0.00    -0.268 OA
ENDBRANCH   4  20
BRANCH   1  25
ATOM     25  O2  CRA d   1      34.131  24.468  25.523  0.00  0.00    -0.387 OA
ATOM     26  H4  CRA d   1      34.125  24.543  24.576  0.00  0.00     0.210 HD
ENDBRANCH   1  25
BRANCH   5  27
ATOM     27  O3  CRA d   1      32.783  22.761  23.865  0.00  0.00    -0.390 OA
ATOM     28  H10 CRA d   1      32.962  23.665  23.635  0.00  0.00     0.210 HD
ENDBRANCH   5  27
BRANCH   3  29
ATOM     29  C6  CRA d   1      32.109  19.611  27.602  0.00  0.00     0.043 C 
ATOM     30  H7  CRA d   1      31.184  19.225  27.149  0.00  0.00     0.078 H 
ATOM     31  H8  CRA d   1      32.047  19.520  28.697  0.00  0.00     0.078 H 
BRANCH  29  32
ATOM     32  O6  CRA d   1      33.217  18.872  27.125  0.00  0.00    -0.398 OA
ATOM     33  H13 CRA d   1      34.014  19.210  27.517  0.00  0.00     0.209 HD
ENDBRANCH  29  32
ENDBRANCH   3  29
BRANCH   2  34
ATOM     34  O4  CRA d   1      31.155  20.751  25.082  0.00  0.00    -0.390 OA
ATOM     35  H11 CRA d   1      30.454  21.310  25.395  0.00  0.00     0.210 HD
ENDBRANCH   2  34
TORSDOF 9
