REMARK  15 active torsions:
REMARK  status: ('A' for Active; 'I' for Inactive)
REMARK    1  A    between atoms: C1_1  and  C2_4 
REMARK    2  A    between atoms: C2_4  and  C3_5 
REMARK    3  A    between atoms: C3_5  and  C4_6 
REMARK    4  A    between atoms: C4_6  and  C5_7 
REMARK    5  A    between atoms: C5_7  and  C6_8 
REMARK    6  A    between atoms: C6_8  and  C7_9 
REMARK    7  A    between atoms: C7_9  and  C8_10 
REMARK    8  A    between atoms: C8_10  and  C9_11 
REMARK    9  A    between atoms: C9_11  and  CA_12 
REMARK   10  A    between atoms: CA_12  and  CB_13 
REMARK   11  A    between atoms: CB_13  and  CC_14 
REMARK   12  A    between atoms: CC_14  and  CD_15 
REMARK   13  A    between atoms: CD_15  and  CE_16 
REMARK   14  A    between atoms: CE_16  and  CF_17 
REMARK   15  A    between atoms: CF_17  and  CG_18 
ROOT
ATOM      1  C9  PLM d   1      47.911  27.562  27.026  0.00  0.00    -0.065 C 
ATOM      2  H15 PLM d   1      48.195  26.769  26.319  0.00  0.00     0.033 H 
ATOM      3  H16 PLM d   1      48.691  28.337  27.041  0.00  0.00     0.033 H 
ENDROOT
BRANCH   1   4
ATOM      4  C8  PLM d   1      47.752  27.035  28.280  0.00  0.00    -0.065 C 
ATOM      5  H13 PLM d   1      47.494  27.824  29.002  0.00  0.00     0.033 H 
ATOM      6  H14 PLM d   1      46.965  26.266  28.280  0.00  0.00     0.033 H 
BRANCH   4   7
ATOM      7  C7  PLM d   1      48.968  26.482  28.583  0.00  0.00    -0.065 C 
ATOM      8  H11 PLM d   1      49.084  25.526  28.052  0.00  0.00     0.033 H 
ATOM      9  H12 PLM d   1      49.773  27.168  28.282  0.00  0.00     0.033 H 
BRANCH   7  10
ATOM     10  C6  PLM d   1      49.023  26.268  29.943  0.00  0.00    -0.065 C 
ATOM     11  H9  PLM d   1      50.072  26.184  30.265  0.00  0.00     0.033 H 
ATOM     12  H10 PLM d   1      48.543  27.105  30.471  0.00  0.00     0.033 H 
BRANCH  10  13
ATOM     13  C5  PLM d   1      48.354  25.096  30.221  0.00  0.00    -0.065 C 
ATOM     14  H7  PLM d   1      47.270  25.264  30.138  0.00  0.00     0.033 H 
ATOM     15  H8  PLM d   1      48.661  24.320  29.504  0.00  0.00     0.033 H 
BRANCH  13  16
ATOM     16  C4  PLM d   1      48.658  24.683  31.503  0.00  0.00    -0.065 C 
ATOM     17  H5  PLM d   1      49.132  23.691  31.484  0.00  0.00     0.033 H 
ATOM     18  H6  PLM d   1      49.333  25.403  31.988  0.00  0.00     0.033 H 
BRANCH  16  19
ATOM     19  C3  PLM d   1      47.453  24.628  32.170  0.00  0.00    -0.056 C 
ATOM     20  H3  PLM d   1      47.260  25.595  32.657  0.00  0.00     0.033 H 
ATOM     21  H4  PLM d   1      46.648  24.412  31.453  0.00  0.00     0.033 H 
BRANCH  19  22
ATOM     22  C2  PLM d   1      47.495  23.632  33.128  0.00  0.00     0.016 C 
ATOM     23  H1  PLM d   1      48.543  23.449  33.409  0.00  0.00     0.049 H 
ATOM     24  H2  PLM d   1      46.930  23.961  34.012  0.00  0.00     0.049 H 
BRANCH  22  25
ATOM     25  C1  PLM d   1      46.944  22.456  32.653  0.00  0.00     0.172 C 
ATOM     26  O1  PLM d   1      47.613  21.652  32.015  0.00  0.00    -0.648 OA
ATOM     27  O2  PLM d   1      45.746  22.222  32.755  0.00  0.00    -0.648 OA
ENDBRANCH  22  25
ENDBRANCH  19  22
ENDBRANCH  16  19
ENDBRANCH  13  16
ENDBRANCH  10  13
ENDBRANCH   7  10
ENDBRANCH   4   7
ENDBRANCH   1   4
BRANCH   1  28
ATOM     28  CA  PLM d   1      46.707  28.115  26.653  0.00  0.00    -0.065 C 
ATOM     29  H17 PLM d   1      46.868  29.075  26.140  0.00  0.00     0.033 H 
ATOM     30  H18 PLM d   1      46.068  28.273  27.534  0.00  0.00     0.033 H 
BRANCH  28  31
ATOM     31  CB  PLM d   1      46.132  27.205  25.800  0.00  0.00    -0.065 C 
ATOM     32  H19 PLM d   1      45.936  26.264  26.335  0.00  0.00     0.033 H 
ATOM     33  H20 PLM d   1      46.806  27.011  24.952  0.00  0.00     0.033 H 
BRANCH  31  34
ATOM     34  CC  PLM d   1      44.941  27.741  25.340  0.00  0.00    -0.065 C 
ATOM     35  H21 PLM d   1      45.148  28.672  24.791  0.00  0.00     0.033 H 
ATOM     36  H22 PLM d   1      44.285  27.958  26.196  0.00  0.00     0.033 H 
BRANCH  34  37
ATOM     37  CD  PLM d   1      44.309  26.840  24.494  0.00  0.00    -0.065 C 
ATOM     38  H23 PLM d   1      45.062  26.313  23.890  0.00  0.00     0.033 H 
ATOM     39  H24 PLM d   1      43.618  27.381  23.830  0.00  0.00     0.033 H 
BRANCH  37  40
ATOM     40  CE  PLM d   1      43.599  25.923  25.254  0.00  0.00    -0.065 C 
ATOM     41  H25 PLM d   1      42.603  25.774  24.811  0.00  0.00     0.033 H 
ATOM     42  H26 PLM d   1      43.491  26.304  26.280  0.00  0.00     0.033 H 
BRANCH  40  43
ATOM     43  CF  PLM d   1      44.278  24.715  25.280  0.00  0.00    -0.069 C 
ATOM     44  H27 PLM d   1      45.313  24.879  25.613  0.00  0.00     0.032 H 
ATOM     45  H28 PLM d   1      44.283  24.271  24.274  0.00  0.00     0.032 H 
BRANCH  43  46
ATOM     46  CG  PLM d   1      43.635  23.868  26.159  0.00  0.00    -0.077 C 
ATOM     47  H29 PLM d   1      44.163  22.903  26.191  0.00  0.00     0.027 H 
ATOM     48  H30 PLM d   1      42.600  23.709  25.824  0.00  0.00     0.027 H 
ATOM     49  H31 PLM d   1      43.630  24.317  27.163  0.00  0.00     0.027 H 
ENDBRANCH  43  46
ENDBRANCH  40  43
ENDBRANCH  37  40
ENDBRANCH  34  37
ENDBRANCH  31  34
ENDBRANCH  28  31
ENDBRANCH   1  28
TORSDOF 15
