REMARK  12 active torsions:
REMARK  status: ('A' for Active; 'I' for Inactive)
REMARK    1  A    between atoms: C1_1  and  C2_3 
REMARK       I    between atoms: C1_1  and  N_21 
REMARK    2  A    between atoms: C8_9  and  N2_13 
REMARK    3  A    between atoms: C8_9  and  C10_14 
REMARK    4  A    between atoms: C10_14  and  C11_15 
REMARK    5  A    between atoms: N_21  and  CA_22 
REMARK    6  A    between atoms: CA_22  and  C_23 
REMARK    7  A    between atoms: CA_22  and  CB_25 
REMARK    8  A    between atoms: C_23  and  O_24 
REMARK    9  A    between atoms: C_23  and  C1_32 
REMARK   10  A    between atoms: CB_25  and  CG_26 
REMARK   11  A    between atoms: CG_26  and  CD_27 
REMARK   12  A    between atoms: CD_27  and  NE_28 
REMARK       I    between atoms: NE_28  and  CZ_29 
REMARK       I    between atoms: CZ_29  and  NH1_30 
ROOT
ATOM      1  C1  0ZE d   1      16.409 -12.763  20.167  0.00  0.00     0.241 C 
ATOM      2  O1  0ZE d   1      15.994 -13.753  19.571  0.00  0.00    -0.271 OA
ATOM      3  N   0ZE d   1      15.672 -11.623  20.277  0.00  0.00    -0.352 N 
ATOM      4  H21 0ZE d   1      16.010 -10.838  20.796  0.00  0.00     0.163 HD
ENDROOT
BRANCH   1   5
ATOM      5  C2  0ZE d   1      17.797 -12.780  20.817  0.00  0.00     0.092 C 
ATOM      6  C3  0ZE d   1      18.965 -12.752  19.806  0.00  0.00    -0.036 C 
ATOM      7  C4  0ZE d   1      19.441 -14.231  19.710  0.00  0.00    -0.044 C 
ATOM      8  H2  0ZE d   1      19.777 -12.106  20.170  0.00  0.00     0.036 H 
ATOM      9  H3  0ZE d   1      18.621 -12.391  18.826  0.00  0.00     0.036 H 
ATOM     10  C5  0ZE d   1      19.342 -14.698  21.176  0.00  0.00     0.016 C 
ATOM     11  H4  0ZE d   1      20.475 -14.294  19.340  0.00  0.00     0.036 H 
ATOM     12  H5  0ZE d   1      18.781 -14.821  19.058  0.00  0.00     0.036 H 
ATOM     13  C6  0ZE d   1      19.386 -16.210  21.424  0.00  0.00    -0.043 C 
ATOM     14  N1  0ZE d   1      18.063 -14.035  21.547  0.00  0.00    -0.332 N 
ATOM     15  H6  0ZE d   1      20.169 -14.263  21.756  0.00  0.00     0.072 H 
ATOM     16  C7  0ZE d   1      18.759 -16.654  22.734  0.00  0.00    -0.023 C 
ATOM     17  H7  0ZE d   1      20.439 -16.527  21.423  0.00  0.00     0.036 H 
ATOM     18  H8  0ZE d   1      18.852 -16.708  20.602  0.00  0.00     0.036 H 
ATOM     19  C8  0ZE d   1      17.497 -15.888  23.174  0.00  0.00     0.207 C 
ATOM     20  H9  0ZE d   1      19.515 -16.539  23.525  0.00  0.00     0.037 H 
ATOM     21  H10 0ZE d   1      18.490 -17.716  22.635  0.00  0.00     0.037 H 
ATOM     22  C9  0ZE d   1      17.239 -14.503  22.507  0.00  0.00     0.257 C 
ATOM     23  O2  0ZE d   1      16.171 -13.954  22.737  0.00  0.00    -0.270 OA
ATOM     24  H1  0ZE d   1      17.865 -11.918  21.497  0.00  0.00     0.087 H 
BRANCH  19  25
ATOM     25  N2  0ZE d   1      17.441 -15.798  24.644  0.00  0.00    -0.061 N 
ATOM     26  H11 0ZE d   1      16.612 -15.295  24.919  0.00  0.00     0.275 HD
ATOM     27  H12 0ZE d   1      18.256 -15.311  24.982  0.00  0.00     0.275 HD
ATOM     28  H13 0ZE d   1      17.417 -16.726  25.037  0.00  0.00     0.275 HD
ENDBRANCH  19  25
BRANCH  19  29
ATOM     29  C10 0ZE d   1      16.253 -16.692  22.709  0.00  0.00    -0.001 C 
ATOM     30  H14 0ZE d   1      16.166 -16.649  21.613  0.00  0.00     0.044 H 
ATOM     31  H15 0ZE d   1      15.344 -16.275  23.166  0.00  0.00     0.044 H 
BRANCH  29  32
ATOM     32  C11 0ZE d   1      16.448 -18.142  23.161  0.00  0.00    -0.055 A 
ATOM     33  C12 0ZE d   1      17.328 -18.982  22.492  0.00  0.00    -0.077 A 
ATOM     34  C13 0ZE d   1      17.516 -20.304  22.938  0.00  0.00    -0.082 A 
ATOM     35  H16 0ZE d   1      17.870 -18.620  21.626  0.00  0.00     0.084 H 
ATOM     36  C14 0ZE d   1      16.803 -20.772  24.041  0.00  0.00    -0.083 A 
ATOM     37  H17 0ZE d   1      18.213 -20.956  22.425  0.00  0.00     0.083 H 
ATOM     38  C15 0ZE d   1      15.881 -19.938  24.697  0.00  0.00    -0.082 A 
ATOM     39  H18 0ZE d   1      16.960 -21.785  24.395  0.00  0.00     0.083 H 
ATOM     40  C16 0ZE d   1      15.699 -18.627  24.242  0.00  0.00    -0.077 A 
ATOM     41  H19 0ZE d   1      15.317 -20.306  25.546  0.00  0.00     0.083 H 
ATOM     42  H20 0ZE d   1      14.975 -17.983  24.728  0.00  0.00     0.084 H 
ENDBRANCH  29  32
ENDBRANCH  19  29
ENDBRANCH   1   5
BRANCH   3  43
ATOM     43  CA  0ZE d   1      14.347 -11.584  19.600  0.00  0.00     0.043 C 
ATOM     44  H22 0ZE d   1      13.979 -12.595  19.372  0.00  0.00     0.077 H 
BRANCH  43  45
ATOM     45  C   0ZE d   1      14.572 -10.742  18.320  0.00  0.00     0.103 C 
ATOM     46  H23 0ZE d   1      15.091  -9.869  18.742  0.00  0.00     0.097 H 
BRANCH  45  47
ATOM     47  O   0ZE d   1      13.559 -10.206  17.798  0.00  0.00    -0.387 OA
ATOM     48  H24 0ZE d   1      13.157  -9.615  18.424  0.00  0.00     0.210 HD
ENDBRANCH  45  47
BRANCH  45  49
ATOM     49  C1  0ZE d   1      15.614 -11.240  17.272  0.00  0.00     0.107 A 
ATOM     50  N1  0ZE d   1      16.808 -10.924  17.106  0.00  0.00    -0.242 NA
ATOM     51  C2  0ZE d   1      17.422 -11.619  16.075  0.00  0.00     0.075 A 
ATOM     52  C3  0ZE d   1      18.758 -11.479  15.634  0.00  0.00    -0.054 A 
ATOM     53  C7  0ZE d   1      16.598 -12.480  15.412  0.00  0.00     0.035 A 
ATOM     54  C4  0ZE d   1      19.214 -12.240  14.530  0.00  0.00    -0.081 A 
ATOM     55  H36 0ZE d   1      19.429 -10.793  16.138  0.00  0.00     0.087 H 
ATOM     56  C5  0ZE d   1      18.348 -13.138  13.887  0.00  0.00    -0.082 A 
ATOM     57  H37 0ZE d   1      20.234 -12.129  14.181  0.00  0.00     0.083 H 
ATOM     58  C6  0ZE d   1      17.005 -13.258  14.322  0.00  0.00    -0.064 A 
ATOM     59  H38 0ZE d   1      18.706 -13.739  13.059  0.00  0.00     0.083 H 
ATOM     60  H39 0ZE d   1      16.315 -13.931  13.826  0.00  0.00     0.085 H 
ATOM     61  S1  0ZE d   1      15.032 -12.458  16.084  0.00  0.00    -0.070 SA
ENDBRANCH  45  49
ENDBRANCH  43  45
BRANCH  43  62
ATOM     62  CB  0ZE d   1      13.321 -10.792  20.490  0.00  0.00    -0.042 C 
ATOM     63  H25 0ZE d   1      12.400 -10.576  19.929  0.00  0.00     0.036 H 
ATOM     64  H26 0ZE d   1      13.760  -9.850  20.851  0.00  0.00     0.036 H 
BRANCH  62  65
ATOM     65  CG  0ZE d   1      13.036 -11.754  21.667  0.00  0.00    -0.048 C 
ATOM     66  H27 0ZE d   1      13.978 -11.928  22.207  0.00  0.00     0.035 H 
ATOM     67  H28 0ZE d   1      12.669 -12.706  21.255  0.00  0.00     0.035 H 
BRANCH  65  68
ATOM     68  CD  0ZE d   1      12.053 -11.257  22.612  0.00  0.00     0.009 C 
ATOM     69  H29 0ZE d   1      11.187 -10.854  22.066  0.00  0.00     0.064 H 
ATOM     70  H30 0ZE d   1      12.501 -10.462  23.226  0.00  0.00     0.064 H 
BRANCH  68  71
ATOM     71  NE  0ZE d   1      11.618 -12.361  23.478  0.00  0.00    -0.227 N 
ATOM     72  CZ  0ZE d   1      10.629 -12.113  24.329  0.00  0.00     0.665 C 
ATOM     73  NH1 0ZE d   1      10.487 -10.812  24.669  0.00  0.00    -0.235 N 
ATOM     74  NH2 0ZE d   1       9.818 -13.066  24.796  0.00  0.00    -0.235 N 
ATOM     75  H32 0ZE d   1       9.745 -10.529  25.325  0.00  0.00     0.174 HD
ATOM     76  H33 0ZE d   1      11.121 -10.104  24.273  0.00  0.00     0.174 HD
ATOM     77  H34 0ZE d   1       9.959 -14.046  24.513  0.00  0.00     0.174 HD
ATOM     78  H35 0ZE d   1       9.052 -12.821  25.439  0.00  0.00     0.174 HD
ATOM     79  H31 0ZE d   1      12.062 -13.289  23.427  0.00  0.00     0.177 HD
ENDBRANCH  68  71
ENDBRANCH  65  68
ENDBRANCH  62  65
ENDBRANCH  43  62
ENDBRANCH   3  43
TORSDOF 12
