REMARK  17 active torsions:
REMARK  status: ('A' for Active; 'I' for Inactive)
REMARK    1  A    between atoms: C7_7  and  O1_1 
REMARK    2  A    between atoms: O1_1  and  C6_6 
REMARK    3  A    between atoms: C6_6  and  C3_3 
REMARK    4  A    between atoms: C6_6  and  C4_4 
REMARK    5  A    between atoms: C6_6  and  C5_5 
REMARK       I    between atoms: C7_7  and  N8_8 
REMARK    6  A    between atoms: N8_8  and  C9_9 
REMARK    7  A    between atoms: C9_9  and  C17_17 
REMARK    8  A    between atoms: C9_9  and  C10_10 
REMARK    9  A    between atoms: C10_10  and  C11_11 
REMARK   10  A    between atoms: C17_17  and  C19_19 
REMARK   11  A    between atoms: C17_17  and  O18_18 
REMARK   12  A    between atoms: C19_19  and  N20_20 
REMARK   13  A    between atoms: N20_20  and  C21_21 
REMARK   14  A    between atoms: C34_34  and  C37_37 
REMARK   15  A    between atoms: C37_37  and  C39_39 
REMARK   16  A    between atoms: C37_37  and  C38_38 
REMARK   17  A    between atoms: C38_38  and  C40_40 
ROOT
ATOM      1  C21 PI6 d   1       4.673  -2.201  16.861  0.00  0.00     0.181 C 
ATOM      2  C22 PI6 d   1       3.267  -2.654  16.446  0.00  0.00    -0.006 C 
ATOM      3  C23 PI6 d   1       3.121  -4.151  16.570  0.00  0.00    -0.056 A 
ATOM      4  C24 PI6 d   1       3.091  -4.767  17.823  0.00  0.00    -0.074 A 
ATOM      5  C25 PI6 d   1       3.131  -6.148  17.942  0.00  0.00    -0.050 A 
ATOM      6  C26 PI6 d   1       3.169  -4.963  15.439  0.00  0.00    -0.074 A 
ATOM      7  C27 PI6 d   1       3.209  -6.339  15.547  0.00  0.00    -0.050 A 
ATOM      8  C28 PI6 d   1       3.198  -6.928  16.795  0.00  0.00     0.068 A 
ATOM      9  O29 PI6 d   1       3.305  -8.296  16.863  0.00  0.00    -0.351 OA
ATOM     10  C30 PI6 d   1       3.790  -8.941  18.029  0.00  0.00     0.028 C 
ATOM     11  C31 PI6 d   1       5.689  -3.186  16.291  0.00  0.00     0.249 C 
ATOM     12  O32 PI6 d   1       5.996  -3.175  15.097  0.00  0.00    -0.271 OA
ATOM     13  N33 PI6 d   1       6.187  -4.050  17.169  0.00  0.00    -0.346 N 
ATOM     14  C34 PI6 d   1       7.152  -5.100  16.815  0.00  0.00     0.092 C 
ATOM     15  C35 PI6 d   1       6.912  -6.178  17.865  0.00  0.00     0.240 C 
ATOM     16  O36 PI6 d   1       7.047  -5.922  19.064  0.00  0.00    -0.271 OA
ATOM     17  N41 PI6 d   1       6.508  -7.362  17.415  0.00  0.00    -0.359 N 
ATOM     18  C42 PI6 d   1       6.254  -8.457  18.335  0.00  0.00    -0.003 C 
ATOM     19  C43 PI6 d   1       5.213  -9.454  17.845  0.00  0.00    -0.030 C 
ATOM     20  H25 PI6 d   1       4.734  -2.308  17.954  0.00  0.00     0.100 H 
ATOM     21  H26 PI6 d   1       3.089  -2.361  15.401  0.00  0.00     0.043 H 
ATOM     22  H27 PI6 d   1       2.526  -2.166  17.095  0.00  0.00     0.043 H 
ATOM     23  H28 PI6 d   1       3.036  -4.156  18.717  0.00  0.00     0.084 H 
ATOM     24  H29 PI6 d   1       3.110  -6.614  18.921  0.00  0.00     0.087 H 
ATOM     25  H30 PI6 d   1       3.175  -4.506  14.456  0.00  0.00     0.084 H 
ATOM     26  H31 PI6 d   1       3.249  -6.954  14.655  0.00  0.00     0.087 H 
ATOM     27  H32 PI6 d   1       3.133  -9.791  18.264  0.00  0.00     0.075 H 
ATOM     28  H33 PI6 d   1       3.776  -8.225  18.864  0.00  0.00     0.075 H 
ATOM     29  H34 PI6 d   1       5.889  -3.982  18.121  0.00  0.00     0.163 HD
ATOM     30  H35 PI6 d   1       6.947  -5.479  15.803  0.00  0.00     0.088 H 
ATOM     31  H45 PI6 d   1       6.378  -7.500  16.433  0.00  0.00     0.162 HD
ATOM     32  H46 PI6 d   1       7.199  -8.996  18.498  0.00  0.00     0.064 H 
ATOM     33  H47 PI6 d   1       5.904  -8.033  19.288  0.00  0.00     0.064 H 
ATOM     34  H48 PI6 d   1       5.384  -9.647  16.776  0.00  0.00     0.038 H 
ATOM     35  H49 PI6 d   1       5.327 -10.391  18.410  0.00  0.00     0.038 H 
ENDROOT
BRANCH   1  36
ATOM     36  N20 PI6 d   1       4.892  -0.754  16.600  0.00  0.00    -0.060 N 
ATOM     37  H23 PI6 d   1       4.198  -0.236  17.116  0.00  0.00     0.278 HD
ATOM     38  H24 PI6 d   1       5.811  -0.512  16.936  0.00  0.00     0.278 HD
BRANCH  36  39
ATOM     39  C19 PI6 d   1       4.804  -0.349  15.187  0.00  0.00     0.108 C 
ATOM     40  H21 PI6 d   1       4.828  -1.236  14.537  0.00  0.00     0.079 H 
ATOM     41  H22 PI6 d   1       3.873   0.209  15.011  0.00  0.00     0.079 H 
BRANCH  39  42
ATOM     42  C17 PI6 d   1       6.008   0.539  14.904  0.00  0.00     0.078 C 
ATOM     43  H19 PI6 d   1       5.957   1.433  15.543  0.00  0.00     0.088 H 
BRANCH  42  44
ATOM     44  C9  PI6 d   1       6.033   0.966  13.447  0.00  0.00     0.044 C 
ATOM     45  H11 PI6 d   1       6.083   0.060  12.825  0.00  0.00     0.077 H 
BRANCH  44  46
ATOM     46  N8  PI6 d   1       4.828   1.713  13.068  0.00  0.00    -0.329 N 
ATOM     47  C7  PI6 d   1       3.821   1.158  12.399  0.00  0.00     0.361 C 
ATOM     48  O2  PI6 d   1       3.835  -0.032  12.046  0.00  0.00    -0.238 OA
ATOM     49  H10 PI6 d   1       4.761   2.678  13.323  0.00  0.00     0.165 HD
BRANCH  47  50
ATOM     50  O1  PI6 d   1       2.808   1.969  12.124  0.00  0.00    -0.294 OA
BRANCH  50  51
ATOM     51  C6  PI6 d   1       1.587   1.371  11.646  0.00  0.00     0.061 C 
BRANCH  51  52
ATOM     52  C3  PI6 d   1       1.077   0.320  12.634  0.00  0.00    -0.048 C 
ATOM     53  H1  PI6 d   1       0.146  -0.123  12.250  0.00  0.00     0.031 H 
ATOM     54  H2  PI6 d   1       0.883   0.795  13.607  0.00  0.00     0.031 H 
ATOM     55  H3  PI6 d   1       1.835  -0.468  12.755  0.00  0.00     0.031 H 
ENDBRANCH  51  52
BRANCH  51  56
ATOM     56  C4  PI6 d   1       0.556   2.486  11.539  0.00  0.00    -0.048 C 
ATOM     57  H4  PI6 d   1      -0.396   2.071  11.176  0.00  0.00     0.031 H 
ATOM     58  H5  PI6 d   1       0.915   3.251  10.835  0.00  0.00     0.031 H 
ATOM     59  H6  PI6 d   1       0.404   2.941  12.529  0.00  0.00     0.031 H 
ENDBRANCH  51  56
BRANCH  51  60
ATOM     60  C5  PI6 d   1       1.809   0.765  10.258  0.00  0.00    -0.048 C 
ATOM     61  H7  PI6 d   1       0.872   0.311   9.902  0.00  0.00     0.031 H 
ATOM     62  H8  PI6 d   1       2.591  -0.006  10.315  0.00  0.00     0.031 H 
ATOM     63  H9  PI6 d   1       2.123   1.554   9.559  0.00  0.00     0.031 H 
ENDBRANCH  51  60
ENDBRANCH  50  51
ENDBRANCH  47  50
ENDBRANCH  44  46
BRANCH  44  64
ATOM     64  C10 PI6 d   1       7.275   1.805  13.183  0.00  0.00    -0.020 C 
ATOM     65  H12 PI6 d   1       8.154   1.248  13.539  0.00  0.00     0.043 H 
ATOM     66  H13 PI6 d   1       7.185   2.746  13.745  0.00  0.00     0.043 H 
BRANCH  64  67
ATOM     67  C11 PI6 d   1       7.475   2.132  11.746  0.00  0.00    -0.056 A 
ATOM     68  C13 PI6 d   1       7.235   3.417  11.276  0.00  0.00    -0.077 A 
ATOM     69  C15 PI6 d   1       7.385   3.717   9.934  0.00  0.00    -0.082 A 
ATOM     70  H15 PI6 d   1       6.927   4.192  11.968  0.00  0.00     0.084 H 
ATOM     71  C16 PI6 d   1       7.772   2.723   9.046  0.00  0.00    -0.083 A 
ATOM     72  H17 PI6 d   1       7.201   4.724   9.577  0.00  0.00     0.083 H 
ATOM     73  C14 PI6 d   1       8.017   1.435   9.508  0.00  0.00    -0.082 A 
ATOM     74  H18 PI6 d   1       7.883   2.951   7.992  0.00  0.00     0.083 H 
ATOM     75  C12 PI6 d   1       7.865   1.146  10.850  0.00  0.00    -0.077 A 
ATOM     76  H16 PI6 d   1       8.326   0.659   8.817  0.00  0.00     0.083 H 
ATOM     77  H14 PI6 d   1       8.052   0.140  11.207  0.00  0.00     0.084 H 
ENDBRANCH  64  67
ENDBRANCH  44  64
ENDBRANCH  42  44
BRANCH  42  78
ATOM     78  O18 PI6 d   1       7.205  -0.189  15.192  0.00  0.00    -0.392 OA
ATOM     79  H20 PI6 d   1       7.205  -0.447  16.106  0.00  0.00     0.210 HD
ENDBRANCH  42  78
ENDBRANCH  39  42
ENDBRANCH  36  39
ENDBRANCH   1  36
BRANCH  14  80
ATOM     80  C37 PI6 d   1       8.628  -4.637  16.895  0.00  0.00    -0.030 C 
ATOM     81  H36 PI6 d   1       8.811  -4.206  17.890  0.00  0.00     0.043 H 
BRANCH  80  82
ATOM     82  C39 PI6 d   1       9.567  -5.831  16.696  0.00  0.00    -0.071 C 
ATOM     83  H39 PI6 d   1       9.360  -6.592  17.463  0.00  0.00     0.028 H 
ATOM     84  H40 PI6 d   1      10.611  -5.495  16.785  0.00  0.00     0.028 H 
ATOM     85  H41 PI6 d   1       9.405  -6.263  15.697  0.00  0.00     0.028 H 
ENDBRANCH  80  82
BRANCH  80  86
ATOM     86  C38 PI6 d   1       8.898  -3.565  15.839  0.00  0.00    -0.063 C 
ATOM     87  H37 PI6 d   1       8.524  -2.604  16.221  0.00  0.00     0.033 H 
ATOM     88  H38 PI6 d   1       8.348  -3.836  14.925  0.00  0.00     0.033 H 
BRANCH  86  89
ATOM     89  C40 PI6 d   1      10.344  -3.398  15.484  0.00  0.00    -0.076 C 
ATOM     90  H42 PI6 d   1      10.446  -2.611  14.722  0.00  0.00     0.027 H 
ATOM     91  H43 PI6 d   1      10.736  -4.346  15.087  0.00  0.00     0.027 H 
ATOM     92  H44 PI6 d   1      10.912  -3.114  16.382  0.00  0.00     0.027 H 
ENDBRANCH  86  89
ENDBRANCH  80  86
ENDBRANCH  14  80
TORSDOF 17
