REMARK  20 active torsions:
REMARK  status: ('A' for Active; 'I' for Inactive)
REMARK    1  A    between atoms: C2_2  and  C1_1 
REMARK    2  A    between atoms: C2_2  and  C3_3 
REMARK       I    between atoms: C3_3  and  N5_5 
REMARK    3  A    between atoms: N5_5  and  C6_6 
REMARK    4  A    between atoms: C6_6  and  C9_9 
REMARK    5  A    between atoms: C6_6  and  C7_7 
REMARK       I    between atoms: C7_7  and  N12_12 
REMARK    6  A    between atoms: C9_9  and  C11_11 
REMARK    7  A    between atoms: C9_9  and  C10_10 
REMARK    8  A    between atoms: N12_12  and  C13_13 
REMARK    9  A    between atoms: C13_13  and  C21_21 
REMARK   10  A    between atoms: C13_13  and  C14_14 
REMARK   11  A    between atoms: C14_14  and  C15_15 
REMARK   12  A    between atoms: C20_20  and  O24_24 
REMARK   13  A    between atoms: C21_21  and  O23_23 
REMARK   14  A    between atoms: C21_21  and  C22_22 
REMARK   15  A    between atoms: C22_22  and  N25_25 
REMARK   16  A    between atoms: N25_25  and  C26_26 
REMARK   17  A    between atoms: C39_39  and  C42_42 
REMARK   18  A    between atoms: C42_42  and  C44_44 
REMARK   19  A    between atoms: C42_42  and  C43_43 
REMARK   20  A    between atoms: C43_43  and  C45_45 
ROOT
ATOM      1  C22 PI7 d   1       4.884  -0.573  15.082  0.00  0.00     0.108 C 
ATOM      2  H24 PI7 d   1       4.961  -1.467  14.445  0.00  0.00     0.079 H 
ATOM      3  H25 PI7 d   1       3.958  -0.030  14.841  0.00  0.00     0.079 H 
ENDROOT
BRANCH   1   4
ATOM      4  C21 PI7 d   1       6.091   0.332  14.858  0.00  0.00     0.078 C 
ATOM      5  H23 PI7 d   1       5.994   1.224  15.495  0.00  0.00     0.088 H 
BRANCH   4   6
ATOM      6  C13 PI7 d   1       6.181   0.772  13.394  0.00  0.00     0.042 C 
ATOM      7  H16 PI7 d   1       6.287  -0.125  12.766  0.00  0.00     0.077 H 
BRANCH   6   8
ATOM      8  N12 PI7 d   1       4.968   1.491  12.975  0.00  0.00    -0.352 N 
ATOM      9  C7  PI7 d   1       4.083   0.943  12.149  0.00  0.00     0.241 C 
ATOM     10  O8  PI7 d   1       4.198  -0.206  11.711  0.00  0.00    -0.271 OA
ATOM     11  H15 PI7 d   1       4.805   2.415  13.320  0.00  0.00     0.163 HD
BRANCH   9  12
ATOM     12  C6  PI7 d   1       2.866   1.805  11.803  0.00  0.00     0.092 C 
ATOM     13  H7  PI7 d   1       2.754   2.536  12.618  0.00  0.00     0.088 H 
BRANCH  12  14
ATOM     14  N5  PI7 d   1       2.983   2.580  10.553  0.00  0.00    -0.347 N 
ATOM     15  C3  PI7 d   1       3.403   3.842  10.538  0.00  0.00     0.217 C 
ATOM     16  O4  PI7 d   1       3.761   4.441  11.553  0.00  0.00    -0.274 OA
ATOM     17  H6  PI7 d   1       2.738   2.142   9.688  0.00  0.00     0.163 HD
BRANCH  15  18
ATOM     18  C2  PI7 d   1       3.436   4.531   9.174  0.00  0.00     0.006 C 
ATOM     19  H4  PI7 d   1       2.481   4.352   8.658  0.00  0.00     0.046 H 
ATOM     20  H5  PI7 d   1       3.576   5.612   9.322  0.00  0.00     0.046 H 
BRANCH  18  21
ATOM     21  C1  PI7 d   1       4.563   4.001   8.321  0.00  0.00    -0.068 C 
ATOM     22  H1  PI7 d   1       4.560   4.515   7.349  0.00  0.00     0.028 H 
ATOM     23  H2  PI7 d   1       4.428   2.921   8.165  0.00  0.00     0.028 H 
ATOM     24  H3  PI7 d   1       5.522   4.181   8.828  0.00  0.00     0.028 H 
ENDBRANCH  18  21
ENDBRANCH  15  18
ENDBRANCH  12  14
BRANCH  12  25
ATOM     25  C9  PI7 d   1       1.591   0.931  11.777  0.00  0.00    -0.033 C 
ATOM     26  H8  PI7 d   1       1.682   0.201  10.959  0.00  0.00     0.042 H 
BRANCH  25  27
ATOM     27  C11 PI7 d   1       0.374   1.804  11.519  0.00  0.00    -0.071 C 
ATOM     28  H12 PI7 d   1       0.505   2.345  10.570  0.00  0.00     0.028 H 
ATOM     29  H13 PI7 d   1       0.260   2.526  12.341  0.00  0.00     0.028 H 
ATOM     30  H14 PI7 d   1      -0.524   1.172  11.459  0.00  0.00     0.028 H 
ENDBRANCH  25  27
BRANCH  25  31
ATOM     31  C10 PI7 d   1       1.431   0.173  13.084  0.00  0.00    -0.071 C 
ATOM     32  H9  PI7 d   1       0.519  -0.441  13.043  0.00  0.00     0.028 H 
ATOM     33  H10 PI7 d   1       1.354   0.889  13.916  0.00  0.00     0.028 H 
ATOM     34  H11 PI7 d   1       2.304  -0.478  13.240  0.00  0.00     0.028 H 
ENDBRANCH  25  31
ENDBRANCH  12  25
ENDBRANCH   9  12
ENDBRANCH   6   8
BRANCH   6  35
ATOM     35  C14 PI7 d   1       7.410   1.656  13.196  0.00  0.00    -0.020 C 
ATOM     36  H17 PI7 d   1       8.310   1.046  13.362  0.00  0.00     0.043 H 
ATOM     37  H18 PI7 d   1       7.378   2.470  13.935  0.00  0.00     0.043 H 
BRANCH  35  38
ATOM     38  C15 PI7 d   1       7.489   2.261  11.820  0.00  0.00    -0.056 A 
ATOM     39  C17 PI7 d   1       7.383   3.637  11.641  0.00  0.00    -0.074 A 
ATOM     40  C19 PI7 d   1       7.422   4.199  10.373  0.00  0.00    -0.051 A 
ATOM     41  H20 PI7 d   1       7.268   4.280  12.506  0.00  0.00     0.084 H 
ATOM     42  C20 PI7 d   1       7.567   3.377   9.268  0.00  0.00     0.065 A 
ATOM     43  H22 PI7 d   1       7.340   5.273  10.248  0.00  0.00     0.087 H 
ATOM     44  C18 PI7 d   1       7.677   2.007   9.421  0.00  0.00    -0.051 A 
ATOM     45  C16 PI7 d   1       7.638   1.456  10.693  0.00  0.00    -0.074 A 
ATOM     46  H21 PI7 d   1       7.793   1.368   8.553  0.00  0.00     0.087 H 
ATOM     47  H19 PI7 d   1       7.725   0.382  10.812  0.00  0.00     0.084 H 
BRANCH  42  48
ATOM     48  O24 PI7 d   1       7.585   3.928   8.008  0.00  0.00    -0.361 OA
ATOM     49  H27 PI7 d   1       7.500   4.872   8.075  0.00  0.00     0.217 HD
ENDBRANCH  42  48
ENDBRANCH  35  38
ENDBRANCH   6  35
ENDBRANCH   4   6
BRANCH   4  50
ATOM     50  O23 PI7 d   1       7.283  -0.377  15.212  0.00  0.00    -0.392 OA
ATOM     51  H26 PI7 d   1       7.229  -0.651  16.120  0.00  0.00     0.210 HD
ENDBRANCH   4  50
ENDBRANCH   1   4
BRANCH   1  52
ATOM     52  N25 PI7 d   1       4.882  -0.967  16.506  0.00  0.00    -0.060 N 
ATOM     53  H28 PI7 d   1       4.147  -0.450  16.963  0.00  0.00     0.278 HD
ATOM     54  H29 PI7 d   1       5.773  -0.702  16.896  0.00  0.00     0.278 HD
BRANCH  52  55
ATOM     55  C26 PI7 d   1       4.671  -2.411  16.809  0.00  0.00     0.181 C 
ATOM     56  C36 PI7 d   1       5.643  -3.439  16.213  0.00  0.00     0.249 C 
ATOM     57  N38 PI7 d   1       6.262  -4.200  17.112  0.00  0.00    -0.346 N 
ATOM     58  O37 PI7 d   1       5.794  -3.561  14.995  0.00  0.00    -0.271 OA
ATOM     59  C39 PI7 d   1       7.198  -5.289  16.783  0.00  0.00     0.092 C 
ATOM     60  H39 PI7 d   1       6.079  -4.020  18.078  0.00  0.00     0.163 HD
ATOM     61  C40 PI7 d   1       6.955  -6.366  17.843  0.00  0.00     0.240 C 
ATOM     62  H40 PI7 d   1       6.967  -5.686  15.783  0.00  0.00     0.088 H 
ATOM     63  N46 PI7 d   1       6.513  -7.533  17.384  0.00  0.00    -0.359 N 
ATOM     64  O41 PI7 d   1       7.102  -6.121  19.045  0.00  0.00    -0.271 OA
ATOM     65  C47 PI7 d   1       6.238  -8.640  18.281  0.00  0.00    -0.003 C 
ATOM     66  H50 PI7 d   1       6.367  -7.650  16.402  0.00  0.00     0.162 HD
ATOM     67  C48 PI7 d   1       5.103  -9.523  17.773  0.00  0.00    -0.030 C 
ATOM     68  H51 PI7 d   1       7.147  -9.252  18.378  0.00  0.00     0.064 H 
ATOM     69  H52 PI7 d   1       5.960  -8.237  19.266  0.00  0.00     0.064 H 
ATOM     70  C35 PI7 d   1       3.728  -8.952  18.117  0.00  0.00     0.028 C 
ATOM     71  H53 PI7 d   1       5.186  -9.612  16.680  0.00  0.00     0.038 H 
ATOM     72  H54 PI7 d   1       5.197 -10.519  18.230  0.00  0.00     0.038 H 
ATOM     73  O34 PI7 d   1       3.042  -8.489  16.963  0.00  0.00    -0.351 OA
ATOM     74  H37 PI7 d   1       3.127  -9.738  18.596  0.00  0.00     0.075 H 
ATOM     75  H38 PI7 d   1       3.857  -8.112  18.815  0.00  0.00     0.075 H 
ATOM     76  C33 PI7 d   1       3.018  -7.112  16.888  0.00  0.00     0.068 A 
ATOM     77  C30 PI7 d   1       3.024  -6.318  18.030  0.00  0.00    -0.050 A 
ATOM     78  C32 PI7 d   1       3.016  -6.532  15.635  0.00  0.00    -0.050 A 
ATOM     79  C29 PI7 d   1       3.040  -4.937  17.899  0.00  0.00    -0.074 A 
ATOM     80  H34 PI7 d   1       3.016  -6.774  19.013  0.00  0.00     0.087 H 
ATOM     81  C28 PI7 d   1       3.055  -4.334  16.641  0.00  0.00    -0.056 A 
ATOM     82  H33 PI7 d   1       3.041  -4.317  18.788  0.00  0.00     0.084 H 
ATOM     83  C27 PI7 d   1       3.232  -2.841  16.501  0.00  0.00    -0.006 C 
ATOM     84  C31 PI7 d   1       3.033  -5.155  15.517  0.00  0.00    -0.074 A 
ATOM     85  H31 PI7 d   1       2.985  -2.548  15.470  0.00  0.00     0.043 H 
ATOM     86  H32 PI7 d   1       2.551  -2.334  17.200  0.00  0.00     0.043 H 
ATOM     87  H35 PI7 d   1       3.029  -4.706  14.530  0.00  0.00     0.084 H 
ATOM     88  H36 PI7 d   1       3.001  -7.154  14.747  0.00  0.00     0.087 H 
ATOM     89  H30 PI7 d   1       4.798  -2.491  17.899  0.00  0.00     0.100 H 
BRANCH  59  90
ATOM     90  C42 PI7 d   1       8.675  -4.828  16.801  0.00  0.00    -0.030 C 
ATOM     91  H41 PI7 d   1       8.895  -4.370  17.777  0.00  0.00     0.043 H 
BRANCH  90  92
ATOM     92  C44 PI7 d   1       9.607  -6.020  16.590  0.00  0.00    -0.071 C 
ATOM     93  H44 PI7 d   1       9.438  -6.763  17.384  0.00  0.00     0.028 H 
ATOM     94  H45 PI7 d   1      10.652  -5.679  16.624  0.00  0.00     0.028 H 
ATOM     95  H46 PI7 d   1       9.402  -6.477  15.611  0.00  0.00     0.028 H 
ENDBRANCH  90  92
BRANCH  90  96
ATOM     96  C43 PI7 d   1       8.908  -3.792  15.698  0.00  0.00    -0.063 C 
ATOM     97  H42 PI7 d   1       8.183  -2.976  15.831  0.00  0.00     0.033 H 
ATOM     98  H43 PI7 d   1       8.739  -4.278  14.726  0.00  0.00     0.033 H 
BRANCH  96  99
ATOM     99  C45 PI7 d   1      10.284  -3.203  15.697  0.00  0.00    -0.076 C 
ATOM    100  H47 PI7 d   1      10.369  -2.472  14.879  0.00  0.00     0.027 H 
ATOM    101  H48 PI7 d   1      11.025  -4.003  15.553  0.00  0.00     0.027 H 
ATOM    102  H49 PI7 d   1      10.469  -2.701  16.658  0.00  0.00     0.027 H 
ENDBRANCH  96  99
ENDBRANCH  90  96
ENDBRANCH  59  90
ENDBRANCH  52  55
ENDBRANCH   1  52
TORSDOF 20
