REMARK  5 active torsions:
REMARK  status: ('A' for Active; 'I' for Inactive)
REMARK    1  A    between atoms: N_1  and  CA_2 
REMARK    2  A    between atoms: CA_2  and  C_3 
REMARK    3  A    between atoms: CA_2  and  CB_6 
REMARK    4  A    between atoms: CB_6  and  CG_7 
REMARK    5  A    between atoms: CG_7  and  CD_8 
REMARK       I    between atoms: CD_8  and  NE2_10 
ROOT
ATOM      1  CB  DGN d   1      21.251  34.601  28.529  0.00  0.00    -0.021 C 
ATOM      2  H5  DGN d   1      20.411  34.228  29.133  0.00  0.00     0.037 H 
ATOM      3  H6  DGN d   1      20.910  34.786  27.500  0.00  0.00     0.037 H 
ENDROOT
BRANCH   1   4
ATOM      4  CA  DGN d   1      22.324  33.590  28.511  0.00  0.00     0.183 C 
ATOM      5  H4  DGN d   1      23.119  33.924  27.828  0.00  0.00     0.101 H 
BRANCH   4   6
ATOM      6  N   DGN d   1      22.834  33.480  29.804  0.00  0.00    -0.065 N 
ATOM      7  H1  DGN d   1      23.165  34.381  30.112  0.00  0.00     0.275 HD
ATOM      8  H2  DGN d   1      23.597  32.822  29.809  0.00  0.00     0.275 HD
ATOM      9  H3  DGN d   1      22.108  33.158  30.425  0.00  0.00     0.275 HD
ENDBRANCH   4   6
BRANCH   4  10
ATOM     10  C   DGN d   1      21.840  32.263  28.066  0.00  0.00     0.204 C 
ATOM     11  O   DGN d   1      21.313  32.123  26.945  0.00  0.00    -0.646 OA
ATOM     12  OXT DGN d   1      21.973  31.279  28.810  0.00  0.00    -0.646 OA
ENDBRANCH   4  10
ENDBRANCH   1   4
BRANCH   1  13
ATOM     13  CG  DGN d   1      21.763  35.903  29.131  0.00  0.00     0.011 C 
ATOM     14  H7  DGN d   1      22.589  36.302  28.524  0.00  0.00     0.047 H 
ATOM     15  H8  DGN d   1      22.113  35.733  30.160  0.00  0.00     0.047 H 
BRANCH  13  16
ATOM     16  CD  DGN d   1      20.648  36.832  29.130  0.00  0.00     0.215 C 
ATOM     17  OE1 DGN d   1      19.488  36.396  28.937  0.00  0.00    -0.274 OA
ATOM     18  NE2 DGN d   1      21.012  38.127  29.358  0.00  0.00    -0.370 N 
ATOM     19  H9  DGN d   1      20.317  38.846  29.377  0.00  0.00     0.159 HD
ATOM     20  H10 DGN d   1      21.974  38.357  29.506  0.00  0.00     0.159 HD
ENDBRANCH  13  16
ENDBRANCH   1  13
TORSDOF 5
