REMARK  7 active torsions:
REMARK  status: ('A' for Active; 'I' for Inactive)
REMARK    1  A    between atoms: C2_2  and  N15_12 
REMARK    2  A    between atoms: C3_3  and  N12_9 
REMARK    3  A    between atoms: C5_5  and  C10_7 
REMARK       I    between atoms: N12_9  and  C13_10 
REMARK       I    between atoms: C13_10  and  N14_11 
REMARK    4  A    between atoms: C16_13  and  C28_19 
REMARK    5  A    between atoms: C16_13  and  C24_17 
REMARK    6  A    between atoms: C24_17  and  O25_18 
REMARK    7  A    between atoms: C28_19  and  O29_20 
ROOT
ATOM      1  C1  RAI d   1      33.835  -9.719  64.605  0.00  0.00    -0.054 A 
ATOM      2  C2  RAI d   1      32.530  -9.464  64.087  0.00  0.00     0.065 A 
ATOM      3  C3  RAI d   1      31.460 -10.344  64.457  0.00  0.00     0.077 A 
ATOM      4  C4  RAI d   1      31.701 -11.443  65.309  0.00  0.00    -0.038 A 
ATOM      5  C5  RAI d   1      32.986 -11.700  65.815  0.00  0.00     0.043 A 
ATOM      6  C6  RAI d   1      34.063 -10.825  65.459  0.00  0.00    -0.064 A 
ATOM      7  H1  RAI d   1      34.657  -9.062  64.343  0.00  0.00     0.087 H 
ATOM      8  H2  RAI d   1      30.881 -12.100  65.577  0.00  0.00     0.088 H 
ATOM      9  H3  RAI d   1      35.059 -11.011  65.846  0.00  0.00     0.085 H 
ENDROOT
BRANCH   2  10
ATOM     10  N15 RAI d   1      32.274  -8.376  63.237  0.00  0.00    -0.302 N 
ATOM     11  C19 RAI d   1      31.799  -7.196  63.730  0.00  0.00     0.225 C 
ATOM     12  C18 RAI d   1      31.580  -6.186  62.627  0.00  0.00     0.012 C 
ATOM     13  O34 RAI d   1      31.558  -6.948  64.906  0.00  0.00    -0.273 OA
ATOM     14  C17 RAI d   1      32.202  -6.847  61.401  0.00  0.00    -0.029 C 
ATOM     15  H9  RAI d   1      30.507  -6.002  62.471  0.00  0.00     0.047 H 
ATOM     16  H10 RAI d   1      32.085  -5.237  62.859  0.00  0.00     0.047 H 
ATOM     17  C16 RAI d   1      32.445  -8.352  61.731  0.00  0.00     0.083 C 
ATOM     18  H7  RAI d   1      31.519  -6.759  60.544  0.00  0.00     0.037 H 
ATOM     19  H8  RAI d   1      33.158  -6.359  61.160  0.00  0.00     0.037 H 
BRANCH  17  20
ATOM     20  C28 RAI d   1      33.876  -8.844  61.288  0.00  0.00     0.043 C 
ATOM     21  H14 RAI d   1      33.788  -9.841  60.831  0.00  0.00     0.077 H 
ATOM     22  H15 RAI d   1      34.526  -8.902  62.173  0.00  0.00     0.077 H 
BRANCH  20  23
ATOM     23  O29 RAI d   1      34.443  -7.965  60.361  0.00  0.00    -0.398 OA
ATOM     24  H16 RAI d   1      33.886  -7.914  59.593  0.00  0.00     0.209 HD
ENDBRANCH  20  23
ENDBRANCH  17  20
BRANCH  17  25
ATOM     25  C24 RAI d   1      31.367  -9.238  61.021  0.00  0.00     0.043 C 
ATOM     26  H11 RAI d   1      30.390  -8.739  61.099  0.00  0.00     0.077 H 
ATOM     27  H12 RAI d   1      31.322 -10.215  61.525  0.00  0.00     0.077 H 
BRANCH  25  28
ATOM     28  O25 RAI d   1      31.670  -9.445  59.641  0.00  0.00    -0.398 OA
ATOM     29  H13 RAI d   1      32.511  -9.881  59.564  0.00  0.00     0.209 HD
ENDBRANCH  25  28
ENDBRANCH  17  25
ENDBRANCH   2  10
BRANCH   3  30
ATOM     30  N12 RAI d   1      30.179 -10.161  64.013  0.00  0.00    -0.190 N 
ATOM     31  C13 RAI d   1      29.299 -11.045  63.512  0.00  0.00     0.669 C 
ATOM     32  N33 RAI d   1      27.997 -10.780  63.621  0.00  0.00    -0.235 N 
ATOM     33  N14 RAI d   1      29.733 -12.173  62.909  0.00  0.00    -0.235 N 
ATOM     34  H17 RAI d   1      27.685  -9.915  64.084  0.00  0.00     0.174 HD
ATOM     35  H18 RAI d   1      27.303 -11.441  63.242  0.00  0.00     0.174 HD
ATOM     36  H5  RAI d   1      29.054 -12.847  62.527  0.00  0.00     0.174 HD
ATOM     37  H6  RAI d   1      30.743 -12.360  62.831  0.00  0.00     0.174 HD
ATOM     38  H4  RAI d   1      29.834  -9.192  64.072  0.00  0.00     0.184 HD
ENDBRANCH   3  30
BRANCH   5  39
ATOM     39  C10 RAI d   1      33.209 -12.862  66.694  0.00  0.00     0.209 C 
ATOM     40  O32 RAI d   1      34.281 -13.110  67.140  0.00  0.00    -0.644 OA
ATOM     41  O11 RAI d   1      32.125 -13.620  66.952  0.00  0.00    -0.644 OA
ENDBRANCH   5  39
TORSDOF 7
