REMARK  12 active torsions:
REMARK  status: ('A' for Active; 'I' for Inactive)
REMARK    1  A    between atoms: C2_2  and  N11_8 
REMARK    2  A    between atoms: C3_3  and  N12_9 
REMARK    3  A    between atoms: C5_5  and  C10_7 
REMARK    4  A    between atoms: N12_9  and  C13_10 
REMARK    5  A    between atoms: C13_10  and  C21_13 
REMARK    6  A    between atoms: C13_10  and  C14_11 
REMARK    7  A    between atoms: C14_11  and  C15_12 
REMARK    8  A    between atoms: C21_13  and  C23_14 
REMARK    9  A    between atoms: C29_15  and  C42_22 
REMARK   10  A    between atoms: C29_15  and  C38_20 
REMARK   11  A    between atoms: C38_20  and  O39_21 
REMARK   12  A    between atoms: C42_22  and  O43_23 
ROOT
ATOM      1  C1  RA2 d   1      33.875  -9.412  65.071  0.00  0.00    -0.054 A 
ATOM      2  C2  RA2 d   1      32.683  -9.185  64.326  0.00  0.00     0.064 A 
ATOM      3  C3  RA2 d   1      31.636 -10.166  64.369  0.00  0.00     0.056 A 
ATOM      4  C4  RA2 d   1      31.814 -11.338  65.141  0.00  0.00    -0.039 A 
ATOM      5  C5  RA2 d   1      32.994 -11.571  65.873  0.00  0.00     0.043 A 
ATOM      6  C6  RA2 d   1      34.031 -10.598  65.842  0.00  0.00    -0.064 A 
ATOM      7  H1  RA2 d   1      34.670  -8.675  65.051  0.00  0.00     0.087 H 
ATOM      8  H2  RA2 d   1      31.021 -12.076  65.170  0.00  0.00     0.088 H 
ATOM      9  H3  RA2 d   1      34.942 -10.760  66.407  0.00  0.00     0.085 H 
ENDROOT
BRANCH   2  10
ATOM     10  N11 RA2 d   1      32.521  -8.031  63.549  0.00  0.00    -0.302 N 
ATOM     11  C32 RA2 d   1      31.797  -6.954  63.998  0.00  0.00     0.225 C 
ATOM     12  C31 RA2 d   1      31.778  -5.877  62.921  0.00  0.00     0.012 C 
ATOM     13  O37 RA2 d   1      31.230  -6.841  65.077  0.00  0.00    -0.273 OA
ATOM     14  C30 RA2 d   1      32.096  -6.703  61.667  0.00  0.00    -0.029 C 
ATOM     15  H18 RA2 d   1      30.791  -5.397  62.848  0.00  0.00     0.047 H 
ATOM     16  H19 RA2 d   1      32.545  -5.111  63.104  0.00  0.00     0.047 H 
ATOM     17  C29 RA2 d   1      33.066  -7.796  62.159  0.00  0.00     0.083 C 
ATOM     18  H16 RA2 d   1      31.180  -7.153  61.255  0.00  0.00     0.037 H 
ATOM     19  H17 RA2 d   1      32.574  -6.076  60.900  0.00  0.00     0.037 H 
BRANCH  17  20
ATOM     20  C42 RA2 d   1      34.515  -7.210  62.145  0.00  0.00     0.043 C 
ATOM     21  H23 RA2 d   1      34.474  -6.178  61.766  0.00  0.00     0.077 H 
ATOM     22  H24 RA2 d   1      35.136  -7.822  61.474  0.00  0.00     0.077 H 
BRANCH  20  23
ATOM     23  O43 RA2 d   1      35.115  -7.197  63.435  0.00  0.00    -0.398 OA
ATOM     24  H25 RA2 d   1      35.990  -6.833  63.372  0.00  0.00     0.209 HD
ENDBRANCH  20  23
ENDBRANCH  17  20
BRANCH  17  25
ATOM     25  C38 RA2 d   1      33.029  -9.075  61.249  0.00  0.00     0.043 C 
ATOM     26  H20 RA2 d   1      33.535  -9.897  61.777  0.00  0.00     0.077 H 
ATOM     27  H21 RA2 d   1      33.564  -8.856  60.313  0.00  0.00     0.077 H 
BRANCH  25  28
ATOM     28  O39 RA2 d   1      31.702  -9.488  60.929  0.00  0.00    -0.398 OA
ATOM     29  H22 RA2 d   1      31.736 -10.262  60.379  0.00  0.00     0.209 HD
ENDBRANCH  25  28
ENDBRANCH  17  25
ENDBRANCH   2  10
BRANCH   3  30
ATOM     30  N12 RA2 d   1      30.484  -9.933  63.641  0.00  0.00    -0.383 N 
ATOM     31  H4  RA2 d   1      30.537  -9.187  62.933  0.00  0.00     0.160 HD
BRANCH  30  32
ATOM     32  C13 RA2 d   1      29.184 -10.630  63.759  0.00  0.00     0.009 C 
ATOM     33  H5  RA2 d   1      29.020 -10.920  64.807  0.00  0.00     0.072 H 
BRANCH  32  34
ATOM     34  C21 RA2 d   1      28.061  -9.649  63.334  0.00  0.00    -0.050 C 
ATOM     35  H11 RA2 d   1      27.138 -10.229  63.185  0.00  0.00     0.035 H 
ATOM     36  H12 RA2 d   1      28.357  -9.181  62.384  0.00  0.00     0.035 H 
BRANCH  34  37
ATOM     37  C23 RA2 d   1      27.765  -8.532  64.344  0.00  0.00    -0.075 C 
ATOM     38  H13 RA2 d   1      26.959  -7.891  63.956  0.00  0.00     0.027 H 
ATOM     39  H14 RA2 d   1      28.671  -7.928  64.499  0.00  0.00     0.027 H 
ATOM     40  H15 RA2 d   1      27.452  -8.976  65.301  0.00  0.00     0.027 H 
ENDBRANCH  34  37
ENDBRANCH  32  34
BRANCH  32  41
ATOM     41  C14 RA2 d   1      29.216 -11.921  62.888  0.00  0.00    -0.050 C 
ATOM     42  H6  RA2 d   1      30.053 -12.543  63.238  0.00  0.00     0.035 H 
ATOM     43  H7  RA2 d   1      29.394 -11.620  61.845  0.00  0.00     0.035 H 
BRANCH  41  44
ATOM     44  C15 RA2 d   1      27.949 -12.778  62.919  0.00  0.00    -0.075 C 
ATOM     45  H8  RA2 d   1      28.085 -13.657  62.272  0.00  0.00     0.027 H 
ATOM     46  H9  RA2 d   1      27.096 -12.185  62.557  0.00  0.00     0.027 H 
ATOM     47  H10 RA2 d   1      27.755 -13.108  63.950  0.00  0.00     0.027 H 
ENDBRANCH  41  44
ENDBRANCH  32  41
ENDBRANCH  30  32
ENDBRANCH   3  30
BRANCH   5  48
ATOM     48  C10 RA2 d   1      33.134 -12.825  66.653  0.00  0.00     0.209 C 
ATOM     49  O50 RA2 d   1      34.115 -13.070  67.285  0.00  0.00    -0.644 OA
ATOM     50  O49 RA2 d   1      32.078 -13.676  66.593  0.00  0.00    -0.644 OA
ENDBRANCH   5  48
TORSDOF 12
