REMARK  13 active torsions:
REMARK  status: ('A' for Active; 'I' for Inactive)
REMARK    1  A    between atoms: N_1  and  CA_2 
REMARK    2  A    between atoms: S_30  and  N_1 
REMARK    3  A    between atoms: N_8  and  CA_9 
REMARK    4  A    between atoms: CA_9  and  C_10 
REMARK       I    between atoms: C_10  and  N_12 
REMARK    5  A    between atoms: N_12  and  CA_13 
REMARK    6  A    between atoms: CA_13  and  C_14 
REMARK    7  A    between atoms: CA_13  and  CB_16 
REMARK    8  A    between atoms: C_14  and  O_15 
REMARK    9  A    between atoms: CB_16  and  CG_17 
REMARK   10  A    between atoms: CG_17  and  CD_18 
REMARK   11  A    between atoms: CD_18  and  NE_19 
REMARK       I    between atoms: NE_19  and  CZ_20 
REMARK       I    between atoms: CZ_20  and  NH1_21 
REMARK   12  A    between atoms: C_23  and  C1_24 
REMARK   13  A    between atoms: C_23  and  S_30 
ROOT
ATOM      1  CA  0IT d   1      18.442 -15.757  22.852  0.00  0.00     0.097 C 
ATOM      2  CB  0IT d   1      19.033 -16.469  21.697  0.00  0.00    -0.036 C 
ATOM      3  CG  0IT d   1      19.995 -15.681  20.884  0.00  0.00    -0.048 C 
ATOM      4  C   0IT d   1      17.902 -14.337  22.445  0.00  0.00     0.243 C 
ATOM      5  CD  0IT d   1      19.772 -14.161  20.801  0.00  0.00    -0.002 C 
ATOM      6  O   0IT d   1      16.883 -13.982  22.991  0.00  0.00    -0.271 OA
ATOM      7  N   0IT d   1      18.570 -13.721  21.509  0.00  0.00    -0.342 N 
ATOM      8  H2  0IT d   1      19.272 -15.599  23.557  0.00  0.00     0.088 H 
ATOM      9  H3  0IT d   1      18.212 -16.785  21.038  0.00  0.00     0.036 H 
ATOM     10  H4  0IT d   1      19.559 -17.356  22.079  0.00  0.00     0.036 H 
ATOM     11  H5  0IT d   1      19.961 -16.076  19.858  0.00  0.00     0.035 H 
ATOM     12  H6  0IT d   1      20.997 -15.845  21.307  0.00  0.00     0.035 H 
ATOM     13  H7  0IT d   1      19.679 -13.877  19.742  0.00  0.00     0.064 H 
ATOM     14  H8  0IT d   1      20.643 -13.654  21.241  0.00  0.00     0.064 H 
ENDROOT
BRANCH   7  15
ATOM     15  CA  0IT d   1      18.061 -12.381  21.159  0.00  0.00     0.071 C 
ATOM     16  H9  0IT d   1      18.802 -11.849  20.545  0.00  0.00     0.079 H 
ATOM     17  H10 0IT d   1      17.863 -11.806  22.076  0.00  0.00     0.079 H 
BRANCH  15  18
ATOM     18  C   0IT d   1      16.765 -12.559  20.369  0.00  0.00     0.235 C 
ATOM     19  O   0IT d   1      16.508 -13.641  19.849  0.00  0.00    -0.272 OA
ATOM     20  N   0IT d   1      15.948 -11.522  20.404  0.00  0.00    -0.353 N 
ATOM     21  H11 0IT d   1      16.214 -10.712  20.927  0.00  0.00     0.163 HD
BRANCH  20  22
ATOM     22  CA  0IT d   1      14.643 -11.523  19.689  0.00  0.00     0.032 C 
ATOM     23  H12 0IT d   1      14.392 -12.563  19.436  0.00  0.00     0.075 H 
BRANCH  22  24
ATOM     24  C   0IT d   1      14.765 -10.736  18.401  0.00  0.00     0.035 C 
ATOM     25  H13 0IT d   1      15.262 -11.393  17.672  0.00  0.00     0.077 H 
ATOM     26  H14 0IT d   1      15.411  -9.872  18.616  0.00  0.00     0.077 H 
BRANCH  24  27
ATOM     27  O   0IT d   1      13.743 -10.293  17.847  0.00  0.00    -0.399 OA
ATOM     28  H15 0IT d   1      13.989  -9.827  17.057  0.00  0.00     0.209 HD
ENDBRANCH  24  27
ENDBRANCH  22  24
BRANCH  22  29
ATOM     29  CB  0IT d   1      13.537 -10.975  20.549  0.00  0.00    -0.043 C 
ATOM     30  H16 0IT d   1      12.663 -10.783  19.910  0.00  0.00     0.036 H 
ATOM     31  H17 0IT d   1      13.880 -10.030  20.996  0.00  0.00     0.036 H 
BRANCH  29  32
ATOM     32  CG  0IT d   1      13.119 -11.905  21.662  0.00  0.00    -0.048 C 
ATOM     33  H18 0IT d   1      14.013 -12.209  22.227  0.00  0.00     0.035 H 
ATOM     34  H19 0IT d   1      12.643 -12.794  21.223  0.00  0.00     0.035 H 
BRANCH  32  35
ATOM     35  CD  0IT d   1      12.169 -11.262  22.584  0.00  0.00     0.009 C 
ATOM     36  H20 0IT d   1      11.368 -10.776  22.008  0.00  0.00     0.064 H 
ATOM     37  H21 0IT d   1      12.695 -10.509  23.189  0.00  0.00     0.064 H 
BRANCH  35  38
ATOM     38  NE  0IT d   1      11.604 -12.263  23.445  0.00  0.00    -0.227 N 
ATOM     39  CZ  0IT d   1      10.814 -12.052  24.460  0.00  0.00     0.665 C 
ATOM     40  NH1 0IT d   1      10.511 -10.769  24.793  0.00  0.00    -0.235 N 
ATOM     41  NH2 0IT d   1      10.195 -13.059  25.104  0.00  0.00    -0.235 N 
ATOM     42  H23 0IT d   1       9.889 -10.577  25.591  0.00  0.00     0.174 HD
ATOM     43  H24 0IT d   1      10.904  -9.989  24.247  0.00  0.00     0.174 HD
ATOM     44  H25 0IT d   1      10.414 -14.036  24.863  0.00  0.00     0.174 HD
ATOM     45  H26 0IT d   1       9.502 -12.852  25.838  0.00  0.00     0.174 HD
ATOM     46  H22 0IT d   1      11.847 -13.243  23.241  0.00  0.00     0.177 HD
ENDBRANCH  35  38
ENDBRANCH  32  35
ENDBRANCH  29  32
ENDBRANCH  22  29
ENDBRANCH  20  22
ENDBRANCH  15  18
ENDBRANCH   7  15
BRANCH   1  47
ATOM     47  N   0IT d   1      17.436 -16.435  23.577  0.00  0.00    -0.305 N 
ATOM     48  H1  0IT d   1      16.480 -16.169  23.458  0.00  0.00     0.173 HD
BRANCH  47  49
ATOM     49  S   0IT d   1      17.819 -17.673  24.628  0.00  0.00     0.231 S 
ATOM     50  O1S 0IT d   1      16.590 -18.241  24.998  0.00  0.00    -0.206 OA
ATOM     51  O2S 0IT d   1      18.864 -18.333  23.923  0.00  0.00    -0.206 OA
BRANCH  49  52
ATOM     52  C   0IT d   1      18.505 -17.008  26.127  0.00  0.00     0.070 C 
ATOM     53  H27 0IT d   1      17.742 -16.377  26.606  0.00  0.00     0.066 H 
ATOM     54  H28 0IT d   1      18.759 -17.846  26.793  0.00  0.00     0.066 H 
BRANCH  52  55
ATOM     55  C1  0IT d   1      19.726 -16.189  25.921  0.00  0.00    -0.043 A 
ATOM     56  C2  0IT d   1      19.588 -14.803  26.063  0.00  0.00    -0.076 A 
ATOM     57  C3  0IT d   1      20.716 -14.007  25.869  0.00  0.00    -0.082 A 
ATOM     58  H29 0IT d   1      18.631 -14.361  26.317  0.00  0.00     0.084 H 
ATOM     59  C4  0IT d   1      21.946 -14.517  25.536  0.00  0.00    -0.083 A 
ATOM     60  H30 0IT d   1      20.617 -12.934  25.987  0.00  0.00     0.083 H 
ATOM     61  C5  0IT d   1      22.068 -15.884  25.395  0.00  0.00    -0.082 A 
ATOM     62  H31 0IT d   1      22.798 -13.864  25.388  0.00  0.00     0.083 H 
ATOM     63  C6  0IT d   1      20.950 -16.713  25.592  0.00  0.00    -0.076 A 
ATOM     64  H32 0IT d   1      23.026 -16.319  25.132  0.00  0.00     0.083 H 
ATOM     65  H33 0IT d   1      21.057 -17.786  25.482  0.00  0.00     0.084 H 
ENDBRANCH  52  55
ENDBRANCH  49  52
ENDBRANCH  47  49
ENDBRANCH   1  47
TORSDOF 13
