REMARK  4 active torsions:
REMARK  status: ('A' for Active; 'I' for Inactive)
REMARK    1  A    between atoms: C1_1  and  O1_6 
REMARK    2  A    between atoms: C2_2  and  O2_7 
REMARK    3  A    between atoms: C3_3  and  O3_8 
REMARK    4  A    between atoms: C4_4  and  O4_9 
ROOT
ATOM      1  C1  ARB d   1      14.364  56.838  55.189  0.00  0.00     0.155 C 
ATOM      2  C2  ARB d   1      12.911  57.169  54.830  0.00  0.00     0.110 C 
ATOM      3  C3  ARB d   1      12.440  56.257  53.702  0.00  0.00     0.091 C 
ATOM      4  C4  ARB d   1      13.366  56.400  52.495  0.00  0.00     0.083 C 
ATOM      5  C5  ARB d   1      14.791  56.106  52.923  0.00  0.00     0.049 C 
ATOM      6  O5  ARB d   1      15.190  56.968  54.021  0.00  0.00    -0.356 OA
ATOM      7  H1  ARB d   1      14.721  57.548  55.950  0.00  0.00     0.133 H 
ATOM      8  H2  ARB d   1      12.877  58.205  54.463  0.00  0.00     0.094 H 
ATOM      9  H3  ARB d   1      12.479  55.217  54.057  0.00  0.00     0.091 H 
ATOM     10  H4  ARB d   1      13.072  55.641  51.755  0.00  0.00     0.090 H 
ATOM     11  H5  ARB d   1      15.465  56.274  52.070  0.00  0.00     0.078 H 
ATOM     12  H6  ARB d   1      14.861  55.057  53.245  0.00  0.00     0.078 H 
ENDROOT
BRANCH   1  13
ATOM     13  O1  ARB d   1      14.403  55.546  55.726  0.00  0.00    -0.369 OA
ATOM     14  H7  ARB d   1      15.296  55.333  55.971  0.00  0.00     0.212 HD
ENDBRANCH   1  13
BRANCH   2  15
ATOM     15  O2  ARB d   1      12.068  57.090  55.975  0.00  0.00    -0.388 OA
ATOM     16  H8  ARB d   1      11.186  57.348  55.736  0.00  0.00     0.210 HD
ENDBRANCH   2  15
BRANCH   3  17
ATOM     17  O3  ARB d   1      11.098  56.551  53.313  0.00  0.00    -0.390 OA
ATOM     18  H9  ARB d   1      10.525  56.461  54.065  0.00  0.00     0.210 HD
ENDBRANCH   3  17
BRANCH   4  19
ATOM     19  O4  ARB d   1      13.249  57.671  51.865  0.00  0.00    -0.391 OA
ATOM     20  H10 ARB d   1      12.345  57.816  51.613  0.00  0.00     0.210 HD
ENDBRANCH   4  19
TORSDOF 4
