REMARK  11 active torsions:
REMARK  status: ('A' for Active; 'I' for Inactive)
REMARK    1  A    between atoms: C_1  and  C1_2 
REMARK    2  A    between atoms: S_8  and  C_1 
REMARK    3  A    between atoms: N_11  and  S_8 
REMARK    4  A    between atoms: CA_12  and  N_11 
REMARK    5  A    between atoms: CA_19  and  N_18 
REMARK    6  A    between atoms: C_20  and  CA_19 
REMARK       I    between atoms: N_24  and  C_20 
REMARK    7  A    between atoms: CA_25  and  N_24 
REMARK    8  A    between atoms: CA_25  and  C_26 
REMARK    9  A    between atoms: CB_28  and  CA_25 
REMARK   10  A    between atoms: C_26  and  O_27 
REMARK   11  A    between atoms: CG_32  and  CB_28 
REMARK       I    between atoms: NE_30  and  CZ_29 
REMARK       I    between atoms: CZ_29  and  NH1_34 
ROOT
ATOM      1  CA  0IV d   1      18.129 -12.351  21.418  0.00  0.00     0.071 C 
ATOM      2  H16 0IV d   1      18.788 -11.666  20.865  0.00  0.00     0.079 H 
ATOM      3  H17 0IV d   1      17.909 -11.927  22.409  0.00  0.00     0.079 H 
ENDROOT
BRANCH   1   4
ATOM      4  N   0IV d   1      18.656 -13.713  21.488  0.00  0.00    -0.342 N 
ATOM      5  C   0IV d   1      17.900 -14.399  22.312  0.00  0.00     0.243 C 
ATOM      6  CA  0IV d   1      18.482 -15.730  22.843  0.00  0.00     0.097 C 
ATOM      7  O   0IV d   1      16.946 -13.980  22.960  0.00  0.00    -0.271 OA
ATOM      8  CB  0IV d   1      19.162 -16.491  21.753  0.00  0.00    -0.036 C 
ATOM      9  H9  0IV d   1      19.280 -15.473  23.556  0.00  0.00     0.088 H 
ATOM     10  CG  0IV d   1      20.143 -15.650  20.975  0.00  0.00    -0.048 C 
ATOM     11  H10 0IV d   1      18.397 -16.870  21.059  0.00  0.00     0.036 H 
ATOM     12  H11 0IV d   1      19.703 -17.338  22.201  0.00  0.00     0.036 H 
ATOM     13  CD  0IV d   1      19.776 -14.220  20.682  0.00  0.00    -0.002 C 
ATOM     14  H12 0IV d   1      20.307 -16.149  20.009  0.00  0.00     0.035 H 
ATOM     15  H13 0IV d   1      21.084 -15.635  21.544  0.00  0.00     0.035 H 
ATOM     16  H14 0IV d   1      19.500 -14.144  19.620  0.00  0.00     0.064 H 
ATOM     17  H15 0IV d   1      20.656 -13.590  20.878  0.00  0.00     0.064 H 
BRANCH   6  18
ATOM     18  N   0IV d   1      17.492 -16.381  23.600  0.00  0.00    -0.305 N 
ATOM     19  H8  0IV d   1      16.548 -16.058  23.533  0.00  0.00     0.173 HD
BRANCH  18  20
ATOM     20  S   0IV d   1      17.825 -17.663  24.601  0.00  0.00     0.231 S 
ATOM     21  O1S 0IV d   1      16.559 -18.193  24.970  0.00  0.00    -0.206 OA
ATOM     22  O2S 0IV d   1      18.790 -18.326  23.791  0.00  0.00    -0.206 OA
BRANCH  20  23
ATOM     23  C   0IV d   1      18.475 -17.066  26.151  0.00  0.00     0.070 C 
ATOM     24  H1  0IV d   1      17.709 -16.426  26.613  0.00  0.00     0.066 H 
ATOM     25  H2  0IV d   1      18.661 -17.938  26.796  0.00  0.00     0.066 H 
BRANCH  23  26
ATOM     26  C1  0IV d   1      19.743 -16.277  26.071  0.00  0.00    -0.043 C 
ATOM     27  C2  0IV d   1      19.643 -14.908  26.253  0.00  0.00    -0.076 C 
ATOM     28  C3  0IV d   1      20.765 -14.119  25.967  0.00  0.00    -0.082 C 
ATOM     29  H3  0IV d   1      18.722 -14.459  26.607  0.00  0.00     0.084 H 
ATOM     30  C4  0IV d   1      21.896 -14.638  25.358  0.00  0.00    -0.083 C 
ATOM     31  H4  0IV d   1      20.747 -13.068  26.231  0.00  0.00     0.083 H 
ATOM     32  C5  0IV d   1      21.944 -16.007  25.104  0.00  0.00    -0.082 C 
ATOM     33  H5  0IV d   1      22.724 -13.994  25.085  0.00  0.00     0.083 H 
ATOM     34  C6  0IV d   1      20.905 -16.821  25.549  0.00  0.00    -0.076 C 
ATOM     35  H6  0IV d   1      22.782 -16.435  24.565  0.00  0.00     0.083 H 
ATOM     36  H7  0IV d   1      21.008 -17.898  25.486  0.00  0.00     0.084 H 
ENDBRANCH  23  26
ENDBRANCH  20  23
ENDBRANCH  18  20
ENDBRANCH   6  18
ENDBRANCH   1   4
BRANCH   1  37
ATOM     37  C   0IV d   1      16.832 -12.731  20.615  0.00  0.00     0.235 C 
ATOM     38  O   0IV d   1      16.794 -13.638  19.743  0.00  0.00    -0.272 OA
ATOM     39  N   0IV d   1      15.825 -11.701  20.573  0.00  0.00    -0.353 N 
ATOM     40  H22 0IV d   1      15.990 -10.903  21.152  0.00  0.00     0.163 HD
BRANCH  39  41
ATOM     41  CA  0IV d   1      14.626 -11.679  19.810  0.00  0.00     0.033 C 
ATOM     42  H23 0IV d   1      14.277 -12.717  19.708  0.00  0.00     0.075 H 
BRANCH  41  43
ATOM     43  C   0IV d   1      14.772 -11.181  18.466  0.00  0.00     0.035 C 
ATOM     44  H24 0IV d   1      15.210 -12.040  17.937  0.00  0.00     0.077 H 
ATOM     45  H25 0IV d   1      15.533 -10.395  18.581  0.00  0.00     0.077 H 
BRANCH  43  46
ATOM     46  O   0IV d   1      13.928 -10.647  17.526  0.00  0.00    -0.399 OA
ATOM     47  H26 0IV d   1      13.530  -9.857  17.872  0.00  0.00     0.209 HD
ENDBRANCH  43  46
ENDBRANCH  41  43
BRANCH  41  48
ATOM     48  CB  0IV d   1      13.681 -10.987  20.610  0.00  0.00    -0.039 C 
ATOM     49  H27 0IV d   1      13.173 -10.276  19.942  0.00  0.00     0.036 H 
ATOM     50  H28 0IV d   1      14.261 -10.433  21.363  0.00  0.00     0.036 H 
BRANCH  48  51
ATOM     51  CG  0IV d   1      12.645 -11.678  21.327  0.00  0.00    -0.036 C 
ATOM     52  C1  0IV d   1      12.902 -13.067  20.687  0.00  0.00    -0.059 C 
ATOM     53  C2  0IV d   1      11.669 -13.831  21.551  0.00  0.00    -0.049 C 
ATOM     54  H29 0IV d   1      12.739 -13.079  19.599  0.00  0.00     0.033 H 
ATOM     55  H30 0IV d   1      13.901 -13.469  20.912  0.00  0.00     0.033 H 
ATOM     56  C3  0IV d   1      12.219 -13.881  23.116  0.00  0.00     0.012 C 
ATOM     57  H18 0IV d   1      10.735 -13.254  21.486  0.00  0.00     0.035 H 
ATOM     58  H19 0IV d   1      11.499 -14.848  21.167  0.00  0.00     0.035 H 
ATOM     59  NE  0IV d   1      12.276 -12.389  23.737  0.00  0.00    -0.218 N 
ATOM     60  H20 0IV d   1      13.227 -14.320  23.133  0.00  0.00     0.065 H 
ATOM     61  H21 0IV d   1      11.540 -14.500  23.720  0.00  0.00     0.065 H 
ATOM     62  CZ  0IV d   1      11.296 -11.958  24.599  0.00  0.00     0.667 C 
ATOM     63  CD  0IV d   1      13.043 -11.616  22.843  0.00  0.00     0.015 C 
ATOM     64  NH1 0IV d   1      11.047 -10.682  24.732  0.00  0.00    -0.235 N 
ATOM     65  NH2 0IV d   1      10.562 -12.738  25.242  0.00  0.00    -0.235 N 
ATOM     66  H34 0IV d   1      10.311 -10.366  25.380  0.00  0.00     0.174 HD
ATOM     67  H35 0IV d   1      11.586  -9.993  24.189  0.00  0.00     0.174 HD
ATOM     68  H36 0IV d   1      10.710 -13.755  25.177  0.00  0.00     0.174 HD
ATOM     69  H37 0IV d   1       9.809 -12.364  25.837  0.00  0.00     0.174 HD
ATOM     70  H32 0IV d   1      14.087 -11.951  22.926  0.00  0.00     0.065 H 
ATOM     71  H33 0IV d   1      12.968 -10.566  23.163  0.00  0.00     0.065 H 
ATOM     72  H31 0IV d   1      11.627 -11.297  21.159  0.00  0.00     0.042 H 
ENDBRANCH  48  51
ENDBRANCH  41  48
ENDBRANCH  39  41
ENDBRANCH   1  37
TORSDOF 11
