REMARK  23 active torsions:
REMARK  status: ('A' for Active; 'I' for Inactive)
REMARK    1  A    between atoms: C_1  and  CH3_3 
REMARK       I    between atoms: C_1  and  N_4 
REMARK    2  A    between atoms: N_4  and  CA_5 
REMARK    3  A    between atoms: CA_5  and  C_6 
REMARK    4  A    between atoms: CA_5  and  CB_8 
REMARK       I    between atoms: C_6  and  N_9 
REMARK    5  A    between atoms: CA_10  and  C_11 
REMARK       I    between atoms: C_11  and  N_16 
REMARK    6  A    between atoms: N_16  and  CA_17 
REMARK    7  A    between atoms: CA_17  and  C_18 
REMARK    8  A    between atoms: CA_17  and  CB_20 
REMARK       I    between atoms: C_18  and  N_22 
REMARK    9  A    between atoms: CB_20  and  OG_21 
REMARK   10  A    between atoms: N_22  and  CA_23 
REMARK   11  A    between atoms: CA_23  and  C_24 
REMARK   12  A    between atoms: CA_23  and  CB_26 
REMARK       I    between atoms: C_24  and  N_34 
REMARK   13  A    between atoms: CB_26  and  CG_27 
REMARK   14  A    between atoms: CZ_32  and  OH_33 
REMARK   15  A    between atoms: N_34  and  CA_35 
REMARK   16  A    between atoms: CA_35  and  C_36 
REMARK   17  A    between atoms: CA_35  and  CB_38 
REMARK       I    between atoms: C_36  and  N_40 
REMARK   18  A    between atoms: CB_38  and  OG_39 
REMARK   19  A    between atoms: CA_41  and  C_42 
REMARK       I    between atoms: C_42  and  N_47 
REMARK   20  A    between atoms: CA_48  and  C_49 
REMARK       I    between atoms: C_49  and  N_54 
REMARK   21  A    between atoms: CA_55  and  C_56 
REMARK       I    between atoms: C_56  and  N_61 
REMARK   22  A    between atoms: CA_62  and  C_63 
REMARK       I    between atoms: C_63  and  N_68 
REMARK   23  A    between atoms: CA_69  and  C_70 
ROOT
ATOM      1  N   PRO d   1       7.241  36.535   9.940  0.00  0.00    -0.337 N 
ATOM      2  CA  PRO d   1       6.178  35.770   9.282  0.00  0.00     0.092 C 
ATOM      3  CB  PRO d   1       5.732  34.790  10.369  0.00  0.00    -0.036 C 
ATOM      4  CG  PRO d   1       6.036  35.523  11.638  0.00  0.00    -0.048 C 
ATOM      5  CD  PRO d   1       7.381  36.136  11.353  0.00  0.00    -0.001 C 
ATOM      6  H35 PRO d   1       6.520  35.245   8.378  0.00  0.00     0.087 H 
ATOM      7  H36 PRO d   1       6.301  33.850  10.310  0.00  0.00     0.036 H 
ATOM      8  H37 PRO d   1       4.657  34.573  10.287  0.00  0.00     0.036 H 
ATOM      9  H38 PRO d   1       6.088  34.832  12.492  0.00  0.00     0.035 H 
ATOM     10  H39 PRO d   1       5.282  36.298  11.839  0.00  0.00     0.035 H 
ATOM     11  H40 PRO d   1       7.568  37.007  11.998  0.00  0.00     0.064 H 
ATOM     12  H41 PRO d   1       8.190  35.403  11.483  0.00  0.00     0.064 H 
ATOM     13  C   SER d   1       8.034  37.343   9.203  0.00  0.00     0.245 C 
ATOM     14  O   SER d   1       7.976  37.380   7.973  0.00  0.00    -0.271 OA
ENDROOT
BRANCH  13  15
ATOM     15  CA  SER d   1       9.102  38.132   9.951  0.00  0.00     0.109 C 
ATOM     16  H31 SER d   1       9.356  37.572  10.863  0.00  0.00     0.090 H 
BRANCH  15  17
ATOM     17  N   SER d   1      10.332  38.343   9.211  0.00  0.00    -0.344 N 
ATOM     18  C   TYR d   1      11.263  37.404   9.173  0.00  0.00     0.241 C 
ATOM     19  O   TYR d   1      11.134  36.307   9.747  0.00  0.00    -0.271 OA
ATOM     20  H30 SER d   1      10.477  39.205   8.726  0.00  0.00     0.163 HD
BRANCH  18  21
ATOM     21  CA  TYR d   1      12.537  37.753   8.401  0.00  0.00     0.093 C 
ATOM     22  H22 TYR d   1      12.933  38.690   8.821  0.00  0.00     0.088 H 
BRANCH  21  23
ATOM     23  N   TYR d   1      13.553  36.726   8.581  0.00  0.00    -0.346 N 
ATOM     24  C   SER d   1      14.225  36.595   9.723  0.00  0.00     0.243 C 
ATOM     25  O   SER d   1      14.074  37.349  10.687  0.00  0.00    -0.271 OA
ATOM     26  H21 TYR d   1      13.752  36.101   7.826  0.00  0.00     0.163 HD
BRANCH  24  27
ATOM     27  CA  SER d   1      15.247  35.461   9.773  0.00  0.00     0.109 C 
ATOM     28  H17 SER d   1      15.284  35.059  10.796  0.00  0.00     0.090 H 
BRANCH  27  29
ATOM     29  N   SER d   1      14.842  34.398   8.863  0.00  0.00    -0.344 N 
ATOM     30  C   PRO d   1      13.999  33.452   9.263  0.00  0.00     0.241 C 
ATOM     31  O   PRO d   1      13.560  33.413  10.410  0.00  0.00    -0.271 OA
ATOM     32  H16 SER d   1      15.201  34.380   7.930  0.00  0.00     0.163 HD
BRANCH  30  33
ATOM     33  CA  PRO d   1      13.619  32.374   8.236  0.00  0.00     0.091 C 
ATOM     34  N   PRO d   1      13.394  31.083   8.893  0.00  0.00    -0.337 N 
ATOM     35  C   ALA d   1      14.392  30.555   9.620  0.00  0.00     0.243 C 
ATOM     36  CD  PRO d   1      12.080  30.525   8.527  0.00  0.00    -0.001 C 
ATOM     37  O   ALA d   1      15.478  31.104   9.707  0.00  0.00    -0.271 OA
ATOM     38  CG  PRO d   1      11.751  31.287   7.260  0.00  0.00    -0.048 C 
ATOM     39  H14 PRO d   1      11.333  30.715   9.312  0.00  0.00     0.064 H 
ATOM     40  H15 PRO d   1      12.145  29.444   8.337  0.00  0.00     0.064 H 
ATOM     41  CB  PRO d   1      12.260  32.663   7.596  0.00  0.00    -0.036 C 
ATOM     42  H12 PRO d   1      12.276  30.866   6.390  0.00  0.00     0.035 H 
ATOM     43  H13 PRO d   1      10.668  31.295   7.066  0.00  0.00     0.035 H 
ATOM     44  H10 PRO d   1      12.371  33.277   6.690  0.00  0.00     0.036 H 
ATOM     45  H11 PRO d   1      11.589  33.172   8.303  0.00  0.00     0.036 H 
ATOM     46  H9  PRO d   1      14.408  32.300   7.473  0.00  0.00     0.087 H 
BRANCH  35  47
ATOM     47  CA  ALA d   1      14.149  29.212  10.309  0.00  0.00     0.086 C 
ATOM     48  H5  ALA d   1      13.438  28.631   9.704  0.00  0.00     0.086 H 
BRANCH  47  49
ATOM     49  N   ALA d   1      15.398  28.463  10.408  0.00  0.00    -0.348 N 
ATOM     50  C   ACE d   1      15.957  27.900   9.342  0.00  0.00     0.214 C 
ATOM     51  O   ACE d   1      15.461  27.947   8.211  0.00  0.00    -0.274 OA
ATOM     52  H4  ALA d   1      15.843  28.371  11.299  0.00  0.00     0.163 HD
BRANCH  50  53
ATOM     53  CH3 ACE d   1      17.267  27.132   9.519  0.00  0.00    -0.003 C 
ATOM     54  H1  ACE d   1      17.581  27.180  10.572  0.00  0.00     0.040 H 
ATOM     55  H2  ACE d   1      18.044  27.582   8.884  0.00  0.00     0.040 H 
ATOM     56  H3  ACE d   1      17.119  26.082   9.228  0.00  0.00     0.040 H 
ENDBRANCH  50  53
ENDBRANCH  47  49
BRANCH  47  57
ATOM     57  CB  ALA d   1      13.549  29.425  11.693  0.00  0.00    -0.049 C 
ATOM     58  H6  ALA d   1      12.610  29.990  11.602  0.00  0.00     0.030 H 
ATOM     59  H7  ALA d   1      14.258  29.989  12.317  0.00  0.00     0.030 H 
ATOM     60  H8  ALA d   1      13.347  28.449  12.159  0.00  0.00     0.030 H 
ENDBRANCH  47  57
ENDBRANCH  35  47
ENDBRANCH  30  33
ENDBRANCH  27  29
BRANCH  27  61
ATOM     61  CB  SER d   1      16.636  35.982   9.397  0.00  0.00     0.044 C 
ATOM     62  H18 SER d   1      17.000  36.646  10.195  0.00  0.00     0.077 H 
ATOM     63  H19 SER d   1      16.566  36.545   8.455  0.00  0.00     0.077 H 
BRANCH  61  64
ATOM     64  OG  SER d   1      17.555  34.907   9.230  0.00  0.00    -0.398 OA
ATOM     65  H20 SER d   1      17.247  34.333   8.539  0.00  0.00     0.209 HD
ENDBRANCH  61  64
ENDBRANCH  27  61
ENDBRANCH  24  27
ENDBRANCH  21  23
BRANCH  21  66
ATOM     66  CB  TYR d   1      12.248  38.001   6.911  0.00  0.00    -0.014 C 
ATOM     67  H23 TYR d   1      13.125  38.499   6.472  0.00  0.00     0.043 H 
ATOM     68  H24 TYR d   1      11.375  38.666   6.839  0.00  0.00     0.043 H 
BRANCH  66  69
ATOM     69  CG  TYR d   1      11.959  36.760   6.099  0.00  0.00    -0.056 A 
ATOM     70  CD1 TYR d   1      10.714  36.122   6.175  0.00  0.00    -0.074 A 
ATOM     71  CE1 TYR d   1      10.444  34.972   5.430  0.00  0.00    -0.051 A 
ATOM     72  H25 TYR d   1       9.947  36.528   6.824  0.00  0.00     0.084 H 
ATOM     73  CZ  TYR d   1      11.423  34.449   4.602  0.00  0.00     0.065 A 
ATOM     74  H27 TYR d   1       9.475  34.492   5.499  0.00  0.00     0.087 H 
ATOM     75  CE2 TYR d   1      12.671  35.071   4.509  0.00  0.00    -0.051 A 
ATOM     76  CD2 TYR d   1      12.928  36.219   5.257  0.00  0.00    -0.074 A 
ATOM     77  H28 TYR d   1      13.436  34.663   3.858  0.00  0.00     0.087 H 
ATOM     78  H26 TYR d   1      13.897  36.698   5.182  0.00  0.00     0.084 H 
BRANCH  73  79
ATOM     79  OH  TYR d   1      11.168  33.300   3.883  0.00  0.00    -0.361 OA
ATOM     80  H29 TYR d   1      11.266  33.480   2.955  0.00  0.00     0.217 HD
ENDBRANCH  73  79
ENDBRANCH  66  69
ENDBRANCH  21  66
ENDBRANCH  18  21
ENDBRANCH  15  17
BRANCH  15  81
ATOM     81  CB  SER d   1       8.508  39.478  10.350  0.00  0.00     0.044 C 
ATOM     82  H32 SER d   1       8.341  40.083   9.446  0.00  0.00     0.077 H 
ATOM     83  H33 SER d   1       9.210  40.001  11.016  0.00  0.00     0.077 H 
BRANCH  81  84
ATOM     84  OG  SER d   1       7.281  39.295  11.020  0.00  0.00    -0.398 OA
ATOM     85  H34 SER d   1       6.672  38.846  10.446  0.00  0.00     0.209 HD
ENDBRANCH  81  84
ENDBRANCH  15  81
ENDBRANCH  13  15
BRANCH   2  86
ATOM     86  C   PRO d   1       5.096  36.794   8.950  0.00  0.00     0.243 C 
ATOM     87  O   PRO d   1       4.947  37.798   9.649  0.00  0.00    -0.271 OA
ATOM     88  N   PRO d   1       4.355  36.584   7.867  0.00  0.00    -0.337 N 
ATOM     89  CA  PRO d   1       3.331  37.582   7.569  0.00  0.00     0.092 C 
ATOM     90  CD  PRO d   1       4.275  35.439   6.945  0.00  0.00    -0.001 C 
ATOM     91  CB  PRO d   1       2.809  37.132   6.207  0.00  0.00    -0.036 C 
ATOM     92  H42 PRO d   1       3.756  38.595   7.517  0.00  0.00     0.087 H 
ATOM     93  CG  PRO d   1       2.908  35.632   6.303  0.00  0.00    -0.048 C 
ATOM     94  H43 PRO d   1       3.437  37.521   5.392  0.00  0.00     0.036 H 
ATOM     95  H44 PRO d   1       1.768  37.453   6.054  0.00  0.00     0.036 H 
ATOM     96  H45 PRO d   1       2.865  35.165   5.308  0.00  0.00     0.035 H 
ATOM     97  H46 PRO d   1       2.109  35.219   6.936  0.00  0.00     0.035 H 
ATOM     98  H47 PRO d   1       4.328  34.485   7.490  0.00  0.00     0.064 H 
ATOM     99  H48 PRO d   1       5.077  35.477   6.193  0.00  0.00     0.064 H 
BRANCH  89 100
ATOM    100  C   PRO d   1       2.246  37.533   8.626  0.00  0.00     0.243 C 
ATOM    101  O   PRO d   1       1.988  36.478   9.212  0.00  0.00    -0.271 OA
ATOM    102  N   PRO d   1       1.643  38.687   8.940  0.00  0.00    -0.337 N 
ATOM    103  CA  PRO d   1       0.581  38.733   9.947  0.00  0.00     0.092 C 
ATOM    104  CD  PRO d   1       1.947  40.033   8.430  0.00  0.00    -0.001 C 
ATOM    105  CB  PRO d   1       0.343  40.232  10.119  0.00  0.00    -0.036 C 
ATOM    106  H49 PRO d   1       0.890  38.262  10.892  0.00  0.00     0.087 H 
ATOM    107  CG  PRO d   1       0.682  40.781   8.771  0.00  0.00    -0.048 C 
ATOM    108  H50 PRO d   1       1.002  40.651  10.894  0.00  0.00     0.036 H 
ATOM    109  H51 PRO d   1      -0.706  40.439  10.378  0.00  0.00     0.036 H 
ATOM    110  H52 PRO d   1       0.860  41.866   8.816  0.00  0.00     0.035 H 
ATOM    111  H53 PRO d   1      -0.115  40.570   8.043  0.00  0.00     0.035 H 
ATOM    112  H54 PRO d   1       2.125  40.020   7.345  0.00  0.00     0.064 H 
ATOM    113  H55 PRO d   1       2.820  40.468   8.940  0.00  0.00     0.064 H 
BRANCH 103 114
ATOM    114  C   PRO d   1      -0.656  38.050   9.399  0.00  0.00     0.243 C 
ATOM    115  O   PRO d   1      -0.764  37.828   8.202  0.00  0.00    -0.271 OA
ATOM    116  N   PRO d   1      -1.575  37.646  10.275  0.00  0.00    -0.337 N 
ATOM    117  CA  PRO d   1      -2.791  36.988   9.793  0.00  0.00     0.092 C 
ATOM    118  CD  PRO d   1      -1.552  37.710  11.745  0.00  0.00    -0.001 C 
ATOM    119  CB  PRO d   1      -3.619  36.852  11.065  0.00  0.00    -0.036 C 
ATOM    120  H56 PRO d   1      -2.570  36.003   9.357  0.00  0.00     0.087 H 
ATOM    121  CG  PRO d   1      -2.553  36.653  12.115  0.00  0.00    -0.048 C 
ATOM    122  H57 PRO d   1      -4.294  35.985  11.012  0.00  0.00     0.036 H 
ATOM    123  H58 PRO d   1      -4.206  37.762  11.259  0.00  0.00     0.036 H 
ATOM    124  H59 PRO d   1      -2.113  35.647  12.053  0.00  0.00     0.035 H 
ATOM    125  H60 PRO d   1      -2.952  36.817  13.127  0.00  0.00     0.035 H 
ATOM    126  H61 PRO d   1      -1.863  38.701  12.108  0.00  0.00     0.064 H 
ATOM    127  H62 PRO d   1      -0.554  37.472  12.141  0.00  0.00     0.064 H 
BRANCH 117 128
ATOM    128  C   PRO d   1      -3.488  37.868   8.749  0.00  0.00     0.243 C 
ATOM    129  O   PRO d   1      -3.457  39.104   8.839  0.00  0.00    -0.271 OA
ATOM    130  N   PRO d   1      -4.085  37.243   7.725  0.00  0.00    -0.336 N 
ATOM    131  CA  PRO d   1      -4.777  37.990   6.673  0.00  0.00     0.098 C 
ATOM    132  CD  PRO d   1      -4.165  35.793   7.483  0.00  0.00    -0.001 C 
ATOM    133  CB  PRO d   1      -5.140  36.899   5.663  0.00  0.00    -0.035 C 
ATOM    134  H63 PRO d   1      -4.087  38.713   6.214  0.00  0.00     0.089 H 
ATOM    135  CG  PRO d   1      -5.315  35.699   6.521  0.00  0.00    -0.048 C 
ATOM    136  H64 PRO d   1      -4.330  36.749   4.934  0.00  0.00     0.036 H 
ATOM    137  H65 PRO d   1      -6.071  37.145   5.132  0.00  0.00     0.036 H 
ATOM    138  H66 PRO d   1      -5.256  34.776   5.925  0.00  0.00     0.035 H 
ATOM    139  H67 PRO d   1      -6.277  35.731   7.053  0.00  0.00     0.035 H 
ATOM    140  H68 PRO d   1      -4.376  35.244   8.412  0.00  0.00     0.064 H 
ATOM    141  H69 PRO d   1      -3.236  35.411   7.034  0.00  0.00     0.064 H 
BRANCH 131 142
ATOM    142  C   PRO d   1      -6.000  38.759   7.175  0.00  0.00     0.196 C 
ATOM    143  O   PRO d   1      -6.603  38.340   8.192  0.00  0.00    -0.646 OA
ATOM    144  OXT PRO d   1      -6.307  39.798   6.553  0.00  0.00    -0.646 OA
ENDBRANCH 131 142
ENDBRANCH 117 128
ENDBRANCH 103 114
ENDBRANCH  89 100
ENDBRANCH   2  86
TORSDOF 23
