REMARK  7 active torsions:
REMARK  status: ('A' for Active; 'I' for Inactive)
REMARK    1  A    between atoms: C1_1  and  O1_10 
REMARK    2  A    between atoms: C2_2  and  N2_9 
REMARK    3  A    between atoms: C3_3  and  O3_11 
REMARK    4  A    between atoms: C4_4  and  O4_12 
REMARK    5  A    between atoms: C5_5  and  C6_6 
REMARK    6  A    between atoms: C6_6  and  O6_14 
REMARK       I    between atoms: N2_9  and  C7_7 
REMARK    7  A    between atoms: C7_7  and  C8_8 
ROOT
ATOM      1  C1  NGA d   1      48.037  -3.170  21.280  0.00  0.00     0.151 C 
ATOM      2  C2  NGA d   1      46.593  -3.157  21.813  0.00  0.00     0.086 C 
ATOM      3  C3  NGA d   1      46.541  -3.911  23.157  0.00  0.00     0.086 C 
ATOM      4  C4  NGA d   1      47.142  -5.311  23.007  0.00  0.00     0.089 C 
ATOM      5  C5  NGA d   1      48.544  -5.216  22.393  0.00  0.00     0.089 C 
ATOM      6  O5  NGA d   1      48.488  -4.519  21.129  0.00  0.00    -0.349 OA
ATOM      7  H1  NGA d   1      48.691  -2.636  21.985  0.00  0.00     0.132 H 
ATOM      8  H2  NGA d   1      45.930  -3.654  21.090  0.00  0.00     0.084 H 
ATOM      9  H3  NGA d   1      47.127  -3.349  23.899  0.00  0.00     0.090 H 
ATOM     10  H4  NGA d   1      47.216  -5.778  24.000  0.00  0.00     0.091 H 
ATOM     11  H5  NGA d   1      49.184  -4.654  23.090  0.00  0.00     0.090 H 
ENDROOT
BRANCH   2  12
ATOM     12  N2  NGA d   1      46.160  -1.786  21.997  0.00  0.00    -0.349 N 
ATOM     13  C7  NGA d   1      45.485  -1.149  21.044  0.00  0.00     0.214 C 
ATOM     14  O7  NGA d   1      45.178  -1.663  19.962  0.00  0.00    -0.274 OA
ATOM     15  H11 NGA d   1      46.372  -1.312  22.852  0.00  0.00     0.163 HD
BRANCH  13  16
ATOM     16  C8  NGA d   1      45.080   0.287  21.351  0.00  0.00    -0.003 C 
ATOM     17  H8  NGA d   1      44.532   0.705  20.494  0.00  0.00     0.040 H 
ATOM     18  H9  NGA d   1      45.981   0.890  21.539  0.00  0.00     0.040 H 
ATOM     19  H10 NGA d   1      44.435   0.304  22.242  0.00  0.00     0.040 H 
ENDBRANCH  13  16
ENDBRANCH   2  12
BRANCH   1  20
ATOM     20  O1  NGA d   1      48.091  -2.560  20.040  0.00  0.00    -0.369 OA
ATOM     21  H12 NGA d   1      47.530  -3.028  19.433  0.00  0.00     0.212 HD
ENDBRANCH   1  20
BRANCH   3  22
ATOM     22  O3  NGA d   1      45.202  -4.018  23.614  0.00  0.00    -0.391 OA
ATOM     23  H13 NGA d   1      45.187  -4.484  24.442  0.00  0.00     0.210 HD
ENDBRANCH   3  22
BRANCH   4  24
ATOM     24  O4  NGA d   1      46.306  -6.107  22.181  0.00  0.00    -0.390 OA
ATOM     25  H14 NGA d   1      46.684  -6.974  22.092  0.00  0.00     0.210 HD
ENDBRANCH   4  24
BRANCH   5  26
ATOM     26  C6  NGA d   1      49.181  -6.567  22.133  0.00  0.00     0.043 C 
ATOM     27  H6  NGA d   1      48.882  -6.919  21.135  0.00  0.00     0.078 H 
ATOM     28  H7  NGA d   1      48.832  -7.281  22.893  0.00  0.00     0.078 H 
BRANCH  26  29
ATOM     29  O6  NGA d   1      50.599  -6.483  22.191  0.00  0.00    -0.398 OA
ATOM     30  H15 NGA d   1      50.862  -6.183  23.053  0.00  0.00     0.209 HD
ENDBRANCH  26  29
ENDBRANCH   5  26
TORSDOF 7
