REMARK  14 active torsions:
REMARK  status: ('A' for Active; 'I' for Inactive)
REMARK    1  A    between atoms: C3_3  and  C7_4 
REMARK    2  A    between atoms: C9_6  and  C13_10 
REMARK    3  A    between atoms: C13_10  and  C14_11 
REMARK    4  A    between atoms: C13_10  and  C16_12 
REMARK       I    between atoms: C14_11  and  N29_15 
REMARK    5  A    between atoms: C16_12  and  C17_23 
REMARK    6  A    between atoms: C17_23  and  C20_13 
REMARK    7  A    between atoms: C17_23  and  C24_14 
REMARK    8  A    between atoms: N29_15  and  C30_16 
REMARK    9  A    between atoms: C30_16  and  C31_17 
REMARK   10  A    between atoms: C31_17  and  C35_18 
REMARK   11  A    between atoms: C31_17  and  O34_24 
REMARK   12  A    between atoms: C35_18  and  N36_25 
REMARK   13  A    between atoms: N36_25  and  S39_26 
REMARK   14  A    between atoms: S39_26  and  C42_29 
ROOT
ATOM      1  C13 I10 d   1      37.126  15.944  -9.057  0.00  0.00     0.049 C 
ATOM      2  H7  I10 d   1      37.780  15.079  -8.872  0.00  0.00     0.062 H 
ENDROOT
BRANCH   1   3
ATOM      3  C9  I10 d   1      37.775  16.820 -10.153  0.00  0.00    -0.044 A 
ATOM      4  C8  I10 d   1      37.369  18.198 -10.231  0.00  0.00    -0.065 A 
ATOM      5  C7  I10 d   1      37.729  19.056 -11.289  0.00  0.00    -0.025 A 
ATOM      6  H3  I10 d   1      36.753  18.598  -9.433  0.00  0.00     0.085 H 
ATOM      7  C12 I10 d   1      38.520  18.526 -12.273  0.00  0.00    -0.072 A 
ATOM      8  C11 I10 d   1      38.966  17.172 -12.265  0.00  0.00    -0.082 A 
ATOM      9  H6  I10 d   1      38.821  19.165 -13.095  0.00  0.00     0.084 H 
ATOM     10  C10 I10 d   1      38.594  16.302 -11.207  0.00  0.00    -0.076 A 
ATOM     11  H5  I10 d   1      39.592  16.805 -13.070  0.00  0.00     0.083 H 
ATOM     12  H4  I10 d   1      38.922  15.269 -11.197  0.00  0.00     0.084 H 
BRANCH   5  13
ATOM     13  C3  I10 d   1      37.219  20.436 -11.471  0.00  0.00    -0.026 A 
ATOM     14  C2  I10 d   1      37.009  21.251 -10.449  0.00  0.00    -0.072 A 
ATOM     15  C1  I10 d   1      36.506  22.516 -10.583  0.00  0.00    -0.082 A 
ATOM     16  H2  I10 d   1      37.248  20.897  -9.453  0.00  0.00     0.084 H 
ATOM     17  C6  I10 d   1      36.192  23.006 -11.791  0.00  0.00    -0.083 A 
ATOM     18  H1  I10 d   1      36.359  23.130  -9.702  0.00  0.00     0.083 H 
ATOM     19  C5  I10 d   1      36.396  22.200 -12.859  0.00  0.00    -0.082 A 
ATOM     20  H24 I10 d   1      35.791  24.006 -11.907  0.00  0.00     0.083 H 
ATOM     21  C4  I10 d   1      36.907  20.929 -12.703  0.00  0.00    -0.072 A 
ATOM     22  H23 I10 d   1      36.154  22.559 -13.853  0.00  0.00     0.083 H 
ATOM     23  H22 I10 d   1      37.064  20.309 -13.578  0.00  0.00     0.084 H 
ENDBRANCH   5  13
ENDBRANCH   1   3
BRANCH   1  24
ATOM     24  C14 I10 d   1      35.708  15.425  -9.576  0.00  0.00     0.226 C 
ATOM     25  N29 I10 d   1      35.657  14.121 -10.038  0.00  0.00    -0.358 N 
ATOM     26  H16 I10 d   1      36.509  13.597 -10.017  0.00  0.00     0.162 HD
ATOM     27  O15 I10 d   1      34.753  16.176  -9.548  0.00  0.00    -0.273 OA
BRANCH  25  28
ATOM     28  C30 I10 d   1      34.446  13.427 -10.564  0.00  0.00     0.021 C 
ATOM     29  H17 I10 d   1      34.654  13.040 -11.572  0.00  0.00     0.068 H 
ATOM     30  H18 I10 d   1      33.607  14.137 -10.609  0.00  0.00     0.068 H 
BRANCH  28  31
ATOM     31  C31 I10 d   1      34.081  12.258  -9.630  0.00  0.00     0.066 C 
ATOM     32  H19 I10 d   1      33.733  12.697  -8.684  0.00  0.00     0.088 H 
BRANCH  31  33
ATOM     33  C35 I10 d   1      35.264  11.326  -9.313  0.00  0.00     0.028 C 
ATOM     34  H20 I10 d   1      35.929  11.855  -8.615  0.00  0.00     0.069 H 
ATOM     35  H21 I10 d   1      35.799  11.132 -10.254  0.00  0.00     0.069 H 
BRANCH  33  36
ATOM     36  N36 I10 d   1      34.932  10.041  -8.720  0.00  0.00    -0.312 N 
ATOM     37  H27 I10 d   1      34.500  10.031  -7.818  0.00  0.00     0.172 HD
BRANCH  36  38
ATOM     38  S39 I10 d   1      35.253   8.501  -9.510  0.00  0.00     0.276 S 
ATOM     39  O40 I10 d   1      35.074   8.764 -10.933  0.00  0.00    -0.199 OA
ATOM     40  O41 I10 d   1      34.411   7.557  -8.892  0.00  0.00    -0.199 OA
BRANCH  38  41
ATOM     41  C42 I10 d   1      36.813   8.133  -9.171  0.00  0.00     0.171 A 
ATOM     42  N43 I10 d   1      37.073   7.364  -8.145  0.00  0.00    -0.248 NA
ATOM     43  C44 I10 d   1      38.365   7.121  -7.818  0.00  0.00     0.004 A 
ATOM     44  C45 I10 d   1      39.428   7.686  -8.583  0.00  0.00    -0.066 A 
ATOM     45  H28 I10 d   1      38.593   6.491  -6.966  0.00  0.00     0.114 H 
ATOM     46  C46 I10 d   1      39.054   8.517  -9.691  0.00  0.00    -0.079 A 
ATOM     47  H29 I10 d   1      40.467   7.497  -8.339  0.00  0.00     0.085 H 
ATOM     48  C47 I10 d   1      37.703   8.726  -9.971  0.00  0.00    -0.042 A 
ATOM     49  H30 I10 d   1      39.816   8.980 -10.307  0.00  0.00     0.083 H 
ATOM     50  H31 I10 d   1      37.389   9.345 -10.804  0.00  0.00     0.088 H 
ENDBRANCH  38  41
ENDBRANCH  36  38
ENDBRANCH  33  36
ENDBRANCH  31  33
BRANCH  31  51
ATOM     51  O34 I10 d   1      33.063  11.480 -10.148  0.00  0.00    -0.392 OA
ATOM     52  H26 I10 d   1      32.317  12.032 -10.353  0.00  0.00     0.210 HD
ENDBRANCH  31  51
ENDBRANCH  28  31
ENDBRANCH  25  28
ENDBRANCH   1  24
BRANCH   1  53
ATOM     53  C16 I10 d   1      36.927  16.722  -7.686  0.00  0.00    -0.047 C 
ATOM     54  H8  I10 d   1      36.256  17.564  -7.912  0.00  0.00     0.035 H 
ATOM     55  H9  I10 d   1      37.920  17.108  -7.412  0.00  0.00     0.035 H 
BRANCH  53  56
ATOM     56  C17 I10 d   1      36.353  16.050  -6.388  0.00  0.00    -0.060 C 
ATOM     57  H25 I10 d   1      35.368  15.644  -6.660  0.00  0.00     0.038 H 
BRANCH  56  58
ATOM     58  C20 I10 d   1      36.172  17.010  -5.192  0.00  0.00    -0.073 C 
ATOM     59  H10 I10 d   1      35.768  16.454  -4.333  0.00  0.00     0.028 H 
ATOM     60  H11 I10 d   1      35.474  17.814  -5.469  0.00  0.00     0.028 H 
ATOM     61  H12 I10 d   1      37.145  17.446  -4.921  0.00  0.00     0.028 H 
ENDBRANCH  56  58
BRANCH  56  62
ATOM     62  C24 I10 d   1      37.212  14.903  -5.819  0.00  0.00    -0.073 C 
ATOM     63  H13 I10 d   1      37.398  14.158  -6.607  0.00  0.00     0.028 H 
ATOM     64  H14 I10 d   1      36.680  14.427  -4.982  0.00  0.00     0.028 H 
ATOM     65  H15 I10 d   1      38.171  15.306  -5.462  0.00  0.00     0.028 H 
ENDBRANCH  56  62
ENDBRANCH  53  56
ENDBRANCH   1  53
TORSDOF 14
