REMARK  24 active torsions:
REMARK  status: ('A' for Active; 'I' for Inactive)
REMARK    1  A    between atoms: N_5  and  C1_1 
REMARK    2  A    between atoms: N_5  and  C2_2 
REMARK       I    between atoms: C_3  and  N_5 
REMARK    3  A    between atoms: CA_9  and  C_3 
REMARK    4  A    between atoms: N_6  and  CB_10 
REMARK    5  A    between atoms: N_6  and  CA_9 
REMARK       I    between atoms: C_7  and  N_6 
REMARK    6  A    between atoms: CN_21  and  C_7 
REMARK    7  A    between atoms: CB_10  and  CG_12 
REMARK    8  A    between atoms: CB_10  and  CG2_11 
REMARK    9  A    between atoms: C_18  and  CA_20 
REMARK       I    between atoms: N2_38  and  C_18 
REMARK   10  A    between atoms: CA_20  and  CB_22 
REMARK   11  A    between atoms: CA_20  and  CN_21 
REMARK   12  A    between atoms: CB_22  and  CG_23 
REMARK   13  A    between atoms: CE1_26  and  NZ_28 
REMARK   14  A    between atoms: C1_29  and  O1_39 
REMARK   15  A    between atoms: C2_30  and  C1_29 
REMARK   16  A    between atoms: C1_29  and  C1_40 
REMARK   17  A    between atoms: N2_38  and  C2_30 
REMARK   18  A    between atoms: C2_30  and  C3_31 
REMARK   19  A    between atoms: C3_31  and  C1'_32 
REMARK   20  A    between atoms: C1_40  and  O1_45 
REMARK   21  A    between atoms: C1_40  and  C2_41 
REMARK   22  A    between atoms: C2_41  and  C3_42 
REMARK   23  A    between atoms: C3_42  and  C5_44 
REMARK   24  A    between atoms: C3_42  and  C4_43 
ROOT
ATOM      1  CA  0IU d   1      37.422  61.633  44.290  0.00  0.00     0.037 C 
ATOM      2  H18 0IU d   1      37.123  62.543  44.831  0.00  0.00     0.055 H 
ENDROOT
BRANCH   1   3
ATOM      3  C   0IU d   1      36.292  61.031  43.510  0.00  0.00     0.223 C 
ATOM      4  O   0IU d   1      36.572  60.174  42.658  0.00  0.00    -0.273 OA
ATOM      5  N2  0IU d   1      35.008  61.293  43.913  0.00  0.00    -0.354 N 
ATOM      6  H41 0IU d   1      34.844  61.967  44.633  0.00  0.00     0.163 HD
BRANCH   5   7
ATOM      7  C2  0IU d   1      33.872  60.595  43.299  0.00  0.00     0.040 C 
ATOM      8  H27 0IU d   1      34.277  59.848  42.600  0.00  0.00     0.076 H 
BRANCH   7   9
ATOM      9  C1  0IU d   1      32.937  61.541  42.501  0.00  0.00     0.080 C 
ATOM     10  H26 0IU d   1      31.947  61.069  42.421  0.00  0.00     0.090 H 
BRANCH   9  11
ATOM     11  O1  0IU d   1      32.798  62.806  43.146  0.00  0.00    -0.391 OA
ATOM     12  H42 0IU d   1      32.430  62.680  44.013  0.00  0.00     0.210 HD
ENDBRANCH   9  11
BRANCH   9  13
ATOM     13  C1  0IU d   1      33.500  61.780  41.091  0.00  0.00     0.062 C 
ATOM     14  H43 0IU d   1      34.519  62.193  41.135  0.00  0.00     0.086 H 
BRANCH  13  15
ATOM     15  O1  0IU d   1      33.494  60.519  40.448  0.00  0.00    -0.393 OA
ATOM     16  H53 0IU d   1      32.612  60.167  40.452  0.00  0.00     0.210 HD
ENDBRANCH  13  15
BRANCH  13  17
ATOM     17  C2  0IU d   1      32.546  62.762  40.335  0.00  0.00    -0.036 C 
ATOM     18  H44 0IU d   1      32.410  63.674  40.934  0.00  0.00     0.037 H 
ATOM     19  H45 0IU d   1      31.571  62.277  40.178  0.00  0.00     0.037 H 
BRANCH  17  20
ATOM     20  C3  0IU d   1      33.165  63.133  38.964  0.00  0.00    -0.059 C 
ATOM     21  H46 0IU d   1      33.616  62.228  38.532  0.00  0.00     0.039 H 
BRANCH  20  22
ATOM     22  C5  0IU d   1      34.266  64.180  39.179  0.00  0.00    -0.073 C 
ATOM     23  H50 0IU d   1      35.010  63.789  39.889  0.00  0.00     0.028 H 
ATOM     24  H51 0IU d   1      33.822  65.101  39.584  0.00  0.00     0.028 H 
ATOM     25  H52 0IU d   1      34.755  64.400  38.219  0.00  0.00     0.028 H 
ENDBRANCH  20  22
BRANCH  20  26
ATOM     26  C4  0IU d   1      32.124  63.660  37.981  0.00  0.00    -0.073 C 
ATOM     27  H47 0IU d   1      32.613  63.908  37.027  0.00  0.00     0.028 H 
ATOM     28  H48 0IU d   1      31.651  64.562  38.396  0.00  0.00     0.028 H 
ATOM     29  H49 0IU d   1      31.357  62.890  37.811  0.00  0.00     0.028 H 
ENDBRANCH  20  26
ENDBRANCH  17  20
ENDBRANCH  13  17
ENDBRANCH   9  13
ENDBRANCH   7   9
BRANCH   7  30
ATOM     30  C3  0IU d   1      33.027  59.849  44.392  0.00  0.00    -0.040 C 
ATOM     31  H28 0IU d   1      32.418  59.081  43.893  0.00  0.00     0.036 H 
ATOM     32  H29 0IU d   1      32.366  60.582  44.877  0.00  0.00     0.036 H 
BRANCH  30  33
ATOM     33  C1' 0IU d   1      33.877  59.158  45.491  0.00  0.00    -0.052 C 
ATOM     34  C6' 0IU d   1      34.353  57.827  44.914  0.00  0.00    -0.062 C 
ATOM     35  C5' 0IU d   1      35.168  56.992  45.941  0.00  0.00    -0.065 C 
ATOM     36  H39 0IU d   1      34.989  58.029  44.039  0.00  0.00     0.033 H 
ATOM     37  H40 0IU d   1      33.474  57.243  44.602  0.00  0.00     0.033 H 
ATOM     38  C4' 0IU d   1      34.199  56.628  47.089  0.00  0.00    -0.065 C 
ATOM     39  H37 0IU d   1      35.553  56.078  45.466  0.00  0.00     0.033 H 
ATOM     40  H38 0IU d   1      36.009  57.585  46.329  0.00  0.00     0.033 H 
ATOM     41  C3' 0IU d   1      33.807  57.975  47.763  0.00  0.00    -0.065 C 
ATOM     42  H35 0IU d   1      33.305  56.126  46.690  0.00  0.00     0.033 H 
ATOM     43  H36 0IU d   1      34.697  55.968  47.815  0.00  0.00     0.033 H 
ATOM     44  C2' 0IU d   1      32.994  58.839  46.746  0.00  0.00    -0.062 C 
ATOM     45  H33 0IU d   1      33.191  57.776  48.652  0.00  0.00     0.033 H 
ATOM     46  H34 0IU d   1      34.717  58.516  48.061  0.00  0.00     0.033 H 
ATOM     47  H31 0IU d   1      32.098  58.284  46.430  0.00  0.00     0.033 H 
ATOM     48  H32 0IU d   1      32.691  59.780  47.228  0.00  0.00     0.033 H 
ATOM     49  H30 0IU d   1      34.729  59.793  45.774  0.00  0.00     0.040 H 
ENDBRANCH  30  33
ENDBRANCH   7  30
ENDBRANCH   5   7
ENDBRANCH   1   3
BRANCH   1  50
ATOM     50  CB  0IU d   1      38.611  61.911  43.353  0.00  0.00    -0.012 C 
ATOM     51  H21 0IU d   1      38.638  61.156  42.554  0.00  0.00     0.043 H 
ATOM     52  H22 0IU d   1      39.550  61.875  43.924  0.00  0.00     0.043 H 
BRANCH  50  53
ATOM     53  CG  0IU d   1      38.433  63.288  42.749  0.00  0.00     0.044 A 
ATOM     54  ND1 0IU d   1      38.764  64.418  43.359  0.00  0.00    -0.229 NA
ATOM     55  CE1 0IU d   1      38.427  65.448  42.697  0.00  0.00     0.164 A 
ATOM     56  SE2 0IU d   1      37.620  65.132  41.186  0.00  0.00    -0.062 SA
ATOM     57  CD2 0IU d   1      37.831  63.424  41.591  0.00  0.00    -0.018 A 
ATOM     58  H23 0IU d   1      37.505  62.596  40.964  0.00  0.00     0.098 H 
BRANCH  55  59
ATOM     59  NZ  0IU d   1      38.672  66.681  43.037  0.00  0.00    -0.378 N 
ATOM     60  H24 0IU d   1      39.148  66.885  43.927  0.00  0.00     0.158 HD
ATOM     61  H25 0IU d   1      38.389  67.452  42.416  0.00  0.00     0.158 HD
ENDBRANCH  55  59
ENDBRANCH  50  53
ENDBRANCH   1  50
BRANCH   1  62
ATOM     62  CN  0IU d   1      37.798  60.468  45.239  0.00  0.00     0.021 C 
ATOM     63  H19 0IU d   1      38.235  59.652  44.645  0.00  0.00     0.048 H 
ATOM     64  H20 0IU d   1      36.887  60.109  45.741  0.00  0.00     0.048 H 
BRANCH  62  65
ATOM     65  C   0IU d   1      38.802  60.902  46.293  0.00  0.00     0.221 C 
ATOM     66  N   0IU d   1      39.596  60.025  46.863  0.00  0.00    -0.335 N 
ATOM     67  O   0IU d   1      38.948  62.046  46.614  0.00  0.00    -0.273 OA
BRANCH  66  68
ATOM     68  CB  0IU d   1      39.596  58.635  46.444  0.00  0.00     0.037 C 
ATOM     69  H9  0IU d   1      38.882  58.452  45.627  0.00  0.00     0.080 H 
BRANCH  68  70
ATOM     70  CG  0IU d   1      39.275  57.762  47.673  0.00  0.00    -0.036 A 
ATOM     71  CD2 0IU d   1      38.276  58.074  48.446  0.00  0.00    -0.075 A 
ATOM     72  CE2 0IU d   1      38.032  57.356  49.544  0.00  0.00    -0.082 A 
ATOM     73  H14 0IU d   1      37.642  58.917  48.198  0.00  0.00     0.084 H 
ATOM     74  CZ  0IU d   1      38.789  56.320  49.862  0.00  0.00    -0.083 A 
ATOM     75  H16 0IU d   1      37.200  57.626  50.185  0.00  0.00     0.083 H 
ATOM     76  CE1 0IU d   1      39.817  56.027  49.096  0.00  0.00    -0.082 A 
ATOM     77  H17 0IU d   1      38.566  55.723  50.739  0.00  0.00     0.083 H 
ATOM     78  CD1 0IU d   1      40.046  56.735  47.983  0.00  0.00    -0.075 A 
ATOM     79  H15 0IU d   1      40.479  55.212  49.366  0.00  0.00     0.083 H 
ATOM     80  H13 0IU d   1      40.869  56.464  47.332  0.00  0.00     0.084 H 
ENDBRANCH  68  70
BRANCH  68  81
ATOM     81  CG2 0IU d   1      41.071  58.344  46.007  0.00  0.00    -0.053 C 
ATOM     82  H10 0IU d   1      41.155  57.300  45.672  0.00  0.00     0.030 H 
ATOM     83  H11 0IU d   1      41.746  58.511  46.859  0.00  0.00     0.030 H 
ATOM     84  H12 0IU d   1      41.349  59.017  45.182  0.00  0.00     0.030 H 
ENDBRANCH  68  81
ENDBRANCH  66  68
BRANCH  66  85
ATOM     85  CA  0IU d   1      40.516  60.493  47.905  0.00  0.00     0.072 C 
ATOM     86  H7  0IU d   1      40.946  59.622  48.421  0.00  0.00     0.079 H 
ATOM     87  H8  0IU d   1      39.958  61.108  48.627  0.00  0.00     0.079 H 
BRANCH  85  88
ATOM     88  C   0IU d   1      41.635  61.319  47.317  0.00  0.00     0.237 C 
ATOM     89  N   0IU d   1      42.686  61.660  48.105  0.00  0.00    -0.359 N 
ATOM     90  O   0IU d   1      41.601  61.628  46.174  0.00  0.00    -0.272 OA
BRANCH  89  91
ATOM     91  C1  0IU d   1      42.678  61.326  49.540  0.00  0.00    -0.017 C 
ATOM     92  H1  0IU d   1      43.609  61.682  50.005  0.00  0.00     0.056 H 
ATOM     93  H2  0IU d   1      42.601  60.236  49.662  0.00  0.00     0.056 H 
ATOM     94  H3  0IU d   1      41.818  61.811  50.025  0.00  0.00     0.056 H 
ENDBRANCH  89  91
BRANCH  89  95
ATOM     95  C2  0IU d   1      43.800  62.405  47.552  0.00  0.00    -0.017 C 
ATOM     96  H4  0IU d   1      43.638  62.562  46.475  0.00  0.00     0.056 H 
ATOM     97  H5  0IU d   1      44.731  61.839  47.704  0.00  0.00     0.056 H 
ATOM     98  H6  0IU d   1      43.877  63.379  48.057  0.00  0.00     0.056 H 
ENDBRANCH  89  95
ENDBRANCH  85  88
ENDBRANCH  66  85
ENDBRANCH  62  65
ENDBRANCH   1  62
TORSDOF 24
