REMARK  19 active torsions:
REMARK  status: ('A' for Active; 'I' for Inactive)
REMARK       I    between atoms: C_2  and  N_1 
REMARK    1  A    between atoms: N_1  and  CA_4 
REMARK    2  A    between atoms: N_1  and  CB_5 
REMARK    3  A    between atoms: CN_16  and  C_2 
REMARK    4  A    between atoms: CB_5  and  CG2_6 
REMARK    5  A    between atoms: CB_5  and  CG_7 
REMARK    6  A    between atoms: C_13  and  CA_15 
REMARK       I    between atoms: N2_33  and  C_13 
REMARK    7  A    between atoms: CA_15  and  CN_16 
REMARK    8  A    between atoms: CA_15  and  CB_17 
REMARK    9  A    between atoms: CB_17  and  CG_18 
REMARK   10  A    between atoms: CE1_21  and  NZ_23 
REMARK   11  A    between atoms: C1_24  and  C2_25 
REMARK   12  A    between atoms: C1_24  and  O1_34 
REMARK   13  A    between atoms: C3_38  and  C1_24 
REMARK   14  A    between atoms: C2_25  and  C3_26 
REMARK   15  A    between atoms: C2_25  and  N2_33 
REMARK   16  A    between atoms: C3_26  and  C1'_27 
REMARK   17  A    between atoms: N1_35  and  CM1_41 
REMARK   18  A    between atoms: C5_40  and  CM2_42 
REMARK   19  A    between atoms: C5_40  and  CM3_43 
ROOT
ATOM      1  C2  0QB d   1      33.670  60.662  42.743  0.00  0.00     0.038 C 
ATOM      2  H22 0QB d   1      34.064  59.901  42.054  0.00  0.00     0.076 H 
ENDROOT
BRANCH   1   3
ATOM      3  C1  0QB d   1      32.830  61.701  41.925  0.00  0.00     0.067 C 
ATOM      4  H21 0QB d   1      31.873  61.249  41.626  0.00  0.00     0.087 H 
BRANCH   3   5
ATOM      5  O1  0QB d   1      32.586  62.826  42.779  0.00  0.00    -0.393 OA
ATOM      6  H37 0QB d   1      32.105  62.541  43.547  0.00  0.00     0.210 HD
ENDBRANCH   3   5
BRANCH   3   7
ATOM      7  C3  0QB d   1      33.608  62.148  40.641  0.00  0.00     0.052 A 
ATOM      8  C2  0QB d   1      33.230  61.347  39.403  0.00  0.00     0.227 A 
ATOM      9  N1  0QB d   1      32.892  62.141  38.347  0.00  0.00    -0.347 N 
ATOM     10  O2  0QB d   1      33.356  60.074  39.326  0.00  0.00    -0.273 OA
ATOM     11  C5  0QB d   1      32.810  63.525  38.660  0.00  0.00     0.028 A 
ATOM     12  C4  0QB d   1      33.288  63.617  40.162  0.00  0.00    -0.028 A 
ATOM     13  H39 0QB d   1      34.191  64.241  40.233  0.00  0.00     0.038 H 
ATOM     14  H40 0QB d   1      32.492  64.052  40.785  0.00  0.00     0.038 H 
ATOM     15  H38 0QB d   1      34.683  62.045  40.849  0.00  0.00     0.058 H 
BRANCH   9  16
ATOM     16  CM1 0QB d   1      32.477  61.636  37.081  0.00  0.00    -0.015 C 
ATOM     17  H41 0QB d   1      32.626  60.547  37.054  0.00  0.00     0.056 H 
ATOM     18  H42 0QB d   1      33.072  62.107  36.285  0.00  0.00     0.056 H 
ATOM     19  H43 0QB d   1      31.412  61.864  36.926  0.00  0.00     0.056 H 
ENDBRANCH   9  16
BRANCH  11  20
ATOM     20  CM2 0QB d   1      31.300  63.877  38.460  0.00  0.00    -0.053 C 
ATOM     21  H44 0QB d   1      31.139  64.942  38.683  0.00  0.00     0.030 H 
ATOM     22  H45 0QB d   1      30.688  63.264  39.138  0.00  0.00     0.030 H 
ATOM     23  H46 0QB d   1      31.011  63.672  37.419  0.00  0.00     0.030 H 
ENDBRANCH  11  20
BRANCH  11  24
ATOM     24  CM3 0QB d   1      33.698  64.436  37.751  0.00  0.00    -0.053 C 
ATOM     25  H47 0QB d   1      33.579  65.486  38.056  0.00  0.00     0.030 H 
ATOM     26  H48 0QB d   1      33.387  64.321  36.702  0.00  0.00     0.030 H 
ATOM     27  H49 0QB d   1      34.753  64.141  37.855  0.00  0.00     0.030 H 
ENDBRANCH  11  24
ENDBRANCH   3   7
ENDBRANCH   1   3
BRANCH   1  28
ATOM     28  C3  0QB d   1      32.734  59.984  43.803  0.00  0.00    -0.040 C 
ATOM     29  H23 0QB d   1      32.032  59.312  43.288  0.00  0.00     0.036 H 
ATOM     30  H24 0QB d   1      32.171  60.763  44.338  0.00  0.00     0.036 H 
BRANCH  28  31
ATOM     31  C1' 0QB d   1      33.563  59.169  44.819  0.00  0.00    -0.052 C 
ATOM     32  C2' 0QB d   1      32.962  59.269  46.258  0.00  0.00    -0.062 C 
ATOM     33  C3' 0QB d   1      33.715  58.351  47.264  0.00  0.00    -0.065 C 
ATOM     34  H26 0QB d   1      31.905  58.968  46.224  0.00  0.00     0.033 H 
ATOM     35  H27 0QB d   1      33.036  60.311  46.603  0.00  0.00     0.033 H 
ATOM     36  C4' 0QB d   1      33.675  56.885  46.778  0.00  0.00    -0.065 C 
ATOM     37  H28 0QB d   1      33.233  58.420  48.251  0.00  0.00     0.033 H 
ATOM     38  H29 0QB d   1      34.762  58.679  47.343  0.00  0.00     0.033 H 
ATOM     39  C5' 0QB d   1      34.287  56.790  45.344  0.00  0.00    -0.065 C 
ATOM     40  H30 0QB d   1      32.632  56.536  46.755  0.00  0.00     0.033 H 
ATOM     41  H31 0QB d   1      34.257  56.255  47.467  0.00  0.00     0.033 H 
ATOM     42  C6' 0QB d   1      33.514  57.703  44.348  0.00  0.00    -0.062 C 
ATOM     43  H32 0QB d   1      34.229  55.748  44.996  0.00  0.00     0.033 H 
ATOM     44  H33 0QB d   1      35.340  57.107  45.380  0.00  0.00     0.033 H 
ATOM     45  H34 0QB d   1      33.975  57.626  43.352  0.00  0.00     0.033 H 
ATOM     46  H35 0QB d   1      32.466  57.374  44.293  0.00  0.00     0.033 H 
ATOM     47  H25 0QB d   1      34.601  59.532  44.832  0.00  0.00     0.040 H 
ENDBRANCH  28  31
ENDBRANCH   1  28
BRANCH   1  48
ATOM     48  N2  0QB d   1      34.812  61.298  43.470  0.00  0.00    -0.354 N 
ATOM     49  C   0QB d   1      36.127  60.935  43.248  0.00  0.00     0.223 C 
ATOM     50  O   0QB d   1      36.423  60.065  42.483  0.00  0.00    -0.273 OA
ATOM     51  H36 0QB d   1      34.617  62.013  44.142  0.00  0.00     0.163 HD
BRANCH  49  52
ATOM     52  CA  0QB d   1      37.282  61.524  44.039  0.00  0.00     0.037 C 
ATOM     53  H13 0QB d   1      37.012  62.451  44.566  0.00  0.00     0.055 H 
BRANCH  52  54
ATOM     54  CN  0QB d   1      37.676  60.391  44.998  0.00  0.00     0.021 C 
ATOM     55  H14 0QB d   1      36.773  59.985  45.477  0.00  0.00     0.048 H 
ATOM     56  H15 0QB d   1      38.183  59.593  44.436  0.00  0.00     0.048 H 
BRANCH  54  57
ATOM     57  C   0QB d   1      38.611  60.936  46.059  0.00  0.00     0.220 C 
ATOM     58  N   0QB d   1      39.592  60.122  46.497  0.00  0.00    -0.348 N 
ATOM     59  O   0QB d   1      38.480  62.060  46.460  0.00  0.00    -0.273 OA
BRANCH  58  60
ATOM     60  CA  0QB d   1      40.493  60.557  47.568  0.00  0.00    -0.015 C 
ATOM     61  H1  0QB d   1      40.314  61.620  47.789  0.00  0.00     0.056 H 
ATOM     62  H2  0QB d   1      41.536  60.420  47.248  0.00  0.00     0.056 H 
ATOM     63  H3  0QB d   1      40.305  59.958  48.471  0.00  0.00     0.056 H 
ENDBRANCH  58  60
BRANCH  58  64
ATOM     64  CB  0QB d   1      39.615  58.762  46.007  0.00  0.00     0.036 C 
ATOM     65  H4  0QB d   1      38.900  58.637  45.181  0.00  0.00     0.080 H 
BRANCH  64  66
ATOM     66  CG2 0QB d   1      41.030  58.541  45.473  0.00  0.00    -0.053 C 
ATOM     67  H5  0QB d   1      41.118  57.517  45.081  0.00  0.00     0.030 H 
ATOM     68  H6  0QB d   1      41.756  58.686  46.287  0.00  0.00     0.030 H 
ATOM     69  H7  0QB d   1      41.234  59.261  44.667  0.00  0.00     0.030 H 
ENDBRANCH  64  66
BRANCH  64  70
ATOM     70  CG  0QB d   1      39.183  57.839  47.173  0.00  0.00    -0.036 A 
ATOM     71  CD1 0QB d   1      39.993  56.862  47.597  0.00  0.00    -0.075 A 
ATOM     72  CE1 0QB d   1      39.628  56.088  48.633  0.00  0.00    -0.082 A 
ATOM     73  H8  0QB d   1      40.944  56.695  47.105  0.00  0.00     0.084 H 
ATOM     74  CZ  0QB d   1      38.448  56.273  49.235  0.00  0.00    -0.083 A 
ATOM     75  H10 0QB d   1      40.294  55.308  48.983  0.00  0.00     0.083 H 
ATOM     76  CE2 0QB d   1      37.650  57.246  48.820  0.00  0.00    -0.082 A 
ATOM     77  H12 0QB d   1      38.147  55.632  50.056  0.00  0.00     0.083 H 
ATOM     78  CD2 0QB d   1      38.019  58.038  47.801  0.00  0.00    -0.075 A 
ATOM     79  H11 0QB d   1      36.694  57.403  49.306  0.00  0.00     0.083 H 
ATOM     80  H9  0QB d   1      37.368  58.845  47.485  0.00  0.00     0.084 H 
ENDBRANCH  64  70
ENDBRANCH  58  64
ENDBRANCH  54  57
ENDBRANCH  52  54
BRANCH  52  81
ATOM     81  CB  0QB d   1      38.444  61.743  43.045  0.00  0.00    -0.012 C 
ATOM     82  H16 0QB d   1      38.424  60.961  42.272  0.00  0.00     0.043 H 
ATOM     83  H17 0QB d   1      39.404  61.704  43.581  0.00  0.00     0.043 H 
BRANCH  81  84
ATOM     84  CG  0QB d   1      38.271  63.129  42.388  0.00  0.00     0.044 A 
ATOM     85  CD2 0QB d   1      37.813  63.257  41.144  0.00  0.00    -0.018 A 
ATOM     86  SE2 0QB d   1      37.675  64.994  40.712  0.00  0.00    -0.062 SA
ATOM     87  H18 0QB d   1      37.559  62.428  40.485  0.00  0.00     0.098 H 
ATOM     88  CE1 0QB d   1      38.267  65.329  42.337  0.00  0.00     0.164 A 
ATOM     89  ND1 0QB d   1      38.512  64.289  43.047  0.00  0.00    -0.229 NA
BRANCH  88  90
ATOM     90  NZ  0QB d   1      38.381  66.561  42.725  0.00  0.00    -0.378 N 
ATOM     91  H19 0QB d   1      38.726  66.773  43.672  0.00  0.00     0.158 HD
ATOM     92  H20 0QB d   1      38.127  67.328  42.086  0.00  0.00     0.158 HD
ENDBRANCH  88  90
ENDBRANCH  81  84
ENDBRANCH  52  81
ENDBRANCH  49  52
ENDBRANCH   1  48
TORSDOF 19
