REMARK  3 active torsions:
REMARK  status: ('A' for Active; 'I' for Inactive)
REMARK    1  A    between atoms: C4_1  and  C12_8 
REMARK    2  A    between atoms: C3_2  and  N11_7 
REMARK    3  A    between atoms: C12_8  and  O1_9 
ROOT
ATOM      1  C4  SOA d   1       5.796   6.164   1.376  0.00  0.00    -0.009 A 
ATOM      2  C3  SOA d   1       4.931   7.292   1.311  0.00  0.00     0.034 A 
ATOM      3  C2  SOA d   1       3.538   7.132   1.537  0.00  0.00    -0.057 A 
ATOM      4  C1  SOA d   1       3.004   5.850   1.822  0.00  0.00    -0.081 A 
ATOM      5  C5  SOA d   1       5.252   4.881   1.671  0.00  0.00    -0.073 A 
ATOM      6  C6  SOA d   1       3.854   4.727   1.888  0.00  0.00    -0.082 A 
ATOM      7  H1  SOA d   1       2.881   7.993   1.491  0.00  0.00     0.086 H 
ATOM      8  H2  SOA d   1       1.940   5.733   1.990  0.00  0.00     0.083 H 
ATOM      9  H3  SOA d   1       5.906   4.018   1.730  0.00  0.00     0.084 H 
ATOM     10  H4  SOA d   1       3.443   3.747   2.104  0.00  0.00     0.083 H 
ENDROOT
BRANCH   1  11
ATOM     11  C12 SOA d   1       7.332   6.312   1.145  0.00  0.00     0.043 C 
ATOM     12  H7  SOA d   1       7.574   5.586   0.355  0.00  0.00     0.081 H 
ATOM     13  H8  SOA d   1       7.795   5.994   2.090  0.00  0.00     0.081 H 
BRANCH  11  14
ATOM     14  O1  SOA d   1       8.020   7.499   0.778  0.00  0.00    -0.396 OA
ATOM     15  H9  SOA d   1       7.881   8.163   1.443  0.00  0.00     0.209 HD
ENDBRANCH  11  14
ENDBRANCH   1  11
BRANCH   2  16
ATOM     16  N11 SOA d   1       5.426   8.525   1.037  0.00  0.00    -0.399 N 
ATOM     17  H5  SOA d   1       6.435   8.650   0.872  0.00  0.00     0.156 HD
ATOM     18  H6  SOA d   1       4.793   9.336   0.994  0.00  0.00     0.156 HD
ENDBRANCH   2  16
TORSDOF 3
