REMARK  17 active torsions:
REMARK  status: ('A' for Active; 'I' for Inactive)
REMARK    1  A    between atoms: N3_3  and  C18_26 
REMARK    2  A    between atoms: C5_8  and  N2_9 
REMARK       I    between atoms: N2_9  and  C4_10 
REMARK    3  A    between atoms: C4_10  and  C3_11 
REMARK    4  A    between atoms: C3_11  and  C2_12 
REMARK    5  A    between atoms: C3_11  and  C14_21 
REMARK    6  A    between atoms: C2_12  and  C1_13 
REMARK    7  A    between atoms: C2_12  and  C11_17 
REMARK       I    between atoms: C1_13  and  N1_15 
REMARK    8  A    between atoms: N1_15  and  O2_16 
REMARK    9  A    between atoms: C11_17  and  C12_18 
REMARK   10  A    between atoms: C12_18  and  C13_19 
REMARK   11  A    between atoms: C13_19  and  O5_20 
REMARK   12  A    between atoms: C14_21  and  C15_22 
REMARK   13  A    between atoms: C15_22  and  C17_23 
REMARK   14  A    between atoms: C15_22  and  C16_24 
REMARK   15  A    between atoms: C18_26  and  C19_27 
REMARK   16  A    between atoms: C19_27  and  O6_28 
REMARK   17  A    between atoms: O6_28  and  C20_29 
ROOT
ATOM      1  C3  S80 d   1       3.200  48.767  53.650  0.00  0.00     0.035 C 
ATOM      2  H11 S80 d   1       3.234  49.608  54.358  0.00  0.00     0.056 H 
ENDROOT
BRANCH   1   3
ATOM      3  C4  S80 d   1       4.606  48.810  53.217  0.00  0.00     0.223 C 
ATOM      4  N2  S80 d   1       5.534  49.607  53.814  0.00  0.00    -0.347 N 
ATOM      5  H10 S80 d   1       5.191  50.289  54.460  0.00  0.00     0.163 HD
ATOM      6  O3  S80 d   1       4.846  48.031  52.331  0.00  0.00    -0.273 OA
BRANCH   4   7
ATOM      7  C5  S80 d   1       6.983  49.568  53.607  0.00  0.00     0.089 C 
ATOM      8  C10 S80 d   1       7.728  48.886  54.726  0.00  0.00     0.242 C 
ATOM      9  O4  S80 d   1       7.130  48.743  55.791  0.00  0.00    -0.271 OA
ATOM     10  N3  S80 d   1       9.064  48.664  54.596  0.00  0.00    -0.348 N 
ATOM     11  C9  S80 d   1       9.791  48.595  53.328  0.00  0.00    -0.002 C 
ATOM     12  C8  S80 d   1      10.053  49.967  52.700  0.00  0.00    -0.050 C 
ATOM     13  H1  S80 d   1       9.201  47.995  52.620  0.00  0.00     0.064 H 
ATOM     14  H2  S80 d   1      10.759  48.103  53.507  0.00  0.00     0.064 H 
ATOM     15  C7  S80 d   1       8.812  50.588  52.072  0.00  0.00    -0.061 C 
ATOM     16  H3  S80 d   1      10.820  49.853  51.919  0.00  0.00     0.035 H 
ATOM     17  H4  S80 d   1      10.424  50.644  53.483  0.00  0.00     0.035 H 
ATOM     18  C6  S80 d   1       7.601  50.734  52.927  0.00  0.00    -0.038 C 
ATOM     19  H5  S80 d   1       8.532  49.964  51.211  0.00  0.00     0.033 H 
ATOM     20  H6  S80 d   1       9.089  51.593  51.721  0.00  0.00     0.033 H 
ATOM     21  H7  S80 d   1       6.820  51.169  52.286  0.00  0.00     0.036 H 
ATOM     22  H8  S80 d   1       7.866  51.450  53.719  0.00  0.00     0.036 H 
ATOM     23  H9  S80 d   1       7.067  48.813  52.812  0.00  0.00     0.087 H 
BRANCH  10  24
ATOM     24  C18 S80 d   1       9.933  48.575  55.786  0.00  0.00     0.017 C 
ATOM     25  H31 S80 d   1       9.566  49.293  56.535  0.00  0.00     0.067 H 
ATOM     26  H32 S80 d   1      10.956  48.848  55.487  0.00  0.00     0.067 H 
BRANCH  24  27
ATOM     27  C19 S80 d   1       9.977  47.193  56.431  0.00  0.00     0.034 C 
ATOM     28  H33 S80 d   1       8.956  46.896  56.712  0.00  0.00     0.076 H 
ATOM     29  H34 S80 d   1      10.607  47.238  57.332  0.00  0.00     0.076 H 
BRANCH  27  30
ATOM     30  O6  S80 d   1      10.511  46.228  55.542  0.00  0.00    -0.394 OA
BRANCH  30  31
ATOM     31  C20 S80 d   1      10.472  44.929  56.141  0.00  0.00     0.004 C 
ATOM     32  H35 S80 d   1      10.889  44.190  55.441  0.00  0.00     0.066 H 
ATOM     33  H36 S80 d   1       9.430  44.665  56.376  0.00  0.00     0.066 H 
ATOM     34  H37 S80 d   1      11.067  44.934  57.066  0.00  0.00     0.066 H 
ENDBRANCH  30  31
ENDBRANCH  27  30
ENDBRANCH  24  27
ENDBRANCH  10  24
ENDBRANCH   4   7
ENDBRANCH   1   3
BRANCH   1  35
ATOM     35  C2  S80 d   1       2.208  49.360  52.688  0.00  0.00     0.037 C 
ATOM     36  H12 S80 d   1       2.046  48.408  52.161  0.00  0.00     0.056 H 
BRANCH  35  37
ATOM     37  C1  S80 d   1       0.827  49.461  53.234  0.00  0.00     0.245 C 
ATOM     38  O1  S80 d   1       0.653  50.279  54.111  0.00  0.00    -0.271 OA
ATOM     39  N1  S80 d   1      -0.204  48.721  52.807  0.00  0.00    -0.237 N 
ATOM     40  H13 S80 d   1      -0.117  48.076  52.048  0.00  0.00     0.197 HD
BRANCH  39  41
ATOM     41  O2  S80 d   1      -1.400  48.907  53.485  0.00  0.00    -0.287 OA
ATOM     42  H14 S80 d   1      -2.066  48.342  53.111  0.00  0.00     0.244 HD
ENDBRANCH  39  41
ENDBRANCH  35  37
BRANCH  35  43
ATOM     43  C11 S80 d   1       2.509  50.118  51.389  0.00  0.00    -0.051 C 
ATOM     44  H15 S80 d   1       1.651  50.046  50.705  0.00  0.00     0.034 H 
ATOM     45  H16 S80 d   1       3.401  49.694  50.905  0.00  0.00     0.034 H 
BRANCH  43  46
ATOM     46  C12 S80 d   1       2.764  51.595  51.761  0.00  0.00    -0.045 C 
ATOM     47  H17 S80 d   1       3.736  51.671  52.271  0.00  0.00     0.036 H 
ATOM     48  H18 S80 d   1       1.966  51.934  52.438  0.00  0.00     0.036 H 
BRANCH  46  49
ATOM     49  C13 S80 d   1       2.782  52.507  50.514  0.00  0.00     0.017 C 
ATOM     50  H19 S80 d   1       3.481  52.099  49.769  0.00  0.00     0.073 H 
ATOM     51  H20 S80 d   1       3.103  53.519  50.802  0.00  0.00     0.073 H 
BRANCH  49  52
ATOM     52  O5  S80 d   1       1.468  52.561  49.959  0.00  0.00    -0.401 OA
ATOM     53  H21 S80 d   1       1.472  53.121  49.191  0.00  0.00     0.209 HD
ENDBRANCH  49  52
ENDBRANCH  46  49
ENDBRANCH  43  46
ENDBRANCH  35  43
ENDBRANCH   1  35
BRANCH   1  54
ATOM     54  C14 S80 d   1       2.790  47.739  54.616  0.00  0.00    -0.050 C 
ATOM     55  H22 S80 d   1       3.099  46.795  54.143  0.00  0.00     0.034 H 
ATOM     56  H23 S80 d   1       1.692  47.805  54.621  0.00  0.00     0.034 H 
BRANCH  54  57
ATOM     57  C15 S80 d   1       3.131  47.559  56.000  0.00  0.00    -0.060 C 
ATOM     58  H24 S80 d   1       4.221  47.599  55.862  0.00  0.00     0.038 H 
BRANCH  57  59
ATOM     59  C17 S80 d   1       3.012  48.656  57.009  0.00  0.00    -0.073 C 
ATOM     60  H25 S80 d   1       3.328  48.283  57.995  0.00  0.00     0.028 H 
ATOM     61  H26 S80 d   1       1.966  48.993  57.062  0.00  0.00     0.028 H 
ATOM     62  H27 S80 d   1       3.654  49.498  56.712  0.00  0.00     0.028 H 
ENDBRANCH  57  59
BRANCH  57  63
ATOM     63  C16 S80 d   1       3.042  46.187  56.639  0.00  0.00    -0.073 C 
ATOM     64  H28 S80 d   1       3.134  45.414  55.862  0.00  0.00     0.028 H 
ATOM     65  H29 S80 d   1       2.072  46.082  57.148  0.00  0.00     0.028 H 
ATOM     66  H30 S80 d   1       3.855  46.070  57.371  0.00  0.00     0.028 H 
ENDBRANCH  57  63
ENDBRANCH  54  57
ENDBRANCH   1  54
TORSDOF 17
