REMARK  11 active torsions:
REMARK  status: ('A' for Active; 'I' for Inactive)
REMARK    1  A    between atoms: C2_4  and  C1_1 
REMARK    2  A    between atoms: C4_6  and  NE_28 
REMARK    3  A    between atoms: C5_7  and  N5_8 
REMARK       I    between atoms: N5_8  and  C10_9 
REMARK    4  A    between atoms: C10_9  and  C11_11 
REMARK    5  A    between atoms: C6_12  and  C7_14 
REMARK       I    between atoms: C7_14  and  N8_16 
REMARK    6  A    between atoms: N8_16  and  C9_25 
REMARK    7  A    between atoms: N8_16  and  C81_17 
REMARK    8  A    between atoms: C81_17  and  C82_18 
REMARK    9  A    between atoms: C82_18  and  CG_19 
REMARK   10  A    between atoms: C9_25  and  C91_26 
REMARK   11  A    between atoms: C91_26  and  C92_27 
ROOT
ATOM      1  C7  DPC d   1      27.661  18.275  63.573  0.00  0.00     0.251 C 
ATOM      2  O7  DPC d   1      27.928  17.972  64.732  0.00  0.00    -0.270 OA
ATOM      3  N8  DPC d   1      28.618  18.469  62.652  0.00  0.00    -0.350 N 
ENDROOT
BRANCH   3   4
ATOM      4  C9  DPC d   1      28.235  18.847  61.297  0.00  0.00    -0.003 C 
ATOM      5  H18 DPC d   1      27.291  18.355  61.020  0.00  0.00     0.064 H 
ATOM      6  H19 DPC d   1      29.023  18.556  60.587  0.00  0.00     0.064 H 
BRANCH   4   7
ATOM      7  C91 DPC d   1      28.052  20.409  61.291  0.00  0.00    -0.053 C 
ATOM      8  H20 DPC d   1      27.213  20.616  61.972  0.00  0.00     0.034 H 
ATOM      9  H21 DPC d   1      27.763  20.674  60.263  0.00  0.00     0.034 H 
BRANCH   7  10
ATOM     10  C92 DPC d   1      29.141  21.377  61.674  0.00  0.00    -0.075 C 
ATOM     11  H22 DPC d   1      28.764  22.407  61.587  0.00  0.00     0.027 H 
ATOM     12  H23 DPC d   1      30.002  21.245  61.002  0.00  0.00     0.027 H 
ATOM     13  H24 DPC d   1      29.453  21.187  62.712  0.00  0.00     0.027 H 
ENDBRANCH   7  10
ENDBRANCH   4   7
ENDBRANCH   3   4
BRANCH   3  14
ATOM     14  C81 DPC d   1      30.006  18.372  63.172  0.00  0.00     0.001 C 
ATOM     15  H9  DPC d   1      29.999  18.615  64.245  0.00  0.00     0.064 H 
ATOM     16  H10 DPC d   1      30.636  19.097  62.636  0.00  0.00     0.064 H 
BRANCH  14  17
ATOM     17  C82 DPC d   1      30.598  16.984  62.990  0.00  0.00    -0.026 C 
ATOM     18  H11 DPC d   1      30.573  16.695  61.929  0.00  0.00     0.042 H 
ATOM     19  H12 DPC d   1      30.035  16.249  63.584  0.00  0.00     0.042 H 
BRANCH  17  20
ATOM     20  CG  DPC d   1      32.018  17.064  63.473  0.00  0.00    -0.057 A 
ATOM     21  CD2 DPC d   1      33.081  17.129  62.570  0.00  0.00    -0.077 A 
ATOM     22  CE2 DPC d   1      34.394  17.165  63.016  0.00  0.00    -0.082 A 
ATOM     23  H14 DPC d   1      32.877  17.152  61.505  0.00  0.00     0.084 H 
ATOM     24  CZ  DPC d   1      34.650  17.134  64.376  0.00  0.00    -0.083 A 
ATOM     25  H16 DPC d   1      35.212  17.217  62.306  0.00  0.00     0.083 H 
ATOM     26  CE1 DPC d   1      33.606  17.072  65.281  0.00  0.00    -0.082 A 
ATOM     27  H17 DPC d   1      35.673  17.158  64.733  0.00  0.00     0.083 H 
ATOM     28  CD1 DPC d   1      32.297  17.040  64.827  0.00  0.00    -0.077 A 
ATOM     29  H15 DPC d   1      33.812  17.048  66.345  0.00  0.00     0.083 H 
ATOM     30  H13 DPC d   1      31.483  16.996  65.541  0.00  0.00     0.084 H 
ENDBRANCH  17  20
ENDBRANCH  14  17
ENDBRANCH   3  14
BRANCH   1  31
ATOM     31  C6  DPC d   1      26.164  18.374  63.303  0.00  0.00     0.143 C 
ATOM     32  C5  DPC d   1      25.668  16.947  63.273  0.00  0.00     0.076 C 
ATOM     33  C4  DPC d   1      24.220  17.002  63.180  0.00  0.00     0.141 C 
ATOM     34  H3  DPC d   1      25.930  16.455  64.221  0.00  0.00     0.081 H 
ATOM     35  C3  DPC d   1      23.620  17.900  64.237  0.00  0.00    -0.033 C 
ATOM     36  H2  DPC d   1      23.920  17.341  62.177  0.00  0.00     0.093 H 
ATOM     37  C2  DPC d   1      24.285  19.026  64.628  0.00  0.00     0.144 C 
ATOM     38  H1  DPC d   1      22.660  17.649  64.686  0.00  0.00     0.084 H 
ATOM     39  O6  DPC d   1      25.612  19.045  64.369  0.00  0.00    -0.328 OA
ATOM     40  H8  DPC d   1      25.949  18.892  62.357  0.00  0.00     0.102 H 
BRANCH  32  41
ATOM     41  N5  DPC d   1      26.335  16.202  62.188  0.00  0.00    -0.351 N 
ATOM     42  C10 DPC d   1      27.042  15.080  62.328  0.00  0.00     0.214 C 
ATOM     43  O10 DPC d   1      27.266  14.575  63.411  0.00  0.00    -0.274 OA
ATOM     44  H4  DPC d   1      26.249  16.572  61.263  0.00  0.00     0.163 HD
BRANCH  42  45
ATOM     45  C11 DPC d   1      27.704  14.342  61.224  0.00  0.00    -0.003 C 
ATOM     46  H5  DPC d   1      28.214  13.456  61.630  0.00  0.00     0.040 H 
ATOM     47  H6  DPC d   1      28.440  14.997  60.735  0.00  0.00     0.040 H 
ATOM     48  H7  DPC d   1      26.949  14.026  60.489  0.00  0.00     0.040 H 
ENDBRANCH  42  45
ENDBRANCH  32  41
BRANCH  33  49
ATOM     49  NE  DPC d   1      23.735  15.712  63.446  0.00  0.00    -0.070 N 
ATOM     50  H25 DPC d   1      22.729  15.713  63.390  0.00  0.00     0.275 HD
ATOM     51  H26 DPC d   1      24.019  15.430  64.371  0.00  0.00     0.275 HD
ATOM     52  H27 DPC d   1      24.109  15.066  62.768  0.00  0.00     0.275 HD
ENDBRANCH  33  49
BRANCH  37  53
ATOM     53  C1  DPC d   1      23.704  20.129  65.238  0.00  0.00     0.233 C 
ATOM     54  O1B DPC d   1      22.520  20.076  65.635  0.00  0.00    -0.642 OA
ATOM     55  O1A DPC d   1      24.382  21.173  65.288  0.00  0.00    -0.642 OA
ENDBRANCH  37  53
ENDBRANCH   1  31
TORSDOF 11
