REMARK WARNING: 32 MAX_TORS EXCEEDED!!!
REMARK  34 active torsions:
REMARK  status: ('A' for Active; 'I' for Inactive)
REMARK    1  A    between atoms: N_1  and  CA_2 
REMARK    2  A    between atoms: CA_2  and  C_3 
REMARK    3  A    between atoms: CA_2  and  CB_5 
REMARK       I    between atoms: C_3  and  N_8 
REMARK    4  A    between atoms: CB_5  and  CG1_6 
REMARK    5  A    between atoms: CB_5  and  CG2_7 
REMARK    6  A    between atoms: N_8  and  CA_9 
REMARK    7  A    between atoms: CA_9  and  C_10 
REMARK    8  A    between atoms: CA_9  and  CB_12 
REMARK       I    between atoms: C_10  and  N_13 
REMARK    9  A    between atoms: N_13  and  CA_14 
REMARK   10  A    between atoms: CA_14  and  C_15 
REMARK   11  A    between atoms: CA_14  and  CB_17 
REMARK       I    between atoms: C_15  and  N_22 
REMARK   12  A    between atoms: CB_17  and  CG_18 
REMARK   13  A    between atoms: CG_18  and  CD_19 
REMARK       I    between atoms: CD_19  and  NE2_21 
REMARK   14  A    between atoms: N_22  and  CA_23 
REMARK   15  A    between atoms: CA_23  and  C_24 
REMARK       I    between atoms: C_24  and  N_26 
REMARK   16  A    between atoms: N_26  and  CA_27 
REMARK   17  A    between atoms: CA_27  and  C_28 
REMARK       I    between atoms: C_28  and  N_30 
REMARK   18  A    between atoms: N_30  and  CA_31 
REMARK   19  A    between atoms: CA_31  and  C_32 
REMARK   20  A    between atoms: CA_31  and  CB_34 
REMARK       I    between atoms: C_32  and  N_35 
REMARK   21  A    between atoms: N_35  and  CA_36 
REMARK   22  A    between atoms: CA_36  and  C_37 
REMARK   23  A    between atoms: CA_36  and  CB_39 
REMARK       I    between atoms: C_37  and  N_40 
REMARK   24  A    between atoms: N_40  and  CA_41 
REMARK   25  A    between atoms: CA_41  and  C_42 
REMARK       I    between atoms: C_42  and  N_44 
REMARK   26  A    between atoms: N_44  and  CA_45 
REMARK   27  A    between atoms: CA_45  and  C_46 
REMARK   28  A    between atoms: CA_45  and  CB_48 
REMARK       I    between atoms: C_46  and  N_52 
REMARK   29  A    between atoms: CB_48  and  CG_49 
REMARK   30  A    between atoms: CG_49  and  CD1_50 
REMARK   31  A    between atoms: CG_49  and  CD2_51 
REMARK   32  A    between atoms: N_52  and  CA_53 
REMARK   33  A    between atoms: CA_53  and  C_54 
REMARK   34  A    between atoms: CA_53  and  CB_56 
ROOT
ATOM      1  N   ALA d   1       3.636 -12.089  22.626  0.00  0.00    -0.347 N 
ATOM      2  H31 ALA d   1       3.630 -13.048  22.911  0.00  0.00     0.163 HD
ATOM      3  C   GLY d   1       2.467 -11.516  22.377  0.00  0.00     0.236 C 
ATOM      4  O   GLY d   1       2.329 -10.337  22.024  0.00  0.00    -0.272 OA
ENDROOT
BRANCH   3   5
ATOM      5  CA  GLY d   1       1.234 -12.424  22.608  0.00  0.00     0.069 C 
ATOM      6  H29 GLY d   1       1.276 -12.796  23.642  0.00  0.00     0.078 H 
ATOM      7  H30 GLY d   1       0.331 -11.810  22.475  0.00  0.00     0.078 H 
BRANCH   5   8
ATOM      8  N   GLY d   1       1.125 -13.608  21.696  0.00  0.00    -0.351 N 
ATOM      9  C   GLY d   1       1.953 -14.656  21.706  0.00  0.00     0.235 C 
ATOM     10  O   GLY d   1       2.977 -14.733  22.396  0.00  0.00    -0.272 OA
ATOM     11  H28 GLY d   1       0.378 -13.614  21.031  0.00  0.00     0.163 HD
BRANCH   9  12
ATOM     12  CA  GLY d   1       1.509 -15.841  20.808  0.00  0.00     0.069 C 
ATOM     13  H26 GLY d   1       1.846 -16.768  21.295  0.00  0.00     0.078 H 
ATOM     14  H27 GLY d   1       0.410 -15.828  20.765  0.00  0.00     0.078 H 
BRANCH  12  15
ATOM     15  N   GLY d   1       2.004 -15.866  19.421  0.00  0.00    -0.351 N 
ATOM     16  C   GLN d   1       2.827 -15.032  18.851  0.00  0.00     0.240 C 
ATOM     17  O   GLN d   1       3.377 -14.044  19.321  0.00  0.00    -0.271 OA
ATOM     18  H25 GLY d   1       1.668 -16.613  18.848  0.00  0.00     0.163 HD
BRANCH  16  19
ATOM     19  CA  GLN d   1       3.004 -15.423  17.400  0.00  0.00     0.090 C 
ATOM     20  H18 GLN d   1       1.985 -15.503  16.993  0.00  0.00     0.087 H 
BRANCH  19  21
ATOM     21  N   GLN d   1       3.594 -14.328  16.550  0.00  0.00    -0.346 N 
ATOM     22  C   ALA d   1       4.035 -13.146  17.040  0.00  0.00     0.240 C 
ATOM     23  O   ALA d   1       4.489 -12.970  18.176  0.00  0.00    -0.271 OA
ATOM     24  H17 GLN d   1       3.664 -14.484  15.565  0.00  0.00     0.163 HD
BRANCH  22  25
ATOM     25  CA  ALA d   1       3.957 -11.979  15.984  0.00  0.00     0.086 C 
ATOM     26  H13 ALA d   1       3.225 -11.255  16.372  0.00  0.00     0.086 H 
BRANCH  25  27
ATOM     27  N   ALA d   1       5.167 -11.185  15.672  0.00  0.00    -0.346 N 
ATOM     28  C   VAL d   1       5.131  -9.836  15.752  0.00  0.00     0.249 C 
ATOM     29  O   VAL d   1       4.171  -9.203  16.224  0.00  0.00    -0.271 OA
ATOM     30  H12 ALA d   1       6.012 -11.647  15.402  0.00  0.00     0.163 HD
BRANCH  28  31
ATOM     31  CA  VAL d   1       6.372  -9.095  15.223  0.00  0.00     0.178 C 
ATOM     32  H4  VAL d   1       6.046  -8.381  14.453  0.00  0.00     0.099 H 
BRANCH  31  33
ATOM     33  N   VAL d   1       7.051  -8.309  16.243  0.00  0.00    -0.066 N 
ATOM     34  H1  VAL d   1       6.410  -7.634  16.629  0.00  0.00     0.275 HD
ATOM     35  H2  VAL d   1       7.836  -7.830  15.831  0.00  0.00     0.275 HD
ATOM     36  H3  VAL d   1       7.377  -8.919  16.976  0.00  0.00     0.275 HD
ENDBRANCH  31  33
BRANCH  31  37
ATOM     37  CB  VAL d   1       7.192 -10.147  14.550  0.00  0.00    -0.025 C 
ATOM     38  H5  VAL d   1       6.910 -11.115  14.989  0.00  0.00     0.042 H 
BRANCH  37  39
ATOM     39  CG1 VAL d   1       6.965 -10.206  13.038  0.00  0.00    -0.071 C 
ATOM     40  H6  VAL d   1       7.594 -10.996  12.603  0.00  0.00     0.028 H 
ATOM     41  H7  VAL d   1       7.231  -9.238  12.589  0.00  0.00     0.028 H 
ATOM     42  H8  VAL d   1       5.907 -10.426  12.834  0.00  0.00     0.028 H 
ENDBRANCH  37  39
BRANCH  37  43
ATOM     43  CG2 VAL d   1       8.697  -9.941  14.735  0.00  0.00    -0.071 C 
ATOM     44  H9  VAL d   1       8.931  -9.889  15.809  0.00  0.00     0.028 H 
ATOM     45  H10 VAL d   1       9.001  -9.003  14.248  0.00  0.00     0.028 H 
ATOM     46  H11 VAL d   1       9.241 -10.783  14.281  0.00  0.00     0.028 H 
ENDBRANCH  37  43
ENDBRANCH  31  37
ENDBRANCH  28  31
ENDBRANCH  25  27
BRANCH  25  47
ATOM     47  CB  ALA d   1       3.380 -12.616  14.730  0.00  0.00    -0.049 C 
ATOM     48  H14 ALA d   1       2.484 -13.198  14.993  0.00  0.00     0.030 H 
ATOM     49  H15 ALA d   1       4.130 -13.282  14.278  0.00  0.00     0.030 H 
ATOM     50  H16 ALA d   1       3.108 -11.829  14.011  0.00  0.00     0.030 H 
ENDBRANCH  25  47
ENDBRANCH  22  25
ENDBRANCH  19  21
BRANCH  19  51
ATOM     51  CB  GLN d   1       3.501 -16.891  17.400  0.00  0.00    -0.030 C 
ATOM     52  H19 GLN d   1       3.971 -17.128  18.366  0.00  0.00     0.037 H 
ATOM     53  H20 GLN d   1       4.231 -17.040  16.591  0.00  0.00     0.037 H 
BRANCH  51  54
ATOM     54  CG  GLN d   1       2.233 -17.828  17.168  0.00  0.00     0.011 C 
ATOM     55  H21 GLN d   1       2.392 -18.351  16.213  0.00  0.00     0.047 H 
ATOM     56  H22 GLN d   1       1.358 -17.167  17.084  0.00  0.00     0.047 H 
BRANCH  54  57
ATOM     57  CD  GLN d   1       1.876 -18.926  18.237  0.00  0.00     0.215 C 
ATOM     58  OE1 GLN d   1       0.873 -19.653  18.069  0.00  0.00    -0.274 OA
ATOM     59  NE2 GLN d   1       2.644 -19.146  19.282  0.00  0.00    -0.370 N 
ATOM     60  H23 GLN d   1       2.394 -19.850  19.947  0.00  0.00     0.159 HD
ATOM     61  H24 GLN d   1       3.478 -18.609  19.412  0.00  0.00     0.159 HD
ENDBRANCH  54  57
ENDBRANCH  51  54
ENDBRANCH  19  51
ENDBRANCH  16  19
ENDBRANCH  12  15
ENDBRANCH   9  12
ENDBRANCH   5   8
ENDBRANCH   3   5
BRANCH   1  62
ATOM     62  CA  ALA d   1       4.966 -11.408  22.513  0.00  0.00     0.086 C 
ATOM     63  H32 ALA d   1       5.361 -11.258  23.529  0.00  0.00     0.086 H 
BRANCH  62  64
ATOM     64  C   ALA d   1       4.886 -10.024  21.808  0.00  0.00     0.240 C 
ATOM     65  O   ALA d   1       3.822  -9.391  21.763  0.00  0.00    -0.271 OA
ATOM     66  N   ALA d   1       6.054  -9.584  21.266  0.00  0.00    -0.346 N 
ATOM     67  H36 ALA d   1       6.857 -10.177  21.332  0.00  0.00     0.163 HD
BRANCH  66  68
ATOM     68  CA  ALA d   1       6.208  -8.252  20.571  0.00  0.00     0.086 C 
ATOM     69  H37 ALA d   1       5.262  -8.014  20.062  0.00  0.00     0.086 H 
BRANCH  68  70
ATOM     70  C   ALA d   1       7.362  -8.256  19.518  0.00  0.00     0.240 C 
ATOM     71  O   ALA d   1       7.865  -9.316  19.114  0.00  0.00    -0.271 OA
ATOM     72  N   GLY d   1       7.791  -7.039  19.065  0.00  0.00    -0.351 N 
ATOM     73  H41 GLY d   1       7.380  -6.203  19.430  0.00  0.00     0.163 HD
BRANCH  72  74
ATOM     74  CA  GLY d   1       8.868  -6.943  18.030  0.00  0.00     0.069 C 
ATOM     75  H42 GLY d   1       8.514  -7.471  17.132  0.00  0.00     0.078 H 
ATOM     76  H43 GLY d   1       9.758  -7.453  18.428  0.00  0.00     0.078 H 
BRANCH  74  77
ATOM     77  C   GLY d   1       9.305  -5.503  17.591  0.00  0.00     0.236 C 
ATOM     78  O   GLY d   1       9.446  -4.579  18.417  0.00  0.00    -0.272 OA
ATOM     79  N   LEU d   1       9.497  -5.415  16.249  0.00  0.00    -0.346 N 
ATOM     80  H44 LEU d   1       9.219  -6.197  15.691  0.00  0.00     0.163 HD
BRANCH  79  81
ATOM     81  CA  LEU d   1      10.089  -4.245  15.547  0.00  0.00     0.089 C 
ATOM     82  H45 LEU d   1       9.678  -4.144  14.532  0.00  0.00     0.087 H 
BRANCH  81  83
ATOM     83  C   LEU d   1      11.577  -4.517  15.515  0.00  0.00     0.241 C 
ATOM     84  O   LEU d   1      12.390  -3.782  14.970  0.00  0.00    -0.271 OA
ATOM     85  N   ALA d   1      11.828  -5.582  16.135  0.00  0.00    -0.349 N 
ATOM     86  H55 ALA d   1      11.054  -6.093  16.509  0.00  0.00     0.163 HD
BRANCH  85  87
ATOM     87  CA  ALA d   1      13.117  -6.108  16.341  0.00  0.00     0.059 C 
ATOM     88  H56 ALA d   1      13.502  -6.591  15.431  0.00  0.00     0.083 H 
BRANCH  87  89
ATOM     89  C   ALA d   1      12.861  -7.150  17.452  0.00  0.00     0.109 C 
ATOM     90  O   ALA d   1      11.678  -7.184  17.857  0.00  0.00    -0.305 OA
ATOM     91  H57 ALA d   1      13.642  -7.798  17.848  0.00  0.00     0.146 H 
ENDBRANCH  87  89
BRANCH  87  92
ATOM     92  CB  ALA d   1      14.087  -5.008  16.776  0.00  0.00    -0.051 C 
ATOM     93  H58 ALA d   1      15.086  -5.441  16.931  0.00  0.00     0.030 H 
ATOM     94  H59 ALA d   1      13.733  -4.557  17.715  0.00  0.00     0.030 H 
ATOM     95  H60 ALA d   1      14.139  -4.235  15.995  0.00  0.00     0.030 H 
ENDBRANCH  87  92
ENDBRANCH  85  87
ENDBRANCH  81  83
BRANCH  81  96
ATOM     96  CB  LEU d   1       9.845  -2.976  16.342  0.00  0.00    -0.035 C 
ATOM     97  H46 LEU d   1      10.691  -2.824  17.028  0.00  0.00     0.037 H 
ATOM     98  H47 LEU d   1       8.919  -3.099  16.923  0.00  0.00     0.037 H 
BRANCH  96  99
ATOM     99  CG  LEU d   1       9.706  -1.742  15.462  0.00  0.00    -0.059 C 
ATOM    100  H48 LEU d   1      10.544  -1.742  14.749  0.00  0.00     0.038 H 
BRANCH  99 101
ATOM    101  CD1 LEU d   1       8.391  -1.731  14.686  0.00  0.00    -0.073 C 
ATOM    102  H49 LEU d   1       8.338  -0.823  14.067  0.00  0.00     0.028 H 
ATOM    103  H50 LEU d   1       7.548  -1.743  15.393  0.00  0.00     0.028 H 
ATOM    104  H51 LEU d   1       8.340  -2.619  14.039  0.00  0.00     0.028 H 
ENDBRANCH  99 101
BRANCH  99 105
ATOM    105  CD2 LEU d   1       9.736  -0.441  16.264  0.00  0.00    -0.073 C 
ATOM    106  H52 LEU d   1      10.667  -0.392  16.848  0.00  0.00     0.028 H 
ATOM    107  H53 LEU d   1       8.873  -0.411  16.946  0.00  0.00     0.028 H 
ATOM    108  H54 LEU d   1       9.689   0.415  15.575  0.00  0.00     0.028 H 
ENDBRANCH  99 105
ENDBRANCH  96  99
ENDBRANCH  81  96
ENDBRANCH  79  81
ENDBRANCH  74  77
ENDBRANCH  72  74
ENDBRANCH  68  70
BRANCH  68 109
ATOM    109  CB  ALA d   1       6.520  -7.164  21.595  0.00  0.00    -0.049 C 
ATOM    110  H38 ALA d   1       6.631  -6.198  21.081  0.00  0.00     0.030 H 
ATOM    111  H39 ALA d   1       7.456  -7.410  22.118  0.00  0.00     0.030 H 
ATOM    112  H40 ALA d   1       5.699  -7.100  22.324  0.00  0.00     0.030 H 
ENDBRANCH  68 109
ENDBRANCH  66  68
ENDBRANCH  62  64
BRANCH  62 113
ATOM    113  CB  ALA d   1       5.933 -12.288  21.727  0.00  0.00    -0.049 C 
ATOM    114  H33 ALA d   1       6.907 -11.783  21.648  0.00  0.00     0.030 H 
ATOM    115  H34 ALA d   1       5.530 -12.467  20.719  0.00  0.00     0.030 H 
ATOM    116  H35 ALA d   1       6.060 -13.249  22.247  0.00  0.00     0.030 H 
ENDBRANCH  62 113
ENDBRANCH   1  62
TORSDOF 34
