REMARK  12 active torsions:
REMARK  status: ('A' for Active; 'I' for Inactive)
REMARK    1  A    between atoms: C7_11  and  C7M_12 
REMARK    2  A    between atoms: C8_13  and  C8M_14 
REMARK    3  A    between atoms: N10_17  and  C1_19 
REMARK    4  A    between atoms: C1_19  and  C2_20 
REMARK    5  A    between atoms: C2_20  and  O2_21 
REMARK    6  A    between atoms: C2_20  and  C3_22 
REMARK    7  A    between atoms: C3_22  and  O3_23 
REMARK    8  A    between atoms: C3_22  and  C4_24 
REMARK    9  A    between atoms: C4_24  and  O4_25 
REMARK   10  A    between atoms: C4_24  and  C5_26 
REMARK   11  A    between atoms: C5_26  and  O5_27 
REMARK   12  A    between atoms: O5_27  and  P_28 
ROOT
ATOM      1  N1  FMN d   1      -7.016  -3.043   8.322  0.00  0.00    -0.173 NA
ATOM      2  C2  FMN d   1      -7.483  -3.441   7.091  0.00  0.00     0.350 C 
ATOM      3  O2  FMN d   1      -8.401  -4.199   6.909  0.00  0.00    -0.244 OA
ATOM      4  N3  FMN d   1      -6.723  -2.942   6.042  0.00  0.00    -0.272 N 
ATOM      5  C4  FMN d   1      -5.459  -2.287   6.127  0.00  0.00     0.282 C 
ATOM      6  O4  FMN d   1      -4.876  -2.036   5.088  0.00  0.00    -0.265 OA
ATOM      7  C4A FMN d   1      -5.021  -2.012   7.465  0.00  0.00     0.171 C 
ATOM      8  N5  FMN d   1      -3.941  -1.145   7.579  0.00  0.00    -0.237 NA
ATOM      9  C5A FMN d   1      -3.608  -0.586   8.822  0.00  0.00     0.085 A 
ATOM     10  C6  FMN d   1      -2.617   0.378   8.845  0.00  0.00    -0.047 A 
ATOM     11  C7  FMN d   1      -2.287   1.013  10.041  0.00  0.00    -0.054 A 
ATOM     12  C8  FMN d   1      -2.944   0.631  11.246  0.00  0.00    -0.054 A 
ATOM     13  C9  FMN d   1      -3.928  -0.323  11.232  0.00  0.00    -0.048 A 
ATOM     14  C9A FMN d   1      -4.298  -0.956  10.005  0.00  0.00     0.065 A 
ATOM     15  N10 FMN d   1      -5.383  -1.900   9.889  0.00  0.00    -0.325 N 
ATOM     16  C10 FMN d   1      -5.811  -2.357   8.616  0.00  0.00     0.170 C 
ATOM     17  H1  FMN d   1      -7.104  -3.054   5.124  0.00  0.00     0.174 HD
ATOM     18  H2  FMN d   1      -2.096   0.640   7.931  0.00  0.00     0.088 H 
ATOM     19  H9  FMN d   1      -4.427  -0.598  12.154  0.00  0.00     0.087 H 
ENDROOT
BRANCH  15  20
ATOM     20  C1  FMN d   1      -6.217  -2.159  10.936  0.00  0.00     0.028 C 
ATOM     21  H10 FMN d   1      -7.242  -2.190  10.539  0.00  0.00     0.069 H 
ATOM     22  H11 FMN d   1      -6.123  -1.323  11.645  0.00  0.00     0.069 H 
BRANCH  20  23
ATOM     23  C2  FMN d   1      -5.996  -3.436  11.713  0.00  0.00     0.078 C 
ATOM     24  H12 FMN d   1      -4.939  -3.179  11.878  0.00  0.00     0.089 H 
BRANCH  23  25
ATOM     25  O2  FMN d   1      -5.635  -4.604  11.108  0.00  0.00    -0.391 OA
ATOM     26  H13 FMN d   1      -5.546  -5.285  11.764  0.00  0.00     0.210 HD
ENDBRANCH  23  25
BRANCH  23  27
ATOM     27  C3  FMN d   1      -6.272  -3.410  13.158  0.00  0.00     0.088 C 
ATOM     28  H14 FMN d   1      -7.370  -3.387  13.100  0.00  0.00     0.091 H 
BRANCH  27  29
ATOM     29  O3  FMN d   1      -6.048  -2.190  13.818  0.00  0.00    -0.390 OA
ATOM     30  H15 FMN d   1      -6.257  -2.287  14.740  0.00  0.00     0.210 HD
ENDBRANCH  27  29
BRANCH  27  31
ATOM     31  C4  FMN d   1      -6.126  -4.620  14.040  0.00  0.00     0.084 C 
ATOM     32  H16 FMN d   1      -5.044  -4.494  14.194  0.00  0.00     0.090 H 
BRANCH  31  33
ATOM     33  O4  FMN d   1      -6.036  -5.901  13.464  0.00  0.00    -0.391 OA
ATOM     34  H17 FMN d   1      -5.277  -5.938  12.893  0.00  0.00     0.210 HD
ENDBRANCH  31  33
BRANCH  31  35
ATOM     35  C5  FMN d   1      -6.476  -4.556  15.449  0.00  0.00     0.059 C 
ATOM     36  H18 FMN d   1      -6.127  -3.618  15.906  0.00  0.00     0.079 H 
ATOM     37  H19 FMN d   1      -6.062  -5.411  16.004  0.00  0.00     0.079 H 
BRANCH  35  38
ATOM     38  O5  FMN d   1      -7.934  -4.612  15.398  0.00  0.00    -0.280 OA
BRANCH  38  39
ATOM     39  P   FMN d   1      -8.927  -3.394  15.830  0.00  0.00     0.422 P 
ATOM     40  O1P FMN d   1      -8.739  -3.291  17.265  0.00  0.00    -0.617 OA
ATOM     41  O2P FMN d   1     -10.248  -3.860  15.342  0.00  0.00    -0.617 OA
ATOM     42  O3P FMN d   1      -8.439  -2.132  15.226  0.00  0.00    -0.617 OA
ENDBRANCH  38  39
ENDBRANCH  35  38
ENDBRANCH  31  35
ENDBRANCH  27  31
ENDBRANCH  23  27
ENDBRANCH  20  23
ENDBRANCH  15  20
BRANCH  12  43
ATOM     43  C8M FMN d   1      -2.567   1.157  12.592  0.00  0.00    -0.051 C 
ATOM     44  H6  FMN d   1      -3.221   0.711  13.356  0.00  0.00     0.033 H 
ATOM     45  H7  FMN d   1      -2.682   2.251  12.604  0.00  0.00     0.033 H 
ATOM     46  H8  FMN d   1      -1.520   0.896  12.808  0.00  0.00     0.033 H 
ENDBRANCH  12  43
BRANCH  11  47
ATOM     47  C7M FMN d   1      -1.318   2.230   9.954  0.00  0.00    -0.051 C 
ATOM     48  H3  FMN d   1      -0.938   2.323   8.926  0.00  0.00     0.033 H 
ATOM     49  H4  FMN d   1      -0.475   2.078  10.644  0.00  0.00     0.033 H 
ATOM     50  H5  FMN d   1      -1.857   3.148  10.230  0.00  0.00     0.033 H 
ENDBRANCH  11  47
TORSDOF 12
