REMARK  17 active torsions:
REMARK  status: ('A' for Active; 'I' for Inactive)
REMARK    1  A    between atoms: C7_7  and  C4_4 
REMARK    2  A    between atoms: C8_8  and  C7_7 
REMARK    3  A    between atoms: C9_9  and  C8_8 
REMARK    4  A    between atoms: C9_9  and  C10_10 
REMARK    5  A    between atoms: N2_28  and  C9_9 
REMARK       I    between atoms: C10_10  and  N1_27 
REMARK    6  A    between atoms: C12_12  and  C11_11 
REMARK       I    between atoms: C11_11  and  N2_28 
REMARK    7  A    between atoms: C12_12  and  C13_13 
REMARK    8  A    between atoms: N3_29  and  C12_12 
REMARK    9  A    between atoms: C13_13  and  C14_14 
REMARK   10  A    between atoms: C14_14  and  C15_15 
REMARK   11  A    between atoms: C17_17  and  C16_16 
REMARK       I    between atoms: C16_16  and  N3_29 
REMARK   12  A    between atoms: C17_17  and  C18_18 
REMARK   13  A    between atoms: N4_30  and  C17_17 
REMARK   14  A    between atoms: C18_18  and  C19_19 
REMARK   15  A    between atoms: C22_22  and  O4P_37 
REMARK   16  A    between atoms: C25_25  and  C26_26 
REMARK       I    between atoms: N4_30  and  C25_25 
REMARK   17  A    between atoms: O4P_37  and  P_41 
ROOT
ATOM      1  C12 1C5 d   1       7.568  16.463  17.255  0.00  0.00     0.090 C 
ATOM      2  H17 1C5 d   1       8.157  17.338  16.943  0.00  0.00     0.087 H 
ENDROOT
BRANCH   1   3
ATOM      3  C11 1C5 d   1       7.344  16.563  18.895  0.00  0.00     0.241 C 
ATOM      4  N2  1C5 d   1       7.085  17.656  19.096  0.00  0.00    -0.346 N 
ATOM      5  H34 1C5 d   1       6.997  18.318  18.352  0.00  0.00     0.163 HD
ATOM      6  O2  1C5 d   1       7.386  15.729  19.642  0.00  0.00    -0.271 OA
BRANCH   4   7
ATOM      7  C9  1C5 d   1       6.881  18.057  20.539  0.00  0.00     0.089 C 
ATOM      8  H16 1C5 d   1       7.340  17.244  21.121  0.00  0.00     0.087 H 
BRANCH   7   9
ATOM      9  C8  1C5 d   1       5.391  18.065  20.953  0.00  0.00    -0.037 C 
ATOM     10  H14 1C5 d   1       5.084  17.023  21.130  0.00  0.00     0.036 H 
ATOM     11  H15 1C5 d   1       5.304  18.637  21.889  0.00  0.00     0.036 H 
BRANCH   9  12
ATOM     12  C7  1C5 d   1       4.418  18.676  19.935  0.00  0.00    -0.059 C 
ATOM     13  H12 1C5 d   1       4.626  19.754  19.869  0.00  0.00     0.033 H 
ATOM     14  H13 1C5 d   1       4.606  18.206  18.959  0.00  0.00     0.033 H 
BRANCH  12  15
ATOM     15  C4  1C5 d   1       2.917  18.497  20.273  0.00  0.00    -0.054 C 
ATOM     16  C3  1C5 d   1       1.984  19.167  19.247  0.00  0.00    -0.062 C 
ATOM     17  C2  1C5 d   1       0.513  19.104  19.709  0.00  0.00    -0.065 C 
ATOM     18  H5  1C5 d   1       2.278  20.220  19.128  0.00  0.00     0.033 H 
ATOM     19  H6  1C5 d   1       2.080  18.648  18.282  0.00  0.00     0.033 H 
ATOM     20  C1  1C5 d   1       0.049  17.668  19.958  0.00  0.00    -0.065 C 
ATOM     21  H3  1C5 d   1       0.410  19.677  20.642  0.00  0.00     0.033 H 
ATOM     22  H4  1C5 d   1      -0.122  19.552  18.931  0.00  0.00     0.033 H 
ATOM     23  C6  1C5 d   1       0.999  16.945  20.915  0.00  0.00    -0.065 C 
ATOM     24  H1  1C5 d   1       0.022  17.127  19.000  0.00  0.00     0.033 H 
ATOM     25  H2  1C5 d   1      -0.959  17.686  20.397  0.00  0.00     0.033 H 
ATOM     26  C5  1C5 d   1       2.467  17.043  20.458  0.00  0.00    -0.062 C 
ATOM     27  H10 1C5 d   1       0.713  15.884  20.965  0.00  0.00     0.033 H 
ATOM     28  H11 1C5 d   1       0.908  17.396  21.914  0.00  0.00     0.033 H 
ATOM     29  H8  1C5 d   1       3.107  16.567  21.216  0.00  0.00     0.033 H 
ATOM     30  H9  1C5 d   1       2.576  16.513  19.500  0.00  0.00     0.033 H 
ATOM     31  H7  1C5 d   1       2.761  19.005  21.236  0.00  0.00     0.040 H 
ENDBRANCH  12  15
ENDBRANCH   9  12
ENDBRANCH   7   9
BRANCH   7  32
ATOM     32  C10 1C5 d   1       7.615  19.321  20.989  0.00  0.00     0.238 C 
ATOM     33  N1  1C5 d   1       8.718  19.627  20.329  0.00  0.00    -0.368 N 
ATOM     34  H32 1C5 d   1       9.240  20.442  20.579  0.00  0.00     0.159 HD
ATOM     35  H33 1C5 d   1       9.031  19.043  19.580  0.00  0.00     0.159 HD
ATOM     36  O1  1C5 d   1       7.227  19.961  21.939  0.00  0.00    -0.271 OA
ENDBRANCH   7  32
ENDBRANCH   4   7
ENDBRANCH   1   3
BRANCH   1  37
ATOM     37  C13 1C5 d   1       6.256  16.509  16.590  0.00  0.00    -0.029 C 
ATOM     38  H18 1C5 d   1       5.804  17.499  16.746  0.00  0.00     0.037 H 
ATOM     39  H19 1C5 d   1       5.603  15.736  17.020  0.00  0.00     0.037 H 
BRANCH  37  40
ATOM     40  C14 1C5 d   1       6.417  16.258  15.093  0.00  0.00     0.018 C 
ATOM     41  H20 1C5 d   1       5.426  16.139  14.631  0.00  0.00     0.049 H 
ATOM     42  H21 1C5 d   1       7.008  15.344  14.935  0.00  0.00     0.049 H 
BRANCH  40  43
ATOM     43  C15 1C5 d   1       7.138  17.450  14.458  0.00  0.00     0.172 C 
ATOM     44  O3  1C5 d   1       8.176  17.250  13.829  0.00  0.00    -0.648 OA
ATOM     45  O4  1C5 d   1       6.693  18.567  14.528  0.00  0.00    -0.648 OA
ENDBRANCH  40  43
ENDBRANCH  37  40
ENDBRANCH   1  37
BRANCH   1  46
ATOM     46  N3  1C5 d   1       8.355  15.137  16.765  0.00  0.00    -0.346 N 
ATOM     47  C16 1C5 d   1       9.482  14.926  17.444  0.00  0.00     0.241 C 
ATOM     48  O5  1C5 d   1       9.949  15.727  18.241  0.00  0.00    -0.271 OA
ATOM     49  H35 1C5 d   1       8.030  14.540  16.031  0.00  0.00     0.163 HD
BRANCH  47  50
ATOM     50  C17 1C5 d   1      10.169  13.583  17.200  0.00  0.00     0.093 C 
ATOM     51  H22 1C5 d   1       9.789  13.158  16.259  0.00  0.00     0.088 H 
BRANCH  50  52
ATOM     52  C18 1C5 d   1       9.810  12.618  18.357  0.00  0.00    -0.014 C 
ATOM     53  H23 1C5 d   1       8.715  12.602  18.462  0.00  0.00     0.043 H 
ATOM     54  H24 1C5 d   1      10.261  13.009  19.281  0.00  0.00     0.043 H 
BRANCH  52  55
ATOM     55  C19 1C5 d   1      10.292  11.173  18.165  0.00  0.00    -0.056 A 
ATOM     56  C20 1C5 d   1       9.590  10.297  17.321  0.00  0.00    -0.074 A 
ATOM     57  C21 1C5 d   1      10.021   8.964  17.199  0.00  0.00    -0.050 A 
ATOM     58  H25 1C5 d   1       8.724  10.645  16.769  0.00  0.00     0.084 H 
ATOM     59  C22 1C5 d   1      11.138   8.511  17.925  0.00  0.00     0.082 A 
ATOM     60  H26 1C5 d   1       9.491   8.283  16.543  0.00  0.00     0.087 H 
ATOM     61  C23 1C5 d   1      11.836   9.382  18.774  0.00  0.00    -0.050 A 
ATOM     62  C24 1C5 d   1      11.428  10.721  18.867  0.00  0.00    -0.074 A 
ATOM     63  H27 1C5 d   1      12.681   9.025  19.352  0.00  0.00     0.087 H 
ATOM     64  H28 1C5 d   1      11.990  11.413  19.483  0.00  0.00     0.084 H 
BRANCH  59  65
ATOM     65  O4P 1C5 d   1      11.588   7.180  17.784  0.00  0.00    -0.240 OA
BRANCH  65  66
ATOM     66  P   1C5 d   1      12.456   6.853  16.545  0.00  0.00     0.427 P 
ATOM     67  O3P 1C5 d   1      13.883   7.084  16.859  0.00  0.00    -0.617 OA
ATOM     68  O2P 1C5 d   1      12.241   5.444  16.135  0.00  0.00    -0.617 OA
ATOM     69  O1P 1C5 d   1      12.049   7.711  15.388  0.00  0.00    -0.617 OA
ENDBRANCH  65  66
ENDBRANCH  59  65
ENDBRANCH  52  55
ENDBRANCH  50  52
BRANCH  50  70
ATOM     70  N4  1C5 d   1      11.620  13.753  17.071  0.00  0.00    -0.348 N 
ATOM     71  C25 1C5 d   1      12.111  13.599  15.854  0.00  0.00     0.214 C 
ATOM     72  O6  1C5 d   1      11.419  13.216  14.915  0.00  0.00    -0.274 OA
ATOM     73  H36 1C5 d   1      12.201  13.972  17.855  0.00  0.00     0.163 HD
BRANCH  71  74
ATOM     74  C26 1C5 d   1      13.613  13.862  15.738  0.00  0.00    -0.003 C 
ATOM     75  H29 1C5 d   1      13.932  13.711  14.696  0.00  0.00     0.040 H 
ATOM     76  H30 1C5 d   1      14.159  13.167  16.393  0.00  0.00     0.040 H 
ATOM     77  H31 1C5 d   1      13.829  14.897  16.041  0.00  0.00     0.040 H 
ENDBRANCH  71  74
ENDBRANCH  50  70
ENDBRANCH  47  50
ENDBRANCH   1  46
TORSDOF 17
