REMARK  1 active torsions:
REMARK  status: ('A' for Active; 'I' for Inactive)
REMARK    1  A    between atoms: N1_3  and  CN1_4 
ROOT
ATOM      1  N3  1MC d   1      18.462  14.393  19.933  0.00  0.00    -0.189 NA
ATOM      2  C4  1MC d   1      18.598  13.050  19.916  0.00  0.00     0.126 A 
ATOM      3  N1  1MC d   1      16.775  14.451  21.672  0.00  0.00    -0.324 N 
ATOM      4  C2  1MC d   1      17.597  14.997  20.761  0.00  0.00     0.281 A 
ATOM      5  O2  1MC d   1      17.531  16.382  20.674  0.00  0.00    -0.149 OA
ATOM      6  N4  1MC d   1      19.434  12.462  19.068  0.00  0.00    -0.384 N 
ATOM      7  C5  1MC d   1      17.794  12.345  20.829  0.00  0.00    -0.024 A 
ATOM      8  C6  1MC d   1      16.921  13.119  21.663  0.00  0.00    -0.014 A 
ATOM      9  H4  1MC d   1      19.528  11.436  19.066  0.00  0.00     0.157 HD
ATOM     10  H5  1MC d   1      19.988  13.032  18.413  0.00  0.00     0.157 HD
ATOM     11  H6  1MC d   1      17.832  11.259  20.900  0.00  0.00     0.091 H 
ATOM     12  H7  1MC d   1      16.307  12.561  22.369  0.00  0.00     0.111 H 
ENDROOT
BRANCH   3  13
ATOM     13  CN1 1MC d   1      15.851  15.168  22.543  0.00  0.00    -0.011 C 
ATOM     14  H1  1MC d   1      15.314  14.449  23.179  0.00  0.00     0.057 H 
ATOM     15  H2  1MC d   1      15.128  15.726  21.930  0.00  0.00     0.057 H 
ATOM     16  H3  1MC d   1      16.414  15.870  23.176  0.00  0.00     0.057 H 
ENDBRANCH   3  13
TORSDOF 1
