REMARK  24 active torsions:
REMARK  status: ('A' for Active; 'I' for Inactive)
REMARK    1  A    between atoms: C1_1  and  O43_43 
REMARK    2  A    between atoms: C1_1  and  C2_2 
REMARK       I    between atoms: N7_42  and  C8_7 
REMARK    3  A    between atoms: C8_7  and  C9_8 
REMARK    4  A    between atoms: C9_8  and  C46_46 
REMARK    5  A    between atoms: C9_8  and  C10_9 
REMARK    6  A    between atoms: C12_11  and  O17_16 
REMARK    7  A    between atoms: C13_12  and  O48_48 
REMARK    8  A    between atoms: C14_13  and  O15_14 
REMARK    9  A    between atoms: O15_14  and  C18_17 
REMARK   10  A    between atoms: C46_46  and  C16_15 
REMARK   11  A    between atoms: O17_16  and  C20_19 
REMARK   12  A    between atoms: O48_48  and  C19_18 
REMARK   13  A    between atoms: O50_50  and  C21_20 
REMARK   14  A    between atoms: C26_25  and  C25_24 
REMARK   15  A    between atoms: O43_43  and  C26_25 
REMARK   16  A    between atoms: C26_25  and  C27_26 
REMARK   17  A    between atoms: C27_26  and  C28_27 
REMARK   18  A    between atoms: C28_27  and  C29_28 
REMARK   19  A    between atoms: C31_30  and  O49_49 
REMARK   20  A    between atoms: C32_31  and  O50_50 
REMARK   21  A    between atoms: C35_34  and  O36_35 
REMARK   22  A    between atoms: O36_35  and  C37_36 
REMARK   23  A    between atoms: C37_36  and  C38_37 
REMARK   24  A    between atoms: O49_49  and  C42_41 
ROOT
ATOM      1  C2  AP1 d   1       5.016   1.505  -3.487  0.00  0.00     0.098 C 
ATOM      2  C3  AP1 d   1       4.072   0.701  -2.558  0.00  0.00    -0.037 C 
ATOM      3  C4  AP1 d   1       4.006  -0.790  -3.025  0.00  0.00    -0.061 C 
ATOM      4  C5  AP1 d   1       3.439  -0.885  -4.463  0.00  0.00    -0.050 C 
ATOM      5  C6  AP1 d   1       4.310  -0.050  -5.423  0.00  0.00    -0.001 C 
ATOM      6  C8  AP1 d   1       4.486   2.400  -5.752  0.00  0.00     0.229 C 
ATOM      7  N7  AP1 d   1       4.532   1.344  -4.900  0.00  0.00    -0.338 N 
ATOM      8  O45 AP1 d   1       4.763   3.522  -5.386  0.00  0.00    -0.273 OA
ATOM      9  H1  AP1 d   1       4.911   2.563  -3.205  0.00  0.00     0.088 H 
ATOM     10  H2  AP1 d   1       3.064   1.139  -2.595  0.00  0.00     0.036 H 
ATOM     11  H3  AP1 d   1       4.452   0.743  -1.527  0.00  0.00     0.036 H 
ATOM     12  H4  AP1 d   1       3.355  -1.355  -2.341  0.00  0.00     0.033 H 
ATOM     13  H5  AP1 d   1       5.018  -1.220  -3.006  0.00  0.00     0.033 H 
ATOM     14  H6  AP1 d   1       2.409  -0.500  -4.476  0.00  0.00     0.035 H 
ATOM     15  H7  AP1 d   1       3.442  -1.936  -4.788  0.00  0.00     0.035 H 
ATOM     16  H8  AP1 d   1       3.807   0.011  -6.399  0.00  0.00     0.064 H 
ATOM     17  H9  AP1 d   1       5.285  -0.546  -5.543  0.00  0.00     0.064 H 
ENDROOT
BRANCH   1  18
ATOM     18  C1  AP1 d   1       6.513   1.185  -3.420  0.00  0.00     0.282 C 
ATOM     19  O44 AP1 d   1       7.090   1.230  -2.348  0.00  0.00    -0.263 OA
BRANCH  18  20
ATOM     20  O43 AP1 d   1       7.084   0.851  -4.599  0.00  0.00    -0.310 OA
BRANCH  20  21
ATOM     21  C26 AP1 d   1       8.495   0.496  -4.640  0.00  0.00     0.073 C 
ATOM     22  H30 AP1 d   1       8.915   0.504  -3.623  0.00  0.00     0.091 H 
BRANCH  21  23
ATOM     23  C27 AP1 d   1       9.322   1.481  -5.512  0.00  0.00    -0.033 C 
ATOM     24  H31 AP1 d   1       8.927   2.497  -5.362  0.00  0.00     0.037 H 
ATOM     25  H32 AP1 d   1       9.207   1.195  -6.568  0.00  0.00     0.037 H 
BRANCH  23  26
ATOM     26  C28 AP1 d   1      10.829   1.484  -5.166  0.00  0.00    -0.038 C 
ATOM     27  H33 AP1 d   1      11.300   2.307  -5.724  0.00  0.00     0.040 H 
ATOM     28  H34 AP1 d   1      11.252   0.525  -5.500  0.00  0.00     0.040 H 
BRANCH  26  29
ATOM     29  C29 AP1 d   1      11.183   1.661  -3.681  0.00  0.00    -0.055 A 
ATOM     30  C34 AP1 d   1      11.389   0.579  -2.811  0.00  0.00    -0.074 A 
ATOM     31  C33 AP1 d   1      11.716   0.782  -1.467  0.00  0.00    -0.048 A 
ATOM     32  H37 AP1 d   1      11.293  -0.433  -3.188  0.00  0.00     0.084 H 
ATOM     33  C32 AP1 d   1      11.843   2.083  -0.964  0.00  0.00     0.101 A 
ATOM     34  H36 AP1 d   1      11.871  -0.069  -0.813  0.00  0.00     0.087 H 
ATOM     35  C31 AP1 d   1      11.638   3.175  -1.822  0.00  0.00     0.102 A 
ATOM     36  C30 AP1 d   1      11.310   2.957  -3.173  0.00  0.00    -0.042 A 
ATOM     37  H35 AP1 d   1      11.154   3.806  -3.829  0.00  0.00     0.088 H 
BRANCH  33  38
ATOM     38  O50 AP1 d   1      12.173   2.351   0.376  0.00  0.00    -0.353 OA
BRANCH  38  39
ATOM     39  C21 AP1 d   1      12.477   1.283   1.296  0.00  0.00     0.010 C 
ATOM     40  H24 AP1 d   1      12.707   1.706   2.285  0.00  0.00     0.066 H 
ATOM     41  H25 AP1 d   1      13.346   0.718   0.928  0.00  0.00     0.066 H 
ATOM     42  H26 AP1 d   1      11.610   0.611   1.377  0.00  0.00     0.066 H 
ENDBRANCH  38  39
ENDBRANCH  33  38
BRANCH  35  43
ATOM     43  O49 AP1 d   1      11.773   4.468  -1.287  0.00  0.00    -0.353 OA
BRANCH  43  44
ATOM     44  C42 AP1 d   1      11.123   5.595  -1.892  0.00  0.00     0.010 C 
ATOM     45  H41 AP1 d   1      11.358   6.505  -1.320  0.00  0.00     0.066 H 
ATOM     46  H42 AP1 d   1      10.035   5.434  -1.893  0.00  0.00     0.066 H 
ATOM     47  H43 AP1 d   1      11.478   5.711  -2.927  0.00  0.00     0.066 H 
ENDBRANCH  43  44
ENDBRANCH  35  43
ENDBRANCH  26  29
ENDBRANCH  23  26
ENDBRANCH  21  23
BRANCH  21  48
ATOM     48  C25 AP1 d   1       8.489  -0.942  -5.189  0.00  0.00    -0.026 A 
ATOM     49  C41 AP1 d   1       8.677  -2.024  -4.310  0.00  0.00    -0.042 A 
ATOM     50  C35 AP1 d   1       8.650  -3.363  -4.768  0.00  0.00     0.070 A 
ATOM     51  H40 AP1 d   1       8.847  -1.828  -3.257  0.00  0.00     0.088 H 
ATOM     52  C24 AP1 d   1       8.432  -3.613  -6.139  0.00  0.00    -0.051 A 
ATOM     53  C23 AP1 d   1       8.248  -2.546  -7.022  0.00  0.00    -0.080 A 
ATOM     54  H29 AP1 d   1       8.407  -4.632  -6.507  0.00  0.00     0.087 H 
ATOM     55  C22 AP1 d   1       8.275  -1.225  -6.544  0.00  0.00    -0.074 A 
ATOM     56  H28 AP1 d   1       8.084  -2.737  -8.076  0.00  0.00     0.083 H 
ATOM     57  H27 AP1 d   1       8.127  -0.407  -7.239  0.00  0.00     0.084 H 
BRANCH  50  58
ATOM     58  O36 AP1 d   1       8.819  -4.413  -3.828  0.00  0.00    -0.341 OA
BRANCH  58  59
ATOM     59  C37 AP1 d   1       9.996  -5.251  -3.722  0.00  0.00     0.105 C 
ATOM     60  H38 AP1 d   1       9.755  -6.146  -3.129  0.00  0.00     0.091 H 
ATOM     61  H39 AP1 d   1      10.801  -4.689  -3.227  0.00  0.00     0.091 H 
BRANCH  59  62
ATOM     62  C38 AP1 d   1      10.453  -5.672  -5.103  0.00  0.00     0.198 C 
ATOM     63  O40 AP1 d   1       9.761  -6.539  -5.726  0.00  0.00    -0.646 OA
ATOM     64  O39 AP1 d   1      11.500  -5.149  -5.578  0.00  0.00    -0.646 OA
ENDBRANCH  59  62
ENDBRANCH  58  59
ENDBRANCH  50  58
ENDBRANCH  21  48
ENDBRANCH  20  21
ENDBRANCH  18  20
ENDBRANCH   1  18
BRANCH   6  65
ATOM     65  C9  AP1 d   1       4.074   2.186  -7.208  0.00  0.00     0.049 C 
ATOM     66  H10 AP1 d   1       3.309   1.396  -7.237  0.00  0.00     0.062 H 
BRANCH  65  67
ATOM     67  C46 AP1 d   1       3.447   3.482  -7.806  0.00  0.00    -0.053 C 
ATOM     68  H44 AP1 d   1       3.330   3.354  -8.892  0.00  0.00     0.034 H 
ATOM     69  H45 AP1 d   1       4.119   4.329  -7.606  0.00  0.00     0.034 H 
BRANCH  67  70
ATOM     70  C16 AP1 d   1       2.059   3.782  -7.182  0.00  0.00    -0.075 C 
ATOM     71  H12 AP1 d   1       1.648   4.700  -7.626  0.00  0.00     0.027 H 
ATOM     72  H13 AP1 d   1       2.167   3.917  -6.096  0.00  0.00     0.027 H 
ATOM     73  H14 AP1 d   1       1.378   2.942  -7.382  0.00  0.00     0.027 H 
ENDBRANCH  67  70
ENDBRANCH  65  67
BRANCH  65  74
ATOM     74  C10 AP1 d   1       5.278   1.712  -8.025  0.00  0.00    -0.040 A 
ATOM     75  C47 AP1 d   1       5.251   0.469  -8.663  0.00  0.00    -0.041 A 
ATOM     76  C14 AP1 d   1       6.375   0.000  -9.355  0.00  0.00     0.104 A 
ATOM     77  H46 AP1 d   1       4.353  -0.137  -8.622  0.00  0.00     0.088 H 
ATOM     78  C13 AP1 d   1       7.542   0.797  -9.414  0.00  0.00     0.135 A 
ATOM     79  C12 AP1 d   1       7.581   2.046  -8.794  0.00  0.00     0.104 A 
ATOM     80  C11 AP1 d   1       6.436   2.506  -8.108  0.00  0.00    -0.041 A 
ATOM     81  H11 AP1 d   1       6.449   3.483  -7.639  0.00  0.00     0.088 H 
BRANCH  76  82
ATOM     82  O15 AP1 d   1       6.352  -1.240  -9.981  0.00  0.00    -0.353 OA
BRANCH  82  83
ATOM     83  C18 AP1 d   1       5.322  -2.190  -9.656  0.00  0.00     0.010 C 
ATOM     84  H15 AP1 d   1       5.468  -3.106 -10.248  0.00  0.00     0.066 H 
ATOM     85  H16 AP1 d   1       4.338  -1.757  -9.887  0.00  0.00     0.066 H 
ATOM     86  H17 AP1 d   1       5.373  -2.434  -8.585  0.00  0.00     0.066 H 
ENDBRANCH  82  83
ENDBRANCH  76  82
BRANCH  78  87
ATOM     87  O48 AP1 d   1       8.671   0.342 -10.096  0.00  0.00    -0.351 OA
BRANCH  87  88
ATOM     88  C19 AP1 d   1       8.706   0.692 -11.494  0.00  0.00     0.011 C 
ATOM     89  H18 AP1 d   1       9.626   0.295 -11.948  0.00  0.00     0.067 H 
ATOM     90  H19 AP1 d   1       8.689   1.787 -11.598  0.00  0.00     0.067 H 
ATOM     91  H20 AP1 d   1       7.830   0.261 -12.002  0.00  0.00     0.067 H 
ENDBRANCH  87  88
ENDBRANCH  78  87
BRANCH  79  92
ATOM     92  O17 AP1 d   1       8.746   2.808  -8.868  0.00  0.00    -0.353 OA
BRANCH  92  93
ATOM     93  C20 AP1 d   1       8.810   4.097  -8.231  0.00  0.00     0.010 C 
ATOM     94  H21 AP1 d   1       9.802   4.540  -8.400  0.00  0.00     0.066 H 
ATOM     95  H22 AP1 d   1       8.639   3.981  -7.151  0.00  0.00     0.066 H 
ATOM     96  H23 AP1 d   1       8.037   4.755  -8.656  0.00  0.00     0.066 H 
ENDBRANCH  92  93
ENDBRANCH  79  92
ENDBRANCH  65  74
ENDBRANCH   6  65
TORSDOF 24
