REMARK  4 active torsions:
REMARK  status: ('A' for Active; 'I' for Inactive)
REMARK    1  A    between atoms: CA5_6  and  CC3_16 
REMARK    2  A    between atoms: CC2_15  and  CB5_12 
REMARK    3  A    between atoms: NC1_14  and  CD1_19 
REMARK    4  A    between atoms: CD1_19  and  CE1_20 
ROOT
ATOM      1  NC1 SB6 d   1       0.339  13.460  30.326  0.00  0.00    -0.339 N 
ATOM      2  CC2 SB6 d   1       1.388  12.463  30.247  0.00  0.00     0.075 A 
ATOM      3  CC3 SB6 d   1       2.719  13.168  30.237  0.00  0.00     0.096 A 
ATOM      4  NC4 SB6 d   1       2.503  14.556  30.321  0.00  0.00    -0.241 NA
ATOM      5  CC5 SB6 d   1       1.132  14.606  30.364  0.00  0.00     0.067 A 
ATOM      6  H9  SB6 d   1       0.645  15.578  30.430  0.00  0.00     0.143 H 
ENDROOT
BRANCH   1   7
ATOM      7  CD1 SB6 d   1      -1.185  13.402  30.341  0.00  0.00     0.004 C 
ATOM      8  H10 SB6 d   1      -1.561  14.314  30.827  0.00  0.00     0.065 H 
ATOM      9  H11 SB6 d   1      -1.492  12.522  30.925  0.00  0.00     0.065 H 
BRANCH   7  10
ATOM     10  CE1 SB6 d   1      -1.838  13.298  28.907  0.00  0.00    -0.038 A 
ATOM     11  CE3 SB6 d   1      -1.932  14.578  28.058  0.00  0.00    -0.060 A 
ATOM     12  CE2 SB6 d   1      -1.004  13.446  27.607  0.00  0.00    -0.060 A 
ATOM     13  H15 SB6 d   1      -1.505  15.519  28.436  0.00  0.00     0.033 H 
ATOM     14  H16 SB6 d   1      -2.850  14.793  27.491  0.00  0.00     0.033 H 
ATOM     15  H13 SB6 d   1      -1.257  12.847  26.720  0.00  0.00     0.033 H 
ATOM     16  H14 SB6 d   1       0.087  13.573  27.665  0.00  0.00     0.033 H 
ATOM     17  H12 SB6 d   1      -2.671  12.581  28.936  0.00  0.00     0.042 H 
ENDBRANCH   7  10
ENDBRANCH   1   7
BRANCH   2  18
ATOM     18  CB5 SB6 d   1       1.136  11.047  30.113  0.00  0.00    -0.004 A 
ATOM     19  CB6 SB6 d   1       0.499  10.501  28.943  0.00  0.00    -0.054 A 
ATOM     20  CB1 SB6 d   1       0.271   9.103  28.864  0.00  0.00     0.003 A 
ATOM     21  H8  SB6 d   1       0.197  11.152  28.131  0.00  0.00     0.087 H 
ATOM     22  NB2 SB6 d   1       0.648   8.287  29.869  0.00  0.00    -0.273 NA
ATOM     23  H5  SB6 d   1      -0.211   8.687  27.987  0.00  0.00     0.114 H 
ATOM     24  CB3 SB6 d   1       1.249   8.745  30.985  0.00  0.00     0.003 A 
ATOM     25  CB4 SB6 d   1       1.515  10.129  31.154  0.00  0.00    -0.054 A 
ATOM     26  H6  SB6 d   1       1.533   8.047  31.764  0.00  0.00     0.114 H 
ATOM     27  H7  SB6 d   1       1.997  10.489  32.055  0.00  0.00     0.087 H 
ENDBRANCH   2  18
BRANCH   3  28
ATOM     28  CA5 SB6 d   1       4.045  12.609  30.212  0.00  0.00    -0.005 A 
ATOM     29  CA4 SB6 d   1       4.467  11.680  29.178  0.00  0.00    -0.068 A 
ATOM     30  CA3 SB6 d   1       5.776  11.124  29.184  0.00  0.00    -0.045 A 
ATOM     31  H3  SB6 d   1       3.774  11.407  28.390  0.00  0.00     0.085 H 
ATOM     32  CA2 SB6 d   1       6.687  11.482  30.220  0.00  0.00     0.116 A 
ATOM     33  H2  SB6 d   1       6.079  10.433  28.406  0.00  0.00     0.088 H 
ATOM     34  FA1 SB6 d   1       7.939  10.952  30.250  0.00  0.00    -0.206 F 
ATOM     35  CA1 SB6 d   1       6.298  12.392  31.232  0.00  0.00    -0.045 A 
ATOM     36  CA6 SB6 d   1       4.996  12.949  31.230  0.00  0.00    -0.068 A 
ATOM     37  H1  SB6 d   1       7.000  12.664  32.012  0.00  0.00     0.088 H 
ATOM     38  H4  SB6 d   1       4.713  13.645  32.012  0.00  0.00     0.085 H 
ENDBRANCH   3  28
TORSDOF 4
