REMARK  3 active torsions:
REMARK  status: ('A' for Active; 'I' for Inactive)
REMARK    1  A    between atoms: CA6_6  and  ND1_21 
REMARK    2  A    between atoms: CD4_24  and  CB6_12 
REMARK    3  A    between atoms: CC4_17  and  NC7_20 
ROOT
ATOM      1  CC1 SB4 d   1       2.291  10.509  30.595  0.00  0.00    -0.035 A 
ATOM      2  CC2 SB4 d   1       1.766  11.509  29.687  0.00  0.00     0.106 A 
ATOM      3  NC3 SB4 d   1       0.789  11.155  28.788  0.00  0.00    -0.061 NA
ATOM      4  CC4 SB4 d   1       0.349   9.899  28.772  0.00  0.00     0.720 A 
ATOM      5  NC5 SB4 d   1       0.774   8.917  29.564  0.00  0.00    -0.075 NA
ATOM      6  CC6 SB4 d   1       1.737   9.202  30.473  0.00  0.00     0.023 A 
ATOM      7  ND1 SB4 d   1       1.358  13.997  29.661  0.00  0.00    -0.333 N 
ATOM      8  CD2 SB4 d   1       2.298  15.014  29.689  0.00  0.00     0.067 A 
ATOM      9  ND3 SB4 d   1       3.624  14.774  29.743  0.00  0.00    -0.241 NA
ATOM     10  CD4 SB4 d   1       3.647  13.373  29.754  0.00  0.00     0.097 A 
ATOM     11  CD5 SB4 d   1       2.243  12.875  29.698  0.00  0.00     0.095 A 
ATOM     12  H16 SB4 d   1       3.059  10.742  31.323  0.00  0.00     0.089 H 
ATOM     13  H17 SB4 d   1       2.096   8.414  31.125  0.00  0.00     0.115 H 
ATOM     14  H20 SB4 d   1       1.953  16.047  29.667  0.00  0.00     0.143 H 
ENDROOT
BRANCH   7  15
ATOM     15  CA6 SB4 d   1      -0.146  14.102  29.615  0.00  0.00     0.021 C 
ATOM     16  CA1 SB4 d   1      -0.715  13.934  31.048  0.00  0.00    -0.023 C 
ATOM     17  CA2 SB4 d   1      -2.256  14.053  31.045  0.00  0.00     0.084 C 
ATOM     18  H1  SB4 d   1      -0.294  14.716  31.697  0.00  0.00     0.038 H 
ATOM     19  H2  SB4 d   1      -0.431  12.944  31.435  0.00  0.00     0.038 H 
ATOM     20  NA3 SB4 d   1      -2.775  15.293  30.348  0.00  0.00    -0.075 N 
ATOM     21  H3  SB4 d   1      -2.604  14.071  32.088  0.00  0.00     0.075 H 
ATOM     22  H4  SB4 d   1      -2.670  13.171  30.536  0.00  0.00     0.075 H 
ATOM     23  CA4 SB4 d   1      -2.191  15.613  28.992  0.00  0.00     0.084 C 
ATOM     24  H5  SB4 d   1      -2.592  16.080  30.951  0.00  0.00     0.277 HD
ATOM     25  H6  SB4 d   1      -3.770  15.183  30.232  0.00  0.00     0.277 HD
ATOM     26  CA5 SB4 d   1      -0.646  15.436  28.968  0.00  0.00    -0.023 C 
ATOM     27  H7  SB4 d   1      -2.433  16.655  28.738  0.00  0.00     0.075 H 
ATOM     28  H8  SB4 d   1      -2.637  14.940  28.245  0.00  0.00     0.075 H 
ATOM     29  H9  SB4 d   1      -0.193  16.276  29.515  0.00  0.00     0.038 H 
ATOM     30  H10 SB4 d   1      -0.312  15.458  27.920  0.00  0.00     0.038 H 
ATOM     31  H11 SB4 d   1      -0.522  13.274  28.997  0.00  0.00     0.073 H 
ENDBRANCH   7  15
BRANCH  10  32
ATOM     32  CB6 SB4 d   1       4.889  12.662  29.869  0.00  0.00    -0.005 A 
ATOM     33  CB5 SB4 d   1       5.711  12.856  31.030  0.00  0.00    -0.068 A 
ATOM     34  CB4 SB4 d   1       6.940  12.169  31.176  0.00  0.00    -0.045 A 
ATOM     35  H15 SB4 d   1       5.386  13.539  31.806  0.00  0.00     0.085 H 
ATOM     36  CB3 SB4 d   1       7.373  11.274  30.164  0.00  0.00     0.116 A 
ATOM     37  H14 SB4 d   1       7.549  12.326  32.059  0.00  0.00     0.088 H 
ATOM     38  CB2 SB4 d   1       6.589  11.063  29.013  0.00  0.00    -0.045 A 
ATOM     39  FB7 SB4 d   1       8.551  10.615  30.303  0.00  0.00    -0.206 F 
ATOM     40  CB1 SB4 d   1       5.362  11.746  28.861  0.00  0.00    -0.068 A 
ATOM     41  H13 SB4 d   1       6.927  10.377  28.245  0.00  0.00     0.088 H 
ATOM     42  H12 SB4 d   1       4.766  11.579  27.971  0.00  0.00     0.085 H 
ENDBRANCH  10  32
BRANCH   4  43
ATOM     43  NC7 SB4 d   1      -0.583   9.605  27.902  0.00  0.00    -0.231 N 
ATOM     44  H18 SB4 d   1      -0.956   8.646  27.851  0.00  0.00     0.174 HD
ATOM     45  H19 SB4 d   1      -0.944  10.332  27.268  0.00  0.00     0.174 HD
ENDBRANCH   4  43
TORSDOF 3
