REMARK  29 active torsions:
REMARK  status: ('A' for Active; 'I' for Inactive)
REMARK    1  A    between atoms: C_1  and  CH3_3 
REMARK       I    between atoms: N_4  and  C_1 
REMARK    2  A    between atoms: CA_5  and  N_4 
REMARK    3  A    between atoms: CA_5  and  C_11 
REMARK    4  A    between atoms: CB_6  and  CA_5 
REMARK    5  A    between atoms: SG_7  and  CB_6 
REMARK    6  A    between atoms: CD_8  and  SG_7 
REMARK    7  A    between atoms: CE_9  and  CD_8 
REMARK    8  A    between atoms: NZ_10  and  CE_9 
REMARK       I    between atoms: C_53  and  NZ_10 
REMARK    9  A    between atoms: CA_14  and  N_13 
REMARK   10  A    between atoms: CA_14  and  CB_17 
REMARK   11  A    between atoms: C_15  and  CA_14 
REMARK       I    between atoms: N_29  and  C_15 
REMARK   12  A    between atoms: CB_17  and  CG_18 
REMARK   13  A    between atoms: CZ_23  and  OH_24 
REMARK   14  A    between atoms: OH_24  and  P_25 
REMARK   15  A    between atoms: N_29  and  CA_30 
REMARK   16  A    between atoms: CA_30  and  C_31 
REMARK   17  A    between atoms: CA_30  and  CB_33 
REMARK       I    between atoms: C_31  and  N_36 
REMARK   18  A    between atoms: CB_33  and  CG1_34 
REMARK   19  A    between atoms: CB_33  and  CG2_35 
REMARK   20  A    between atoms: N_36  and  CA_37 
REMARK   21  A    between atoms: CA_37  and  C_38 
REMARK   22  A    between atoms: CA_37  and  CB_40 
REMARK       I    between atoms: C_38  and  N_44 
REMARK   23  A    between atoms: CB_40  and  CG_41 
REMARK       I    between atoms: CG_41  and  ND2_43 
REMARK   24  A    between atoms: N_44  and  CA_45 
REMARK   25  A    between atoms: CA_45  and  C_46 
REMARK   26  A    between atoms: CA_45  and  CB_48 
REMARK       I    between atoms: C_46  and  N_51 
REMARK   27  A    between atoms: CB_48  and  CG1_49 
REMARK   28  A    between atoms: CB_48  and  CG2_50 
REMARK   29  A    between atoms: CA_52  and  C_53 
ROOT
ATOM      1  N   VAL d   1      36.597  27.461  14.867  0.00  0.00    -0.346 N 
ATOM      2  H39 VAL d   1      36.202  26.705  15.389  0.00  0.00     0.163 HD
ATOM      3  C   ASN d   1      36.532  27.435  13.541  0.00  0.00     0.241 C 
ATOM      4  O   ASN d   1      36.877  28.385  12.841  0.00  0.00    -0.271 OA
ENDROOT
BRANCH   3   5
ATOM      5  CA  ASN d   1      35.919  26.194  12.906  0.00  0.00     0.097 C 
ATOM      6  H34 ASN d   1      36.636  25.858  12.142  0.00  0.00     0.088 H 
BRANCH   5   7
ATOM      7  CB  ASN d   1      34.620  26.541  12.169  0.00  0.00     0.036 C 
ATOM      8  H35 ASN d   1      34.313  25.671  11.570  0.00  0.00     0.051 H 
ATOM      9  H36 ASN d   1      34.812  27.395  11.503  0.00  0.00     0.051 H 
BRANCH   7  10
ATOM     10  CG  ASN d   1      33.493  26.903  13.105  0.00  0.00     0.217 C 
ATOM     11  OD1 ASN d   1      33.359  26.329  14.191  0.00  0.00    -0.274 OA
ATOM     12  ND2 ASN d   1      32.657  27.839  12.685  0.00  0.00    -0.370 N 
ATOM     13  H37 ASN d   1      31.891  28.120  13.262  0.00  0.00     0.159 HD
ATOM     14  H38 ASN d   1      32.792  28.265  11.790  0.00  0.00     0.159 HD
ENDBRANCH   7  10
ENDBRANCH   5   7
BRANCH   5  15
ATOM     15  N   ASN d   1      35.737  25.058  13.813  0.00  0.00    -0.346 N 
ATOM     16  C   VAL d   1      36.732  24.213  14.090  0.00  0.00     0.241 C 
ATOM     17  O   VAL d   1      37.879  24.375  13.674  0.00  0.00    -0.271 OA
ATOM     18  H33 ASN d   1      34.843  24.912  14.236  0.00  0.00     0.163 HD
BRANCH  16  19
ATOM     19  CA  VAL d   1      36.417  23.058  15.041  0.00  0.00     0.092 C 
ATOM     20  H25 VAL d   1      37.366  22.642  15.411  0.00  0.00     0.088 H 
BRANCH  19  21
ATOM     21  CB  VAL d   1      35.653  21.939  14.300  0.00  0.00    -0.033 C 
ATOM     22  H26 VAL d   1      34.656  22.315  14.028  0.00  0.00     0.042 H 
BRANCH  21  23
ATOM     23  CG1 VAL d   1      36.389  21.538  13.019  0.00  0.00    -0.071 C 
ATOM     24  H27 VAL d   1      35.828  20.741  12.508  0.00  0.00     0.028 H 
ATOM     25  H28 VAL d   1      37.395  21.173  13.273  0.00  0.00     0.028 H 
ATOM     26  H29 VAL d   1      36.472  22.411  12.355  0.00  0.00     0.028 H 
ENDBRANCH  21  23
BRANCH  21  27
ATOM     27  CG2 VAL d   1      35.488  20.733  15.215  0.00  0.00    -0.071 C 
ATOM     28  H30 VAL d   1      34.958  21.037  16.130  0.00  0.00     0.028 H 
ATOM     29  H31 VAL d   1      36.479  20.335  15.480  0.00  0.00     0.028 H 
ATOM     30  H32 VAL d   1      34.908  19.956  14.696  0.00  0.00     0.028 H 
ENDBRANCH  21  27
ENDBRANCH  19  21
BRANCH  19  31
ATOM     31  N   VAL d   1      35.654  23.541  16.177  0.00  0.00    -0.346 N 
ATOM     32  C   PTR d   1      36.127  24.484  16.981  0.00  0.00     0.249 C 
ATOM     33  O   PTR d   1      37.235  24.991  16.840  0.00  0.00    -0.271 OA
ATOM     34  H24 VAL d   1      34.750  23.154  16.358  0.00  0.00     0.163 HD
BRANCH  32  35
ATOM     35  CA  PTR d   1      35.231  24.902  18.128  0.00  0.00     0.179 C 
ATOM     36  H17 PTR d   1      34.825  23.994  18.597  0.00  0.00     0.099 H 
BRANCH  35  37
ATOM     37  N   PTR d   1      35.985  25.638  19.124  0.00  0.00    -0.066 N 
ATOM     38  H14 PTR d   1      35.373  25.907  19.878  0.00  0.00     0.275 HD
ATOM     39  H15 PTR d   1      36.382  26.463  18.703  0.00  0.00     0.275 HD
ATOM     40  H16 PTR d   1      36.725  25.055  19.484  0.00  0.00     0.275 HD
ENDBRANCH  35  37
BRANCH  35  41
ATOM     41  CB  PTR d   1      34.067  25.752  17.633  0.00  0.00    -0.006 C 
ATOM     42  H18 PTR d   1      33.522  25.184  16.865  0.00  0.00     0.043 H 
ATOM     43  H19 PTR d   1      34.472  26.673  17.189  0.00  0.00     0.043 H 
BRANCH  41  44
ATOM     44  CG  PTR d   1      33.093  26.135  18.730  0.00  0.00    -0.056 A 
ATOM     45  CD2 PTR d   1      33.337  27.231  19.553  0.00  0.00    -0.074 A 
ATOM     46  CE2 PTR d   1      32.420  27.620  20.537  0.00  0.00    -0.050 A 
ATOM     47  H21 PTR d   1      34.255  27.794  19.430  0.00  0.00     0.084 H 
ATOM     48  CZ  PTR d   1      31.248  26.917  20.701  0.00  0.00     0.082 A 
ATOM     49  H23 PTR d   1      32.633  28.474  21.169  0.00  0.00     0.087 H 
ATOM     50  CE1 PTR d   1      30.987  25.816  19.899  0.00  0.00    -0.050 A 
ATOM     51  CD1 PTR d   1      31.911  25.430  18.920  0.00  0.00    -0.074 A 
ATOM     52  H22 PTR d   1      30.069  25.255  20.030  0.00  0.00     0.087 H 
ATOM     53  H20 PTR d   1      31.700  24.566  18.300  0.00  0.00     0.084 H 
BRANCH  48  54
ATOM     54  OH  PTR d   1      30.286  27.397  21.604  0.00  0.00    -0.240 OA
BRANCH  54  55
ATOM     55  P   PTR d   1      29.700  26.485  22.742  0.00  0.00     0.427 P 
ATOM     56  O3P PTR d   1      28.161  26.568  22.673  0.00  0.00    -0.617 OA
ATOM     57  O2P PTR d   1      30.181  25.028  22.551  0.00  0.00    -0.617 OA
ATOM     58  O1P PTR d   1      30.216  27.072  24.082  0.00  0.00    -0.617 OA
ENDBRANCH  54  55
ENDBRANCH  48  54
ENDBRANCH  41  44
ENDBRANCH  35  41
ENDBRANCH  32  35
ENDBRANCH  19  31
ENDBRANCH  16  19
ENDBRANCH   5  15
ENDBRANCH   3   5
BRANCH   1  59
ATOM     59  CA  VAL d   1      37.231  28.567  15.584  0.00  0.00     0.092 C 
ATOM     60  H40 VAL d   1      37.941  29.072  14.912  0.00  0.00     0.088 H 
BRANCH  59  61
ATOM     61  C   VAL d   1      37.986  27.935  16.764  0.00  0.00     0.243 C 
ATOM     62  O   VAL d   1      37.439  27.793  17.866  0.00  0.00    -0.271 OA
ATOM     63  N   PRO d   1      39.209  27.428  16.507  0.00  0.00    -0.337 N 
ATOM     64  CA  PRO d   1      40.035  26.800  17.541  0.00  0.00     0.091 C 
ATOM     65  CD  PRO d   1      39.907  27.388  15.207  0.00  0.00    -0.001 C 
ATOM     66  CB  PRO d   1      41.341  26.523  16.796  0.00  0.00    -0.036 C 
ATOM     67  H48 PRO d   1      39.579  25.867  17.904  0.00  0.00     0.087 H 
ATOM     68  CG  PRO d   1      40.890  26.269  15.410  0.00  0.00    -0.048 C 
ATOM     69  H49 PRO d   1      41.854  25.643  17.212  0.00  0.00     0.036 H 
ATOM     70  H50 PRO d   1      42.013  27.393  16.839  0.00  0.00     0.036 H 
ATOM     71  H51 PRO d   1      40.405  25.286  15.319  0.00  0.00     0.035 H 
ATOM     72  H52 PRO d   1      41.725  26.333  14.697  0.00  0.00     0.035 H 
ATOM     73  H53 PRO d   1      39.210  27.163  14.387  0.00  0.00     0.064 H 
ATOM     74  H54 PRO d   1      40.421  28.338  15.001  0.00  0.00     0.064 H 
BRANCH  64  75
ATOM     75  C   PRO d   1      40.258  27.753  18.719  0.00  0.00     0.240 C 
ATOM     76  O   PRO d   1      40.354  28.973  18.536  0.00  0.00    -0.271 OA
ATOM     77  NZ  SLZ d   1      40.350  27.184  19.917  0.00  0.00    -0.359 N 
ATOM     78  H12 SLZ d   1      40.278  26.188  19.964  0.00  0.00     0.162 HD
BRANCH  77  79
ATOM     79  CE  SLZ d   1      40.549  27.909  21.171  0.00  0.00     0.003 C 
ATOM     80  H10 SLZ d   1      41.396  27.463  21.713  0.00  0.00     0.065 H 
ATOM     81  H11 SLZ d   1      40.772  28.962  20.945  0.00  0.00     0.065 H 
BRANCH  79  82
ATOM     82  CD  SLZ d   1      39.304  27.840  22.048  0.00  0.00    -0.009 C 
ATOM     83  H8  SLZ d   1      39.380  28.626  22.813  0.00  0.00     0.051 H 
ATOM     84  H9  SLZ d   1      38.426  28.030  21.413  0.00  0.00     0.051 H 
BRANCH  82  85
ATOM     85  SG  SLZ d   1      39.061  26.259  22.887  0.00  0.00    -0.165 SA
BRANCH  85  86
ATOM     86  CB  SLZ d   1      37.967  25.424  21.729  0.00  0.00     0.002 C 
ATOM     87  H6  SLZ d   1      38.532  25.232  20.805  0.00  0.00     0.052 H 
ATOM     88  H7  SLZ d   1      37.663  24.467  22.178  0.00  0.00     0.052 H 
BRANCH  86  89
ATOM     89  CA  SLZ d   1      36.708  26.191  21.359  0.00  0.00     0.070 C 
ATOM     90  H5  SLZ d   1      36.987  27.130  20.859  0.00  0.00     0.084 H 
BRANCH  89  91
ATOM     91  N   SLZ d   1      35.930  26.497  22.549  0.00  0.00    -0.350 N 
ATOM     92  C   ACE d   1      35.454  27.712  22.816  0.00  0.00     0.214 C 
ATOM     93  O   ACE d   1      35.641  28.693  22.089  0.00  0.00    -0.274 OA
ATOM     94  H4  SLZ d   1      35.743  25.760  23.198  0.00  0.00     0.163 HD
BRANCH  92  95
ATOM     95  CH3 ACE d   1      34.657  27.844  24.100  0.00  0.00    -0.003 C 
ATOM     96  H1  ACE d   1      34.604  26.866  24.601  0.00  0.00     0.040 H 
ATOM     97  H2  ACE d   1      33.640  28.192  23.866  0.00  0.00     0.040 H 
ATOM     98  H3  ACE d   1      35.149  28.570  24.764  0.00  0.00     0.040 H 
ENDBRANCH  92  95
ENDBRANCH  89  91
BRANCH  89  99
ATOM     99  C   SLZ d   1      35.879  25.338  20.410  0.00  0.00     0.110 C 
ATOM    100  O   SLZ d   1      35.169  24.414  20.830  0.00  0.00    -0.305 OA
ATOM    101  H13 SLZ d   1      35.910  25.544  19.341  0.00  0.00     0.146 H 
ENDBRANCH  89  99
ENDBRANCH  86  89
ENDBRANCH  85  86
ENDBRANCH  82  85
ENDBRANCH  79  82
ENDBRANCH  77  79
ENDBRANCH  64  75
ENDBRANCH  59  61
BRANCH  59 102
ATOM    102  CB  VAL d   1      36.222  29.620  16.112  0.00  0.00    -0.033 C 
ATOM    103  H41 VAL d   1      35.639  29.168  16.928  0.00  0.00     0.042 H 
BRANCH 102 104
ATOM    104  CG1 VAL d   1      36.980  30.822  16.657  0.00  0.00    -0.071 C 
ATOM    105  H42 VAL d   1      36.264  31.568  17.031  0.00  0.00     0.028 H 
ATOM    106  H43 VAL d   1      37.587  31.267  15.855  0.00  0.00     0.028 H 
ATOM    107  H44 VAL d   1      37.637  30.500  17.479  0.00  0.00     0.028 H 
ENDBRANCH 102 104
BRANCH 102 108
ATOM    108  CG2 VAL d   1      35.255  30.061  15.014  0.00  0.00    -0.071 C 
ATOM    109  H45 VAL d   1      34.714  29.184  14.629  0.00  0.00     0.028 H 
ATOM    110  H46 VAL d   1      35.819  30.532  14.196  0.00  0.00     0.028 H 
ATOM    111  H47 VAL d   1      34.536  30.784  15.427  0.00  0.00     0.028 H 
ENDBRANCH 102 108
ENDBRANCH  59 102
ENDBRANCH   1  59
TORSDOF 29
