REMARK  12 active torsions:
REMARK  status: ('A' for Active; 'I' for Inactive)
REMARK    1  A    between atoms: NA_1  and  CA_2 
REMARK    2  A    between atoms: NA_1  and  CB_20 
REMARK    3  A    between atoms: NA_1  and  S_33 
REMARK    4  A    between atoms: CA_2  and  CB_3 
REMARK    5  A    between atoms: CA_2  and  C_6 
REMARK    6  A    between atoms: CB_3  and  CG1_4 
REMARK    7  A    between atoms: CB_3  and  CG2_5 
REMARK       I    between atoms: C_6  and  N_9 
REMARK    8  A    between atoms: N_9  and  O1_8 
REMARK    9  A    between atoms: CB_20  and  CG_21 
REMARK   10  A    between atoms: S_33  and  CG_36 
REMARK   11  A    between atoms: CZ_41  and  OH_42 
REMARK   12  A    between atoms: OH_42  and  CH_43 
ROOT
ATOM      1  NA  HAV d   1      -1.631   0.751   0.853  0.00  0.00    -0.288 N 
ENDROOT
BRANCH   1   2
ATOM      2  CA  HAV d   1      -2.485  -0.380   0.425  0.00  0.00     0.104 C 
ATOM      3  H1  HAV d   1      -3.454  -0.006   0.064  0.00  0.00     0.089 H 
BRANCH   2   4
ATOM      4  CB  HAV d   1      -2.680  -1.262   1.639  0.00  0.00    -0.032 C 
ATOM      5  H2  HAV d   1      -1.723  -1.367   2.171  0.00  0.00     0.042 H 
BRANCH   4   6
ATOM      6  CG1 HAV d   1      -3.173  -2.644   1.210  0.00  0.00    -0.071 C 
ATOM      7  H3  HAV d   1      -3.311  -3.276   2.099  0.00  0.00     0.028 H 
ATOM      8  H4  HAV d   1      -2.431  -3.107   0.543  0.00  0.00     0.028 H 
ATOM      9  H5  HAV d   1      -4.131  -2.543   0.679  0.00  0.00     0.028 H 
ENDBRANCH   4   6
BRANCH   4  10
ATOM     10  CG2 HAV d   1      -3.709  -0.614   2.565  0.00  0.00    -0.071 C 
ATOM     11  H6  HAV d   1      -3.352   0.380   2.872  0.00  0.00     0.028 H 
ATOM     12  H7  HAV d   1      -3.849  -1.244   3.456  0.00  0.00     0.028 H 
ATOM     13  H8  HAV d   1      -4.667  -0.511   2.034  0.00  0.00     0.028 H 
ENDBRANCH   4  10
ENDBRANCH   2   4
BRANCH   2  14
ATOM     14  C   HAV d   1      -1.796  -1.187  -0.689  0.00  0.00     0.265 C 
ATOM     15  O   HAV d   1      -0.621  -1.040  -0.957  0.00  0.00    -0.269 OA
ATOM     16  N   HAV d   1      -2.540  -2.035  -1.349  0.00  0.00    -0.236 N 
ATOM     17  H10 HAV d   1      -3.512  -2.120  -1.131  0.00  0.00     0.197 HD
BRANCH  16  18
ATOM     18  O1  HAV d   1      -1.981  -2.821  -2.356  0.00  0.00    -0.287 OA
ATOM     19  H9  HAV d   1      -1.620  -2.259  -3.031  0.00  0.00     0.244 HD
ENDBRANCH  16  18
ENDBRANCH   2  14
ENDBRANCH   1   2
BRANCH   1  20
ATOM     20  CB  3MP d   1      -0.207   0.390   1.127  0.00  0.00     0.031 C 
ATOM     21  H11 3MP d   1       0.454   0.956   0.455  0.00  0.00     0.072 H 
ATOM     22  H12 3MP d   1      -0.060  -0.688   0.964  0.00  0.00     0.072 H 
BRANCH  20  23
ATOM     23  CG  3MP d   1       0.112   0.734   2.560  0.00  0.00    -0.022 A 
ATOM     24  CD1 3MP d   1      -0.744   1.537   3.297  0.00  0.00    -0.072 A 
ATOM     25  CE1 3MP d   1      -0.409   1.819   4.612  0.00  0.00    -0.065 A 
ATOM     26  H13 3MP d   1      -1.651   1.934   2.857  0.00  0.00     0.084 H 
ATOM     27  CZ  3MP d   1       0.773   1.285   5.141  0.00  0.00     0.002 A 
ATOM     28  H15 3MP d   1      -1.052   2.443   5.222  0.00  0.00     0.085 H 
ATOM     29  NE2 3MP d   1       1.606   0.508   4.438  0.00  0.00    -0.273 NA
ATOM     30  H16 3MP d   1       1.026   1.512   6.170  0.00  0.00     0.114 H 
ATOM     31  CD2 3MP d   1       1.273   0.241   3.168  0.00  0.00     0.009 A 
ATOM     32  H14 3MP d   1       1.935  -0.387   2.583  0.00  0.00     0.115 H 
ENDBRANCH  20  23
ENDBRANCH   1  20
BRANCH   1  33
ATOM     33  S   MSB d   1      -1.847   2.164   0.070  0.00  0.00     0.261 S 
ATOM     34  OB1 MSB d   1      -1.434   3.192   0.966  0.00  0.00    -0.200 OA
ATOM     35  OB2 MSB d   1      -3.203   2.171  -0.354  0.00  0.00    -0.200 OA
BRANCH  33  36
ATOM     36  CG  MSB d   1      -0.849   2.184  -1.369  0.00  0.00     0.079 A 
ATOM     37  CD1 MSB d   1      -1.451   1.984  -2.606  0.00  0.00    -0.058 A 
ATOM     38  CE1 MSB d   1      -0.680   2.017  -3.766  0.00  0.00    -0.049 A 
ATOM     39  H17 MSB d   1      -2.518   1.803  -2.668  0.00  0.00     0.086 H 
ATOM     40  CZ  MSB d   1       0.699   2.242  -3.680  0.00  0.00     0.068 A 
ATOM     41  H19 MSB d   1      -1.147   1.869  -4.733  0.00  0.00     0.087 H 
ATOM     42  CE2 MSB d   1       1.304   2.434  -2.428  0.00  0.00    -0.049 A 
ATOM     43  CD2 MSB d   1       0.519   2.409  -1.269  0.00  0.00    -0.058 A 
ATOM     44  H20 MSB d   1       2.373   2.601  -2.359  0.00  0.00     0.087 H 
ATOM     45  H18 MSB d   1       0.976   2.564  -0.298  0.00  0.00     0.086 H 
BRANCH  40  46
ATOM     46  OH  MSB d   1       1.455   2.285  -4.830  0.00  0.00    -0.356 OA
BRANCH  46  47
ATOM     47  CH  MSB d   1       0.867   2.978  -5.922  0.00  0.00     0.010 C 
ATOM     48  H21 MSB d   1       1.550   2.952  -6.784  0.00  0.00     0.066 H 
ATOM     49  H22 MSB d   1       0.679   4.023  -5.635  0.00  0.00     0.066 H 
ATOM     50  H23 MSB d   1      -0.084   2.496  -6.193  0.00  0.00     0.066 H 
ENDBRANCH  46  47
ENDBRANCH  40  46
ENDBRANCH  33  36
ENDBRANCH   1  33
TORSDOF 12
