REMARK WARNING: 32 MAX_TORS EXCEEDED!!!
REMARK  41 active torsions:
REMARK  status: ('A' for Active; 'I' for Inactive)
REMARK    1  A    between atoms: N_1  and  CA_2 
REMARK    2  A    between atoms: CA_2  and  C_3 
REMARK    3  A    between atoms: CA_2  and  CB_5 
REMARK       I    between atoms: C_3  and  N_10 
REMARK    4  A    between atoms: CB_5  and  CG_6 
REMARK    5  A    between atoms: CG_6  and  CD_7 
REMARK    6  A    between atoms: CD_7  and  CE_8 
REMARK    7  A    between atoms: CE_8  and  NZ_9 
REMARK    8  A    between atoms: CA_11  and  C_12 
REMARK       I    between atoms: C_12  and  N_17 
REMARK    9  A    between atoms: N_17  and  CA_18 
REMARK   10  A    between atoms: CA_18  and  C_19 
REMARK   11  A    between atoms: CA_18  and  CB_21 
REMARK       I    between atoms: C_19  and  N_28 
REMARK   12  A    between atoms: CB_21  and  CG_22 
REMARK   13  A    between atoms: N_28  and  CA_29 
REMARK   14  A    between atoms: CA_29  and  C_30 
REMARK   15  A    between atoms: CA_29  and  CB_32 
REMARK       I    between atoms: C_30  and  N_44 
REMARK   16  A    between atoms: CB_32  and  CG_33 
REMARK   17  A    between atoms: CZ_38  and  OH_39 
REMARK   18  A    between atoms: OH_39  and  P_40 
REMARK   19  A    between atoms: N_44  and  CA_45 
REMARK   20  A    between atoms: CA_45  and  C_46 
REMARK   21  A    between atoms: CA_45  and  CB_48 
REMARK       I    between atoms: C_46  and  N_51 
REMARK   22  A    between atoms: CB_48  and  CG1_49 
REMARK   23  A    between atoms: CB_48  and  CG2_50 
REMARK   24  A    between atoms: N_51  and  CA_52 
REMARK   25  A    between atoms: CA_52  and  C_53 
REMARK   26  A    between atoms: CA_52  and  CB_55 
REMARK       I    between atoms: C_53  and  N_59 
REMARK   27  A    between atoms: CB_55  and  CG_56 
REMARK       I    between atoms: CG_56  and  ND2_58 
REMARK   28  A    between atoms: N_59  and  CA_60 
REMARK   29  A    between atoms: CA_60  and  C_61 
REMARK   30  A    between atoms: CA_60  and  CB_63 
REMARK       I    between atoms: C_61  and  N_66 
REMARK   31  A    between atoms: CB_63  and  CG1_64 
REMARK   32  A    between atoms: CB_63  and  CG2_65 
REMARK   33  A    between atoms: N_66  and  CA_67 
REMARK   34  A    between atoms: CA_67  and  C_68 
REMARK   35  A    between atoms: CA_67  and  CB_70 
REMARK       I    between atoms: C_68  and  N_75 
REMARK   36  A    between atoms: CB_70  and  CG_71 
REMARK   37  A    between atoms: CG_71  and  CD_72 
REMARK   38  A    between atoms: N_75  and  CA_76 
REMARK   39  A    between atoms: CA_76  and  C_77 
REMARK   40  A    between atoms: CA_76  and  CB_79 
REMARK   41  A    between atoms: CB_79  and  CG_80 
ROOT
ATOM      1  C   PTR d   1      35.564  25.971  17.769  0.00  0.00     0.241 C 
ATOM      2  O   PTR d   1      36.600  26.497  18.170  0.00  0.00    -0.271 OA
ATOM      3  N   VAL d   1      35.417  24.660  17.660  0.00  0.00    -0.346 N 
ATOM      4  H40 VAL d   1      34.552  24.301  17.311  0.00  0.00     0.163 HD
ENDROOT
BRANCH   1   5
ATOM      5  CA  PTR d   1      34.366  26.813  17.377  0.00  0.00     0.093 C 
ATOM      6  H33 PTR d   1      33.455  26.197  17.389  0.00  0.00     0.088 H 
BRANCH   5   7
ATOM      7  N   PTR d   1      34.266  27.859  18.383  0.00  0.00    -0.346 N 
ATOM      8  C   PHE d   1      33.104  28.219  18.907  0.00  0.00     0.241 C 
ATOM      9  O   PHE d   1      32.031  27.748  18.540  0.00  0.00    -0.271 OA
ATOM     10  H32 PTR d   1      35.099  28.320  18.688  0.00  0.00     0.163 HD
BRANCH   8  11
ATOM     11  CA  PHE d   1      33.152  29.306  19.978  0.00  0.00     0.093 C 
ATOM     12  H24 PHE d   1      33.951  30.017  19.719  0.00  0.00     0.088 H 
BRANCH  11  13
ATOM     13  N   PHE d   1      31.890  30.024  20.029  0.00  0.00    -0.346 N 
ATOM     14  C   PRO d   1      31.744  31.229  19.495  0.00  0.00     0.241 C 
ATOM     15  O   PRO d   1      32.656  31.833  18.943  0.00  0.00    -0.271 OA
ATOM     16  H23 PHE d   1      31.107  29.596  20.481  0.00  0.00     0.163 HD
BRANCH  14  17
ATOM     17  CA  PRO d   1      30.356  31.850  19.634  0.00  0.00     0.091 C 
ATOM     18  N   PRO d   1      30.391  33.288  19.923  0.00  0.00    -0.337 N 
ATOM     19  C   LYS d   1      30.982  33.765  21.034  0.00  0.00     0.251 C 
ATOM     20  CD  PRO d   1      29.666  34.043  18.887  0.00  0.00    -0.001 C 
ATOM     21  O   LYS d   1      31.460  33.017  21.895  0.00  0.00    -0.271 OA
ATOM     22  CG  PRO d   1      29.782  33.130  17.705  0.00  0.00    -0.048 C 
ATOM     23  H21 PRO d   1      30.144  35.014  18.691  0.00  0.00     0.064 H 
ATOM     24  H22 PRO d   1      28.615  34.202  19.169  0.00  0.00     0.064 H 
ATOM     25  CB  PRO d   1      29.563  31.781  18.320  0.00  0.00    -0.036 C 
ATOM     26  H19 PRO d   1      29.012  33.354  16.952  0.00  0.00     0.035 H 
ATOM     27  H20 PRO d   1      30.778  33.200  17.244  0.00  0.00     0.035 H 
ATOM     28  H17 PRO d   1      28.494  31.607  18.515  0.00  0.00     0.036 H 
ATOM     29  H18 PRO d   1      29.951  30.985  17.668  0.00  0.00     0.036 H 
ATOM     30  H16 PRO d   1      29.818  31.318  20.433  0.00  0.00     0.087 H 
BRANCH  19  31
ATOM     31  CA  LYS d   1      30.965  35.284  21.244  0.00  0.00     0.176 C 
ATOM     32  H4  LYS d   1      29.958  35.656  21.005  0.00  0.00     0.099 H 
BRANCH  31  33
ATOM     33  N   LYS d   1      31.267  35.623  22.665  0.00  0.00    -0.067 N 
ATOM     34  H1  LYS d   1      31.251  36.624  22.782  0.00  0.00     0.275 HD
ATOM     35  H2  LYS d   1      32.180  35.271  22.908  0.00  0.00     0.275 HD
ATOM     36  H3  LYS d   1      30.574  35.203  23.265  0.00  0.00     0.275 HD
ENDBRANCH  31  33
BRANCH  31  37
ATOM     37  CB  LYS d   1      31.968  35.967  20.310  0.00  0.00    -0.030 C 
ATOM     38  H5  LYS d   1      31.912  37.052  20.481  0.00  0.00     0.036 H 
ATOM     39  H6  LYS d   1      31.677  35.744  19.273  0.00  0.00     0.036 H 
BRANCH  37  40
ATOM     40  CG  LYS d   1      33.405  35.534  20.500  0.00  0.00    -0.061 C 
ATOM     41  H7  LYS d   1      33.493  34.459  20.287  0.00  0.00     0.033 H 
ATOM     42  H8  LYS d   1      33.709  35.728  21.539  0.00  0.00     0.033 H 
BRANCH  40  43
ATOM     43  CD  LYS d   1      34.310  36.309  19.558  0.00  0.00    -0.043 C 
ATOM     44  H9  LYS d   1      34.164  37.386  19.727  0.00  0.00     0.035 H 
ATOM     45  H10 LYS d   1      34.042  36.061  18.520  0.00  0.00     0.035 H 
BRANCH  43  46
ATOM     46  CE  LYS d   1      35.768  35.969  19.785  0.00  0.00     0.080 C 
ATOM     47  H11 LYS d   1      35.955  34.948  19.421  0.00  0.00     0.075 H 
ATOM     48  H12 LYS d   1      35.980  36.019  20.863  0.00  0.00     0.075 H 
BRANCH  46  49
ATOM     49  NZ  LYS d   1      36.680  36.905  19.074  0.00  0.00    -0.079 N 
ATOM     50  H13 LYS d   1      37.637  36.642  19.252  0.00  0.00     0.274 HD
ATOM     51  H14 LYS d   1      36.522  37.844  19.405  0.00  0.00     0.274 HD
ATOM     52  H15 LYS d   1      36.499  36.863  18.083  0.00  0.00     0.274 HD
ENDBRANCH  46  49
ENDBRANCH  43  46
ENDBRANCH  40  43
ENDBRANCH  37  40
ENDBRANCH  31  37
ENDBRANCH  19  31
ENDBRANCH  14  17
ENDBRANCH  11  13
BRANCH  11  53
ATOM     53  CB  PHE d   1      33.465  28.696  21.355  0.00  0.00    -0.014 C 
ATOM     54  H25 PHE d   1      33.616  29.517  22.071  0.00  0.00     0.043 H 
ATOM     55  H26 PHE d   1      34.391  28.108  21.271  0.00  0.00     0.043 H 
BRANCH  53  56
ATOM     56  CG  PHE d   1      32.378  27.796  21.888  0.00  0.00    -0.056 A 
ATOM     57  CD1 PHE d   1      31.313  28.332  22.608  0.00  0.00    -0.077 A 
ATOM     58  CE1 PHE d   1      30.273  27.522  23.046  0.00  0.00    -0.082 A 
ATOM     59  H27 PHE d   1      31.296  29.393  22.829  0.00  0.00     0.084 H 
ATOM     60  CZ  PHE d   1      30.291  26.155  22.768  0.00  0.00    -0.083 A 
ATOM     61  H29 PHE d   1      29.448  27.952  23.603  0.00  0.00     0.083 H 
ATOM     62  CE2 PHE d   1      31.355  25.607  22.054  0.00  0.00    -0.082 A 
ATOM     63  H31 PHE d   1      29.480  25.521  23.106  0.00  0.00     0.083 H 
ATOM     64  CD2 PHE d   1      32.390  26.427  21.621  0.00  0.00    -0.077 A 
ATOM     65  H30 PHE d   1      31.375  24.545  21.837  0.00  0.00     0.083 H 
ATOM     66  H28 PHE d   1      33.218  25.997  21.069  0.00  0.00     0.084 H 
ENDBRANCH  53  56
ENDBRANCH  11  53
ENDBRANCH   8  11
ENDBRANCH   5   7
BRANCH   5  67
ATOM     67  CB  PTR d   1      34.550  27.397  15.973  0.00  0.00    -0.014 C 
ATOM     68  H34 PTR d   1      34.631  26.566  15.257  0.00  0.00     0.043 H 
ATOM     69  H35 PTR d   1      35.479  27.985  15.959  0.00  0.00     0.043 H 
BRANCH  67  70
ATOM     70  CG  PTR d   1      33.407  28.293  15.542  0.00  0.00    -0.056 A 
ATOM     71  CD1 PTR d   1      32.262  27.771  14.932  0.00  0.00    -0.074 A 
ATOM     72  CE1 PTR d   1      31.167  28.603  14.595  0.00  0.00    -0.050 A 
ATOM     73  H36 PTR d   1      32.212  26.710  14.713  0.00  0.00     0.084 H 
ATOM     74  CZ  PTR d   1      31.238  29.964  14.882  0.00  0.00     0.082 A 
ATOM     75  H38 PTR d   1      30.286  28.187  14.120  0.00  0.00     0.087 H 
ATOM     76  CE2 PTR d   1      32.379  30.480  15.482  0.00  0.00    -0.050 A 
ATOM     77  CD2 PTR d   1      33.442  29.656  15.804  0.00  0.00    -0.074 A 
ATOM     78  H39 PTR d   1      32.437  31.540  15.700  0.00  0.00     0.087 H 
ATOM     79  H37 PTR d   1      34.322  30.084  16.271  0.00  0.00     0.084 H 
BRANCH  74  80
ATOM     80  OH  PTR d   1      30.205  30.869  14.568  0.00  0.00    -0.240 OA
BRANCH  80  81
ATOM     81  P   PTR d   1      28.704  30.442  14.368  0.00  0.00     0.427 P 
ATOM     82  O1P PTR d   1      27.852  31.645  14.841  0.00  0.00    -0.617 OA
ATOM     83  O2P PTR d   1      28.381  29.185  15.217  0.00  0.00    -0.617 OA
ATOM     84  O3P PTR d   1      28.475  30.182  12.863  0.00  0.00    -0.617 OA
ENDBRANCH  80  81
ENDBRANCH  74  80
ENDBRANCH  67  70
ENDBRANCH   5  67
ENDBRANCH   1   5
BRANCH   3  85
ATOM     85  CA  VAL d   1      36.469  23.718  18.030  0.00  0.00     0.092 C 
ATOM     86  H41 VAL d   1      36.614  23.819  19.116  0.00  0.00     0.088 H 
BRANCH  85  87
ATOM     87  C   VAL d   1      37.825  23.980  17.381  0.00  0.00     0.241 C 
ATOM     88  O   VAL d   1      38.863  23.751  18.001  0.00  0.00    -0.271 OA
ATOM     89  N   ASN d   1      37.817  24.485  16.151  0.00  0.00    -0.346 N 
ATOM     90  H49 ASN d   1      36.942  24.687  15.710  0.00  0.00     0.163 HD
BRANCH  89  91
ATOM     91  CA  ASN d   1      39.058  24.751  15.431  0.00  0.00     0.097 C 
ATOM     92  H50 ASN d   1      39.842  24.161  15.928  0.00  0.00     0.088 H 
BRANCH  91  93
ATOM     93  C   ASN d   1      39.520  26.199  15.444  0.00  0.00     0.241 C 
ATOM     94  O   ASN d   1      40.403  26.568  14.673  0.00  0.00    -0.271 OA
ATOM     95  N   VAL d   1      38.944  27.015  16.320  0.00  0.00    -0.346 N 
ATOM     96  H55 VAL d   1      38.233  26.657  16.925  0.00  0.00     0.163 HD
BRANCH  95  97
ATOM     97  CA  VAL d   1      39.324  28.423  16.422  0.00  0.00     0.092 C 
ATOM     98  H56 VAL d   1      40.181  28.600  15.755  0.00  0.00     0.088 H 
BRANCH  97  99
ATOM     99  C   VAL d   1      39.742  28.735  17.855  0.00  0.00     0.241 C 
ATOM    100  O   VAL d   1      38.965  28.570  18.799  0.00  0.00    -0.271 OA
ATOM    101  N   GLU d   1      40.986  29.164  18.021  0.00  0.00    -0.346 N 
ATOM    102  H64 GLU d   1      41.584  29.266  17.226  0.00  0.00     0.163 HD
BRANCH 101 103
ATOM    103  CA  GLU d   1      41.489  29.488  19.345  0.00  0.00     0.090 C 
ATOM    104  H65 GLU d   1      40.986  28.827  20.066  0.00  0.00     0.087 H 
BRANCH 103 105
ATOM    105  C   GLU d   1      41.194  30.928  19.747  0.00  0.00     0.241 C 
ATOM    106  O   GLU d   1      41.359  31.851  18.943  0.00  0.00    -0.271 OA
ATOM    107  N   PHE d   1      40.687  31.105  20.964  0.00  0.00    -0.344 N 
ATOM    108  H70 PHE d   1      40.494  30.305  21.533  0.00  0.00     0.163 HD
BRANCH 107 109
ATOM    109  CA  PHE d   1      40.405  32.436  21.490  0.00  0.00     0.100 C 
ATOM    110  H71 PHE d   1      40.046  33.077  20.671  0.00  0.00     0.090 H 
BRANCH 109 111
ATOM    111  C   PHE d   1      41.700  33.026  22.067  0.00  0.00     0.197 C 
ATOM    112  O   PHE d   1      42.423  32.292  22.781  0.00  0.00    -0.646 OA
ATOM    113  OXT PHE d   1      41.958  34.225  21.842  0.00  0.00    -0.646 OA
ENDBRANCH 109 111
BRANCH 109 114
ATOM    114  CB  PHE d   1      39.331  32.381  22.585  0.00  0.00    -0.013 C 
ATOM    115  H72 PHE d   1      39.465  33.253  23.241  0.00  0.00     0.043 H 
ATOM    116  H73 PHE d   1      39.479  31.459  23.166  0.00  0.00     0.043 H 
BRANCH 114 117
ATOM    117  CG  PHE d   1      37.916  32.391  22.072  0.00  0.00    -0.056 A 
ATOM    118  CD1 PHE d   1      37.631  32.047  20.760  0.00  0.00    -0.077 A 
ATOM    119  CE1 PHE d   1      36.341  32.026  20.310  0.00  0.00    -0.082 A 
ATOM    120  H74 PHE d   1      38.439  31.792  20.084  0.00  0.00     0.084 H 
ATOM    121  CZ  PHE d   1      35.292  32.354  21.160  0.00  0.00    -0.083 A 
ATOM    122  H76 PHE d   1      36.134  31.751  19.282  0.00  0.00     0.083 H 
ATOM    123  CE2 PHE d   1      35.551  32.703  22.465  0.00  0.00    -0.082 A 
ATOM    124  H78 PHE d   1      34.271  32.335  20.795  0.00  0.00     0.083 H 
ATOM    125  CD2 PHE d   1      36.863  32.723  22.918  0.00  0.00    -0.077 A 
ATOM    126  H77 PHE d   1      34.738  32.960  23.134  0.00  0.00     0.083 H 
ATOM    127  H75 PHE d   1      37.070  33.001  23.945  0.00  0.00     0.084 H 
ENDBRANCH 114 117
ENDBRANCH 109 114
ENDBRANCH 107 109
ENDBRANCH 103 105
BRANCH 103 128
ATOM    128  CB  GLU d   1      42.993  29.224  19.420  0.00  0.00    -0.029 C 
ATOM    129  H66 GLU d   1      43.512  29.986  18.820  0.00  0.00     0.037 H 
ATOM    130  H67 GLU d   1      43.194  28.227  19.000  0.00  0.00     0.037 H 
BRANCH 128 131
ATOM    131  CG  GLU d   1      43.541  29.270  20.838  0.00  0.00     0.018 C 
ATOM    132  H68 GLU d   1      43.069  28.466  21.422  0.00  0.00     0.049 H 
ATOM    133  H69 GLU d   1      43.286  30.244  21.281  0.00  0.00     0.049 H 
BRANCH 131 134
ATOM    134  CD  GLU d   1      45.041  29.092  20.897  0.00  0.00     0.172 C 
ATOM    135  OE1 GLU d   1      45.569  28.142  20.275  0.00  0.00    -0.648 OA
ATOM    136  OE2 GLU d   1      45.690  29.912  21.577  0.00  0.00    -0.648 OA
ENDBRANCH 131 134
ENDBRANCH 128 131
ENDBRANCH 103 128
ENDBRANCH 101 103
ENDBRANCH  97  99
BRANCH  97 137
ATOM    137  CB  VAL d   1      38.169  29.375  15.998  0.00  0.00    -0.033 C 
ATOM    138  H57 VAL d   1      37.288  29.161  16.621  0.00  0.00     0.042 H 
BRANCH 137 139
ATOM    139  CG1 VAL d   1      38.574  30.826  16.203  0.00  0.00    -0.071 C 
ATOM    140  H58 VAL d   1      37.747  31.484  15.899  0.00  0.00     0.028 H 
ATOM    141  H59 VAL d   1      39.462  31.048  15.594  0.00  0.00     0.028 H 
ATOM    142  H60 VAL d   1      38.806  30.995  17.265  0.00  0.00     0.028 H 
ENDBRANCH 137 139
BRANCH 137 143
ATOM    143  CG2 VAL d   1      37.807  29.144  14.540  0.00  0.00    -0.071 C 
ATOM    144  H61 VAL d   1      37.515  28.093  14.397  0.00  0.00     0.028 H 
ATOM    145  H62 VAL d   1      38.676  29.372  13.906  0.00  0.00     0.028 H 
ATOM    146  H63 VAL d   1      36.968  29.799  14.262  0.00  0.00     0.028 H 
ENDBRANCH 137 143
ENDBRANCH  97 137
ENDBRANCH  95  97
ENDBRANCH  91  93
BRANCH  91 147
ATOM    147  CB  ASN d   1      38.958  24.269  13.986  0.00  0.00     0.036 C 
ATOM    148  H51 ASN d   1      38.715  23.196  13.988  0.00  0.00     0.051 H 
ATOM    149  H52 ASN d   1      39.930  24.424  13.494  0.00  0.00     0.051 H 
BRANCH 147 150
ATOM    150  CG  ASN d   1      37.898  25.004  13.205  0.00  0.00     0.217 C 
ATOM    151  OD1 ASN d   1      36.867  25.387  13.753  0.00  0.00    -0.274 OA
ATOM    152  ND2 ASN d   1      38.136  25.199  11.917  0.00  0.00    -0.370 N 
ATOM    153  H53 ASN d   1      37.466  25.681  11.352  0.00  0.00     0.159 HD
ATOM    154  H54 ASN d   1      38.986  24.864  11.509  0.00  0.00     0.159 HD
ENDBRANCH 147 150
ENDBRANCH  91 147
ENDBRANCH  89  91
ENDBRANCH  85  87
BRANCH  85 155
ATOM    155  CB  VAL d   1      36.018  22.259  17.752  0.00  0.00    -0.033 C 
ATOM    156  H42 VAL d   1      35.822  22.154  16.675  0.00  0.00     0.042 H 
BRANCH 155 157
ATOM    157  CG1 VAL d   1      37.109  21.252  18.143  0.00  0.00    -0.071 C 
ATOM    158  H43 VAL d   1      36.758  20.231  17.934  0.00  0.00     0.028 H 
ATOM    159  H44 VAL d   1      37.331  21.350  19.216  0.00  0.00     0.028 H 
ATOM    160  H45 VAL d   1      38.020  21.453  17.560  0.00  0.00     0.028 H 
ENDBRANCH 155 157
BRANCH 155 161
ATOM    161  CG2 VAL d   1      34.728  21.970  18.513  0.00  0.00    -0.071 C 
ATOM    162  H46 VAL d   1      33.959  22.700  18.221  0.00  0.00     0.028 H 
ATOM    163  H47 VAL d   1      34.915  22.047  19.594  0.00  0.00     0.028 H 
ATOM    164  H48 VAL d   1      34.380  20.955  18.273  0.00  0.00     0.028 H 
ENDBRANCH 155 161
ENDBRANCH  85 155
ENDBRANCH   3  85
TORSDOF 41
