REMARK  4 active torsions:
REMARK  status: ('A' for Active; 'I' for Inactive)
REMARK    1  A    between atoms: CB3_10  and  NB7_14 
REMARK    2  A    between atoms: CC2_16  and  CB5_12 
REMARK    3  A    between atoms: NC1_15  and  CD1_20 
REMARK    4  A    between atoms: CD1_20  and  CE1_21 
ROOT
ATOM      1  FA1 SB5 d   1       7.973  10.854  30.287  0.00  0.00    -0.206 F 
ATOM      2  CA1 SB5 d   1       6.115  12.249  30.931  0.00  0.00    -0.045 A 
ATOM      3  CA2 SB5 d   1       6.756  11.394  29.995  0.00  0.00     0.116 A 
ATOM      4  CA3 SB5 d   1       6.139  11.100  28.755  0.00  0.00    -0.045 A 
ATOM      5  CA4 SB5 d   1       4.885  11.662  28.450  0.00  0.00    -0.068 A 
ATOM      6  CA5 SB5 d   1       4.211  12.533  29.376  0.00  0.00    -0.005 A 
ATOM      7  CA6 SB5 d   1       4.853  12.814  30.623  0.00  0.00    -0.068 A 
ATOM      8  NC1 SB5 d   1       0.666  13.454  28.386  0.00  0.00    -0.337 N 
ATOM      9  CC2 SB5 d   1       1.578  12.466  28.945  0.00  0.00     0.095 A 
ATOM     10  CC3 SB5 d   1       2.946  13.094  29.027  0.00  0.00     0.097 A 
ATOM     11  NC4 SB5 d   1       2.872  14.416  28.563  0.00  0.00    -0.241 NA
ATOM     12  CC5 SB5 d   1       1.556  14.509  28.230  0.00  0.00     0.067 A 
ATOM     13  H1  SB5 d   1       6.591  12.469  31.880  0.00  0.00     0.088 H 
ATOM     14  H2  SB5 d   1       6.630  10.445  28.044  0.00  0.00     0.088 H 
ATOM     15  H3  SB5 d   1       4.418  11.434  27.499  0.00  0.00     0.085 H 
ATOM     16  H4  SB5 d   1       4.368  13.466  31.340  0.00  0.00     0.085 H 
ATOM     17  H9  SB5 d   1       1.185  15.449  27.825  0.00  0.00     0.143 H 
ENDROOT
BRANCH   8  18
ATOM     18  CD1 SB5 d   1      -0.775  13.379  27.876  0.00  0.00     0.004 C 
ATOM     19  H10 SB5 d   1      -1.451  13.600  28.715  0.00  0.00     0.065 H 
ATOM     20  H11 SB5 d   1      -0.961  12.357  27.514  0.00  0.00     0.065 H 
BRANCH  18  21
ATOM     21  CE1 SB5 d   1      -1.090  14.370  26.722  0.00  0.00    -0.038 A 
ATOM     22  CE3 SB5 d   1      -0.568  14.023  25.321  0.00  0.00    -0.060 A 
ATOM     23  CE2 SB5 d   1      -2.056  13.922  25.620  0.00  0.00    -0.060 A 
ATOM     24  H15 SB5 d   1       0.025  13.109  25.166  0.00  0.00     0.033 H 
ATOM     25  H16 SB5 d   1      -0.193  14.819  24.662  0.00  0.00     0.033 H 
ATOM     26  H13 SB5 d   1      -2.756  14.645  25.176  0.00  0.00     0.033 H 
ATOM     27  H14 SB5 d   1      -2.538  12.935  25.680  0.00  0.00     0.033 H 
ATOM     28  H12 SB5 d   1      -1.091  15.407  27.089  0.00  0.00     0.042 H 
ENDBRANCH  18  21
ENDBRANCH   8  18
BRANCH   9  29
ATOM     29  CB5 SB5 d   1       1.210  11.067  29.136  0.00  0.00     0.106 A 
ATOM     30  CB6 SB5 d   1       1.797  10.262  30.198  0.00  0.00    -0.035 A 
ATOM     31  CB1 SB5 d   1       1.349   8.914  30.280  0.00  0.00     0.023 A 
ATOM     32  H6  SB5 d   1       2.532  10.666  30.885  0.00  0.00     0.089 H 
ATOM     33  NB2 SB5 d   1       0.424   8.416  29.422  0.00  0.00    -0.075 NA
ATOM     34  H5  SB5 d   1       1.758   8.268  31.049  0.00  0.00     0.115 H 
ATOM     35  CB3 SB5 d   1      -0.061   9.220  28.487  0.00  0.00     0.720 A 
ATOM     36  NB4 SB5 d   1       0.276  10.494  28.302  0.00  0.00    -0.061 NA
BRANCH  35  37
ATOM     37  NB7 SB5 d   1      -0.952   8.708  27.683  0.00  0.00    -0.231 N 
ATOM     38  H7  SB5 d   1      -1.365   9.286  26.937  0.00  0.00     0.174 HD
ATOM     39  H8  SB5 d   1      -1.243   7.726  27.795  0.00  0.00     0.174 HD
ENDBRANCH  35  37
ENDBRANCH   9  29
TORSDOF 4
