REMARK  12 active torsions:
REMARK  status: ('A' for Active; 'I' for Inactive)
REMARK    1  A    between atoms: C1_1  and  S11_11 
REMARK    2  A    between atoms: S11_11  and  N14_14 
REMARK    3  A    between atoms: N14_14  and  C15_15 
REMARK    4  A    between atoms: C15_15  and  C16_16 
REMARK    5  A    between atoms: C15_15  and  C18_18 
REMARK    6  A    between atoms: C16_16  and  O17_17 
REMARK       I    between atoms: C18_18  and  N20_20 
REMARK    7  A    between atoms: C24_24  and  C25_25 
REMARK    8  A    between atoms: C25_25  and  N26_26 
REMARK       I    between atoms: N26_26  and  C27_27 
REMARK    9  A    between atoms: C27_27  and  C29_29 
REMARK   10  A    between atoms: C29_29  and  C30_30 
REMARK   11  A    between atoms: C30_30  and  C31_31 
REMARK   12  A    between atoms: C31_31  and  N32_32 
REMARK       I    between atoms: N32_32  and  C33_33 
REMARK       I    between atoms: C33_33  and  N34_34 
ROOT
ATOM      1  C18 BM2 d   1      12.648  45.705  20.968  0.00  0.00     0.245 C 
ATOM      2  O19 BM2 d   1      12.510  46.194  19.773  0.00  0.00    -0.271 OA
ATOM      3  N20 BM2 d   1      13.735  45.621  21.818  0.00  0.00    -0.344 N 
ATOM      4  C21 BM2 d   1      13.742  45.074  23.263  0.00  0.00    -0.002 C 
ATOM      5  C22 BM2 d   1      15.059  44.590  23.391  0.00  0.00    -0.048 C 
ATOM      6  C23 BM2 d   1      15.600  45.625  22.647  0.00  0.00    -0.043 C 
ATOM      7  C24 BM2 d   1      14.956  45.915  21.408  0.00  0.00     0.030 C 
ATOM      8  H13 BM2 d   1      13.006  44.266  23.387  0.00  0.00     0.064 H 
ATOM      9  H14 BM2 d   1      13.537  45.871  23.992  0.00  0.00     0.064 H 
ATOM     10  H15 BM2 d   1      15.206  43.601  22.933  0.00  0.00     0.035 H 
ATOM     11  H16 BM2 d   1      15.416  44.569  24.431  0.00  0.00     0.035 H 
ATOM     12  H17 BM2 d   1      16.647  45.369  22.429  0.00  0.00     0.036 H 
ATOM     13  H18 BM2 d   1      15.566  46.535  23.264  0.00  0.00     0.036 H 
ATOM     14  H19 BM2 d   1      15.088  46.933  21.014  0.00  0.00     0.075 H 
ENDROOT
BRANCH   1  15
ATOM     15  C15 BM2 d   1      11.547  44.897  21.359  0.00  0.00     0.117 C 
ATOM     16  H9  BM2 d   1      11.442  44.689  22.434  0.00  0.00     0.091 H 
BRANCH  15  17
ATOM     17  N14 BM2 d   1      10.635  45.575  20.918  0.00  0.00    -0.299 N 
ATOM     18  H8  BM2 d   1      10.351  45.456  19.967  0.00  0.00     0.173 HD
BRANCH  17  19
ATOM     19  S11 BM2 d   1       9.981  46.514  21.715  0.00  0.00     0.259 S 
ATOM     20  O12 BM2 d   1       8.680  46.886  21.135  0.00  0.00    -0.201 OA
ATOM     21  O13 BM2 d   1       9.574  45.963  22.953  0.00  0.00    -0.201 OA
BRANCH  19  22
ATOM     22  C1  BM2 d   1      10.913  47.923  22.017  0.00  0.00     0.080 A 
ATOM     23  C2  BM2 d   1      11.346  48.820  21.146  0.00  0.00    -0.050 A 
ATOM     24  C9  BM2 d   1      12.251  49.682  21.608  0.00  0.00    -0.025 A 
ATOM     25  H1  BM2 d   1      10.988  48.852  20.123  0.00  0.00     0.087 H 
ATOM     26  C3  BM2 d   1      12.890  50.472  20.823  0.00  0.00    -0.072 A 
ATOM     27  C10 BM2 d   1      12.636  49.614  22.954  0.00  0.00    -0.026 A 
ATOM     28  C4  BM2 d   1      13.914  51.174  21.453  0.00  0.00    -0.082 A 
ATOM     29  H2  BM2 d   1      12.655  50.582  19.771  0.00  0.00     0.084 H 
ATOM     30  C5  BM2 d   1      14.309  51.121  22.805  0.00  0.00    -0.082 A 
ATOM     31  H3  BM2 d   1      14.481  51.849  20.822  0.00  0.00     0.083 H 
ATOM     32  C6  BM2 d   1      13.651  50.315  23.607  0.00  0.00    -0.072 A 
ATOM     33  H4  BM2 d   1      15.130  51.726  23.172  0.00  0.00     0.083 H 
ATOM     34  H5  BM2 d   1      13.873  50.206  24.663  0.00  0.00     0.084 H 
ATOM     35  C7  BM2 d   1      12.109  48.697  23.653  0.00  0.00    -0.071 A 
ATOM     36  C8  BM2 d   1      11.306  47.915  23.199  0.00  0.00    -0.059 A 
ATOM     37  H6  BM2 d   1      12.389  48.611  24.697  0.00  0.00     0.084 H 
ATOM     38  H7  BM2 d   1      10.903  47.159  23.863  0.00  0.00     0.085 H 
ENDBRANCH  19  22
ENDBRANCH  17  19
ENDBRANCH  15  17
BRANCH  15  39
ATOM     39  C16 BM2 d   1      11.898  43.690  20.561  0.00  0.00     0.044 C 
ATOM     40  H10 BM2 d   1      12.619  43.054  21.095  0.00  0.00     0.077 H 
ATOM     41  H11 BM2 d   1      12.309  43.966  19.579  0.00  0.00     0.077 H 
BRANCH  39  42
ATOM     42  O17 BM2 d   1      10.685  43.068  20.435  0.00  0.00    -0.398 OA
ATOM     43  H12 BM2 d   1      10.791  42.269  19.933  0.00  0.00     0.209 HD
ENDBRANCH  39  42
ENDBRANCH  15  39
ENDBRANCH   1  15
BRANCH   7  44
ATOM     44  C25 BM2 d   1      15.412  44.907  20.535  0.00  0.00     0.013 C 
ATOM     45  H20 BM2 d   1      15.040  43.976  20.988  0.00  0.00     0.067 H 
ATOM     46  H21 BM2 d   1      16.507  44.950  20.631  0.00  0.00     0.067 H 
BRANCH  44  47
ATOM     47  N26 BM2 d   1      15.180  44.703  19.028  0.00  0.00    -0.370 N 
ATOM     48  C27 BM2 d   1      14.868  43.562  18.206  0.00  0.00     0.151 C 
ATOM     49  O28 BM2 d   1      14.824  42.227  18.434  0.00  0.00    -0.177 OA
ATOM     50  H22 BM2 d   1      15.264  45.550  18.503  0.00  0.00     0.161 HD
BRANCH  48  51
ATOM     51  C29 BM2 d   1      14.620  43.773  16.925  0.00  0.00    -0.002 C 
ATOM     52  H23 BM2 d   1      15.078  42.993  16.299  0.00  0.00     0.045 H 
ATOM     53  H24 BM2 d   1      14.987  44.760  16.608  0.00  0.00     0.045 H 
BRANCH  51  54
ATOM     54  C30 BM2 d   1      13.126  43.707  16.862  0.00  0.00    -0.043 C 
ATOM     55  H25 BM2 d   1      12.700  44.562  17.408  0.00  0.00     0.035 H 
ATOM     56  H26 BM2 d   1      12.783  42.769  17.323  0.00  0.00     0.035 H 
BRANCH  54  57
ATOM     57  C31 BM2 d   1      12.703  43.750  15.535  0.00  0.00     0.009 C 
ATOM     58  H27 BM2 d   1      13.125  42.876  15.017  0.00  0.00     0.064 H 
ATOM     59  H28 BM2 d   1      13.100  44.671  15.083  0.00  0.00     0.064 H 
BRANCH  57  60
ATOM     60  N32 BM2 d   1      11.421  43.739  15.354  0.00  0.00    -0.227 N 
ATOM     61  C33 BM2 d   1      10.898  44.043  14.169  0.00  0.00     0.665 C 
ATOM     62  N34 BM2 d   1      11.721  44.291  13.218  0.00  0.00    -0.235 N 
ATOM     63  N35 BM2 d   1       9.695  43.982  14.128  0.00  0.00    -0.235 N 
ATOM     64  H30 BM2 d   1      11.368  44.532  12.281  0.00  0.00     0.174 HD
ATOM     65  H31 BM2 d   1      12.736  44.250  13.391  0.00  0.00     0.174 HD
ATOM     66  H32 BM2 d   1       9.161  43.771  14.983  0.00  0.00     0.174 HD
ATOM     67  H33 BM2 d   1       9.201  44.141  13.238  0.00  0.00     0.174 HD
ATOM     68  H29 BM2 d   1      10.799  43.492  16.137  0.00  0.00     0.177 HD
ENDBRANCH  57  60
ENDBRANCH  54  57
ENDBRANCH  51  54
ENDBRANCH  48  51
ENDBRANCH  44  47
ENDBRANCH   7  44
TORSDOF 12
