REMARK  9 active torsions:
REMARK  status: ('A' for Active; 'I' for Inactive)
REMARK    1  A    between atoms: C1_1  and  S11_11 
REMARK    2  A    between atoms: S11_11  and  N14_14 
REMARK    3  A    between atoms: N14_14  and  C15_15 
REMARK    4  A    between atoms: C15_15  and  C16_16 
REMARK    5  A    between atoms: C15_15  and  C18_18 
REMARK    6  A    between atoms: C16_16  and  O17_17 
REMARK       I    between atoms: C18_18  and  N20_20 
REMARK    7  A    between atoms: C24_24  and  C25_25 
REMARK    8  A    between atoms: C25_25  and  N26_26 
REMARK       I    between atoms: N26_26  and  C27_27 
REMARK    9  A    between atoms: C27_27  and  C29_29 
REMARK       I    between atoms: N31_31  and  C35_35 
REMARK       I    between atoms: C35_35  and  N36_37 
ROOT
ATOM      1  C18 BM9 d   1      58.023  20.727  22.661  0.00  0.00     0.179 C 
ATOM      2  O19 BM9 d   1      57.440  20.250  21.473  0.00  0.00    -0.175 OA
ATOM      3  N20 BM9 d   1      57.952  21.817  22.897  0.00  0.00    -0.355 N 
ATOM      4  C21 BM9 d   1      58.230  22.328  24.153  0.00  0.00    -0.003 C 
ATOM      5  C22 BM9 d   1      57.925  23.843  24.140  0.00  0.00    -0.048 C 
ATOM      6  C23 BM9 d   1      57.079  24.095  23.251  0.00  0.00    -0.043 C 
ATOM      7  C24 BM9 d   1      57.503  22.948  22.254  0.00  0.00     0.029 C 
ATOM      8  H13 BM9 d   1      59.291  22.164  24.395  0.00  0.00     0.064 H 
ATOM      9  H14 BM9 d   1      57.601  21.829  24.905  0.00  0.00     0.064 H 
ATOM     10  H15 BM9 d   1      58.850  24.401  23.933  0.00  0.00     0.035 H 
ATOM     11  H16 BM9 d   1      57.527  24.144  25.120  0.00  0.00     0.035 H 
ATOM     12  H17 BM9 d   1      57.209  25.098  22.819  0.00  0.00     0.036 H 
ATOM     13  H18 BM9 d   1      56.045  23.981  23.609  0.00  0.00     0.036 H 
ATOM     14  H19 BM9 d   1      56.616  22.658  21.671  0.00  0.00     0.075 H 
ENDROOT
BRANCH   1  15
ATOM     15  C15 BM9 d   1      58.778  19.589  23.569  0.00  0.00     0.104 C 
ATOM     16  H9  BM9 d   1      59.124  19.967  24.542  0.00  0.00     0.090 H 
BRANCH  15  17
ATOM     17  N14 BM9 d   1      57.895  18.722  23.734  0.00  0.00    -0.301 N 
ATOM     18  H8  BM9 d   1      57.805  18.124  22.938  0.00  0.00     0.173 HD
BRANCH  17  19
ATOM     19  S11 BM9 d   1      56.700  18.260  25.093  0.00  0.00     0.259 S 
ATOM     20  O12 BM9 d   1      56.630  16.856  25.036  0.00  0.00    -0.201 OA
ATOM     21  O13 BM9 d   1      57.185  18.485  26.506  0.00  0.00    -0.201 OA
BRANCH  19  22
ATOM     22  C1  BM9 d   1      55.537  19.117  24.681  0.00  0.00     0.080 A 
ATOM     23  C2  BM9 d   1      55.454  20.323  25.107  0.00  0.00    -0.050 A 
ATOM     24  C9  BM9 d   1      54.424  21.148  24.732  0.00  0.00    -0.025 A 
ATOM     25  H1  BM9 d   1      56.216  20.700  25.780  0.00  0.00     0.087 H 
ATOM     26  C3  BM9 d   1      54.262  22.519  25.253  0.00  0.00    -0.072 A 
ATOM     27  C10 BM9 d   1      53.524  20.725  23.812  0.00  0.00    -0.026 A 
ATOM     28  C4  BM9 d   1      53.193  23.279  24.861  0.00  0.00    -0.082 A 
ATOM     29  H2  BM9 d   1      54.990  22.925  25.947  0.00  0.00     0.084 H 
ATOM     30  C5  BM9 d   1      52.357  22.783  23.936  0.00  0.00    -0.082 A 
ATOM     31  H3  BM9 d   1      53.025  24.261  25.289  0.00  0.00     0.083 H 
ATOM     32  C6  BM9 d   1      52.539  21.567  23.470  0.00  0.00    -0.072 A 
ATOM     33  H4  BM9 d   1      51.532  23.385  23.573  0.00  0.00     0.083 H 
ATOM     34  H5  BM9 d   1      51.823  21.211  22.738  0.00  0.00     0.084 H 
ATOM     35  C7  BM9 d   1      53.588  19.399  23.341  0.00  0.00    -0.071 A 
ATOM     36  C8  BM9 d   1      54.582  18.626  23.783  0.00  0.00    -0.059 A 
ATOM     37  H6  BM9 d   1      52.853  19.018  22.641  0.00  0.00     0.084 H 
ATOM     38  H7  BM9 d   1      54.651  17.600  23.441  0.00  0.00     0.085 H 
ENDBRANCH  19  22
ENDBRANCH  17  19
ENDBRANCH  15  17
BRANCH  15  39
ATOM     39  C16 BM9 d   1      59.917  19.235  22.726  0.00  0.00     0.043 C 
ATOM     40  H10 BM9 d   1      60.537  20.128  22.561  0.00  0.00     0.077 H 
ATOM     41  H11 BM9 d   1      59.550  18.860  21.759  0.00  0.00     0.077 H 
BRANCH  39  42
ATOM     42  O17 BM9 d   1      60.785  18.122  23.417  0.00  0.00    -0.398 OA
ATOM     43  H12 BM9 d   1      60.252  17.349  23.558  0.00  0.00     0.209 HD
ENDBRANCH  39  42
ENDBRANCH  15  39
ENDBRANCH   1  15
BRANCH   7  44
ATOM     44  C25 BM9 d   1      58.568  23.545  21.260  0.00  0.00     0.014 C 
ATOM     45  H20 BM9 d   1      59.555  23.634  21.738  0.00  0.00     0.067 H 
ATOM     46  H21 BM9 d   1      58.254  24.529  20.882  0.00  0.00     0.067 H 
BRANCH  44  47
ATOM     47  N26 BM9 d   1      58.586  22.453  20.090  0.00  0.00    -0.359 N 
ATOM     48  C27 BM9 d   1      59.395  21.630  19.809  0.00  0.00     0.223 C 
ATOM     49  O28 BM9 d   1      60.205  21.739  20.573  0.00  0.00    -0.273 OA
ATOM     50  H22 BM9 d   1      57.782  22.466  19.496  0.00  0.00     0.162 HD
BRANCH  48  51
ATOM     51  C29 BM9 d   1      59.487  20.358  18.991  0.00  0.00     0.040 C 
ATOM     52  C30 BM9 d   1      60.678  19.597  19.377  0.00  0.00     0.023 C 
ATOM     53  N31 BM9 d   1      60.614  18.439  18.656  0.00  0.00    -0.218 N 
ATOM     54  H24 BM9 d   1      60.664  19.381  20.455  0.00  0.00     0.066 H 
ATOM     55  H25 BM9 d   1      61.591  20.157  19.127  0.00  0.00     0.066 H 
ATOM     56  C32 BM9 d   1      60.396  18.560  17.455  0.00  0.00     0.012 C 
ATOM     57  C35 BM9 d   1      60.597  17.169  19.220  0.00  0.00     0.667 C 
ATOM     58  C33 BM9 d   1      59.492  19.193  16.990  0.00  0.00    -0.049 C 
ATOM     59  H26 BM9 d   1      60.267  17.536  17.073  0.00  0.00     0.065 H 
ATOM     60  H27 BM9 d   1      61.312  18.997  17.031  0.00  0.00     0.065 H 
ATOM     61  C34 BM9 d   1      59.469  20.479  17.564  0.00  0.00    -0.051 C 
ATOM     62  H28 BM9 d   1      58.541  18.682  17.200  0.00  0.00     0.035 H 
ATOM     63  H29 BM9 d   1      59.628  19.280  15.902  0.00  0.00     0.035 H 
ATOM     64  H30 BM9 d   1      60.351  21.046  17.232  0.00  0.00     0.034 H 
ATOM     65  H31 BM9 d   1      58.555  21.005  17.251  0.00  0.00     0.034 H 
ATOM     66  N37 BM9 d   1      60.640  16.904  20.528  0.00  0.00    -0.235 N 
ATOM     67  N36 BM9 d   1      60.612  16.054  18.363  0.00  0.00    -0.235 N 
ATOM     68  H32 BM9 d   1      60.623  15.928  20.857  0.00  0.00     0.174 HD
ATOM     69  H33 BM9 d   1      60.690  17.676  21.208  0.00  0.00     0.174 HD
ATOM     70  H34 BM9 d   1      60.581  16.189  17.342  0.00  0.00     0.174 HD
ATOM     71  H35 BM9 d   1      60.654  15.103  18.756  0.00  0.00     0.174 HD
ATOM     72  H23 BM9 d   1      58.604  19.760  19.261  0.00  0.00     0.057 H 
ENDBRANCH  48  51
ENDBRANCH  44  47
ENDBRANCH   7  44
TORSDOF 9
