REMARK  14 active torsions:
REMARK  status: ('A' for Active; 'I' for Inactive)
REMARK    1  A    between atoms: C11_11  and  C2_2 
REMARK       I    between atoms: N1_13  and  C11_11 
REMARK    2  A    between atoms: C12_14  and  N1_13 
REMARK    3  A    between atoms: C13_15  and  C12_14 
REMARK    4  A    between atoms: C12_14  and  C14_17 
REMARK       I    between atoms: N2_20  and  C13_15 
REMARK    5  A    between atoms: C14_17  and  C16_18 
REMARK    6  A    between atoms: C14_17  and  C17_19 
REMARK    7  A    between atoms: C19_22  and  C18_21 
REMARK       I    between atoms: N3_27  and  C19_22 
REMARK    8  A    between atoms: C26_32  and  N3_27 
REMARK    9  A    between atoms: C24_28  and  C25_29 
REMARK   10  A    between atoms: C24_28  and  C26_32 
REMARK       I    between atoms: C25_29  and  N4_30 
REMARK   11  A    between atoms: N4_30  and  S1_33 
REMARK   12  A    between atoms: C26_32  and  C27_38 
REMARK   13  A    between atoms: S1_33  and  C15_36 
REMARK   14  A    between atoms: C27_38  and  O6_37 
ROOT
ATOM      1  C13 MNO d   1      33.845  64.857   8.460  0.00  0.00     0.243 C 
ATOM      2  O2  MNO d   1      34.728  65.245   7.694  0.00  0.00    -0.271 OA
ATOM      3  N2  MNO d   1      33.669  63.555   8.741  0.00  0.00    -0.337 N 
ATOM      4  C18 MNO d   1      34.531  62.554   8.106  0.00  0.00     0.091 C 
ATOM      5  C20 MNO d   1      34.305  61.300   8.946  0.00  0.00    -0.036 C 
ATOM      6  C21 MNO d   1      32.925  61.465   9.493  0.00  0.00    -0.048 C 
ATOM      7  C22 MNO d   1      32.690  62.945   9.659  0.00  0.00    -0.001 C 
ATOM      8  H17 MNO d   1      35.585  62.864   8.159  0.00  0.00     0.087 H 
ATOM      9  H18 MNO d   1      35.042  61.239   9.760  0.00  0.00     0.036 H 
ATOM     10  H19 MNO d   1      34.371  60.396   8.322  0.00  0.00     0.036 H 
ATOM     11  H20 MNO d   1      32.841  60.958  10.466  0.00  0.00     0.035 H 
ATOM     12  H21 MNO d   1      32.189  61.042   8.794  0.00  0.00     0.035 H 
ATOM     13  H22 MNO d   1      31.663  63.214   9.373  0.00  0.00     0.064 H 
ATOM     14  H23 MNO d   1      32.876  63.258  10.697  0.00  0.00     0.064 H 
ENDROOT
BRANCH   1  15
ATOM     15  C12 MNO d   1      32.916  65.857   9.146  0.00  0.00     0.092 C 
ATOM     16  H9  MNO d   1      32.481  65.434  10.064  0.00  0.00     0.088 H 
BRANCH  15  17
ATOM     17  N1  MNO d   1      33.768  66.987   9.446  0.00  0.00    -0.343 N 
ATOM     18  C11 MNO d   1      33.547  67.821  10.470  0.00  0.00     0.252 C 
ATOM     19  O1  MNO d   1      32.581  67.666  11.214  0.00  0.00    -0.268 OA
ATOM     20  H8  MNO d   1      34.561  67.153   8.860  0.00  0.00     0.163 HD
BRANCH  18  21
ATOM     21  C2  MNO d   1      34.536  68.890  10.587  0.00  0.00     0.032 A 
ATOM     22  C1  MNO d   1      34.213  70.044  11.372  0.00  0.00    -0.057 A 
ATOM     23  C6  MNO d   1      35.164  71.103  11.466  0.00  0.00    -0.025 A 
ATOM     24  H1  MNO d   1      33.261  70.111  11.886  0.00  0.00     0.086 H 
ATOM     25  C5  MNO d   1      36.461  70.954  10.718  0.00  0.00    -0.026 A 
ATOM     26  C7  MNO d   1      34.943  72.275  12.262  0.00  0.00    -0.072 A 
ATOM     27  C4  MNO d   1      36.755  69.790   9.952  0.00  0.00    -0.071 A 
ATOM     28  C10 MNO d   1      37.443  72.001  10.811  0.00  0.00    -0.072 A 
ATOM     29  C3  MNO d   1      35.785  68.748   9.893  0.00  0.00    -0.067 A 
ATOM     30  H3  MNO d   1      37.698  69.699   9.425  0.00  0.00     0.084 H 
ATOM     31  H2  MNO d   1      35.990  67.848   9.324  0.00  0.00     0.085 H 
ATOM     32  C9  MNO d   1      37.199  73.171  11.611  0.00  0.00    -0.082 A 
ATOM     33  H7  MNO d   1      38.379  71.907  10.271  0.00  0.00     0.084 H 
ATOM     34  C8  MNO d   1      35.956  73.301  12.335  0.00  0.00    -0.082 A 
ATOM     35  H6  MNO d   1      37.947  73.954  11.671  0.00  0.00     0.083 H 
ATOM     36  H5  MNO d   1      35.781  74.182  12.942  0.00  0.00     0.083 H 
ATOM     37  H4  MNO d   1      34.014  72.391  12.809  0.00  0.00     0.084 H 
ENDBRANCH  18  21
ENDBRANCH  15  17
BRANCH  15  38
ATOM     38  C14 MNO d   1      31.793  66.270   8.169  0.00  0.00    -0.033 C 
ATOM     39  H10 MNO d   1      32.237  66.458   7.180  0.00  0.00     0.042 H 
BRANCH  38  40
ATOM     40  C16 MNO d   1      30.773  65.148   8.040  0.00  0.00    -0.071 C 
ATOM     41  H11 MNO d   1      29.979  65.453   7.343  0.00  0.00     0.028 H 
ATOM     42  H12 MNO d   1      30.334  64.937   9.026  0.00  0.00     0.028 H 
ATOM     43  H13 MNO d   1      31.269  64.244   7.658  0.00  0.00     0.028 H 
ENDBRANCH  38  40
BRANCH  38  44
ATOM     44  C17 MNO d   1      31.122  67.545   8.651  0.00  0.00    -0.071 C 
ATOM     45  H14 MNO d   1      31.873  68.344   8.738  0.00  0.00     0.028 H 
ATOM     46  H15 MNO d   1      30.660  67.367   9.633  0.00  0.00     0.028 H 
ATOM     47  H16 MNO d   1      30.348  67.847   7.930  0.00  0.00     0.028 H 
ENDBRANCH  38  44
ENDBRANCH  15  38
ENDBRANCH   1  15
BRANCH   4  48
ATOM     48  C19 MNO d   1      34.151  62.343   6.638  0.00  0.00     0.241 C 
ATOM     49  O3  MNO d   1      32.968  62.331   6.291  0.00  0.00    -0.271 OA
ATOM     50  N3  MNO d   1      35.199  62.183   5.799  0.00  0.00    -0.352 N 
ATOM     51  H24 MNO d   1      36.137  62.372   6.089  0.00  0.00     0.163 HD
BRANCH  50  52
ATOM     52  C26 MNO d   1      34.894  61.722   4.450  0.00  0.00     0.040 C 
ATOM     53  H28 MNO d   1      33.799  61.715   4.343  0.00  0.00     0.076 H 
BRANCH  52  54
ATOM     54  C24 MNO d   1      35.454  62.605   3.340  0.00  0.00     0.031 C 
ATOM     55  H25 MNO d   1      36.227  63.261   3.767  0.00  0.00     0.050 H 
ATOM     56  H26 MNO d   1      35.904  61.961   2.570  0.00  0.00     0.050 H 
BRANCH  54  57
ATOM     57  C25 MNO d   1      34.394  63.464   2.694  0.00  0.00     0.232 C 
ATOM     58  N4  MNO d   1      33.202  62.863   2.338  0.00  0.00    -0.255 N 
ATOM     59  H27 MNO d   1      33.072  62.740   1.354  0.00  0.00     0.181 HD
ATOM     60  O5  MNO d   1      34.621  64.653   2.493  0.00  0.00    -0.273 OA
BRANCH  58  61
ATOM     61  S1  MNO d   1      31.920  62.298   3.301  0.00  0.00     0.229 S 
ATOM     62  O4  MNO d   1      31.405  63.394   4.081  0.00  0.00    -0.206 OA
ATOM     63  O7  MNO d   1      32.322  61.108   4.002  0.00  0.00    -0.206 OA
BRANCH  61  64
ATOM     64  C15 MNO d   1      30.575  61.691   2.259  0.00  0.00     0.033 C 
ATOM     65  H29 MNO d   1      29.753  61.329   2.895  0.00  0.00     0.051 H 
ATOM     66  H30 MNO d   1      30.942  60.867   1.630  0.00  0.00     0.051 H 
ATOM     67  H31 MNO d   1      30.210  62.507   1.618  0.00  0.00     0.051 H 
ENDBRANCH  61  64
ENDBRANCH  58  61
ENDBRANCH  54  57
ENDBRANCH  52  54
BRANCH  52  68
ATOM     68  C27 MNO d   1      35.406  60.289   4.282  0.00  0.00     0.036 C 
ATOM     69  H33 MNO d   1      35.776  59.920   5.250  0.00  0.00     0.077 H 
ATOM     70  H34 MNO d   1      36.226  60.280   3.549  0.00  0.00     0.077 H 
BRANCH  68  71
ATOM     71  O6  MNO d   1      34.358  59.441   3.825  0.00  0.00    -0.399 OA
ATOM     72  H32 MNO d   1      33.650  59.446   4.458  0.00  0.00     0.209 HD
ENDBRANCH  68  71
ENDBRANCH  52  68
ENDBRANCH  50  52
ENDBRANCH   4  48
TORSDOF 14
