REMARK  7 active torsions:
REMARK  status: ('A' for Active; 'I' for Inactive)
REMARK    1  A    between atoms: C3_1  and  S1_11 
REMARK    2  A    between atoms: C10_3  and  N15_22 
REMARK    3  A    between atoms: N15_22  and  C16_4 
REMARK    4  A    between atoms: C21_7  and  O23_25 
REMARK    5  A    between atoms: O23_25  and  C24_9 
REMARK    6  A    between atoms: S1_11  and  N21_10 
REMARK    7  A    between atoms: N8_18  and  C17_23 
ROOT
ATOM      1  C3  AL8 d   1      -5.400   1.944  15.924  0.00  0.00     0.121 A 
ATOM      2  C9  AL8 d   1      -2.463   4.867  13.950  0.00  0.00     0.041 C 
ATOM      3  C10 AL8 d   1      -2.893   3.423  13.681  0.00  0.00     0.145 C 
ATOM      4  S2  AL8 d   1      -6.280   3.407  15.876  0.00  0.00    -0.062 SA
ATOM      5  C6  AL8 d   1      -5.078   4.011  14.826  0.00  0.00     0.130 A 
ATOM      6  C5  AL8 d   1      -4.083   3.057  14.553  0.00  0.00     0.006 A 
ATOM      7  C4  AL8 d   1      -4.270   1.875  15.187  0.00  0.00    -0.043 A 
ATOM      8  N8  AL8 d   1      -3.532   5.813  13.645  0.00  0.00    -0.269 N 
ATOM      9  S7  AL8 d   1      -4.910   5.642  14.314  0.00  0.00     0.272 S 
ATOM     10  O3B AL8 d   1      -6.127   6.041  13.525  0.00  0.00    -0.199 OA
ATOM     11  O4B AL8 d   1      -4.968   6.510  15.519  0.00  0.00    -0.199 OA
ATOM     12  H1  AL8 d   1      -1.590   5.102  13.324  0.00  0.00     0.069 H 
ATOM     13  H2  AL8 d   1      -2.191   4.966  15.011  0.00  0.00     0.069 H 
ATOM     14  H3  AL8 d   1      -2.058   2.766  13.968  0.00  0.00     0.094 H 
ATOM     15  H15 AL8 d   1      -3.615   1.008  15.114  0.00  0.00     0.087 H 
ENDROOT
BRANCH   8  16
ATOM     16  C17 AL8 d   1      -3.053   7.056  13.504  0.00  0.00     0.048 A 
ATOM     17  C22 AL8 d   1      -2.329   7.620  14.537  0.00  0.00    -0.024 A 
ATOM     18  C21 AL8 d   1      -1.838   8.891  14.363  0.00  0.00     0.070 A 
ATOM     19  H9  AL8 d   1      -2.154   7.075  15.458  0.00  0.00     0.091 H 
ATOM     20  C20 AL8 d   1      -2.057   9.617  13.177  0.00  0.00    -0.051 A 
ATOM     21  C19 AL8 d   1      -2.785   9.035  12.151  0.00  0.00    -0.078 A 
ATOM     22  H8  AL8 d   1      -1.661  10.620  13.067  0.00  0.00     0.087 H 
ATOM     23  C18 AL8 d   1      -3.287   7.748  12.311  0.00  0.00    -0.056 A 
ATOM     24  H7  AL8 d   1      -2.962   9.579  11.230  0.00  0.00     0.083 H 
ATOM     25  H18 AL8 d   1      -3.857   7.283  11.515  0.00  0.00     0.086 H 
BRANCH  18  26
ATOM     26  O23 AL8 d   1      -1.163   9.350  15.377  0.00  0.00    -0.356 OA
BRANCH  26  27
ATOM     27  C24 AL8 d   1      -0.613  10.688  15.267  0.00  0.00     0.010 C 
ATOM     28  H10 AL8 d   1      -0.073  10.939  16.192  0.00  0.00     0.066 H 
ATOM     29  H11 AL8 d   1      -1.430  11.409  15.112  0.00  0.00     0.066 H 
ATOM     30  H12 AL8 d   1       0.080  10.730  14.414  0.00  0.00     0.066 H 
ENDBRANCH  26  27
ENDBRANCH  18  26
ENDBRANCH   8  16
BRANCH   3  31
ATOM     31  N15 AL8 d   1      -3.150   3.201  12.266  0.00  0.00    -0.069 N 
ATOM     32  H16 AL8 d   1      -3.461   4.022  11.771  0.00  0.00     0.277 HD
ATOM     33  H17 AL8 d   1      -3.780   2.437  12.078  0.00  0.00     0.277 HD
BRANCH  31  34
ATOM     34  C16 AL8 d   1      -1.741   2.876  12.054  0.00  0.00     0.065 C 
ATOM     35  H4  AL8 d   1      -1.575   2.637  10.993  0.00  0.00     0.067 H 
ATOM     36  H5  AL8 d   1      -1.468   2.008  12.672  0.00  0.00     0.067 H 
ATOM     37  H6  AL8 d   1      -1.119   3.738  12.337  0.00  0.00     0.067 H 
ENDBRANCH  31  34
ENDBRANCH   3  31
BRANCH   1  38
ATOM     38  S1  AL8 d   1      -5.950   0.657  16.873  0.00  0.00     0.263 S 
ATOM     39  O1A AL8 d   1      -5.391   0.799  18.165  0.00  0.00    -0.200 OA
ATOM     40  O2A AL8 d   1      -7.351   0.955  16.935  0.00  0.00    -0.200 OA
BRANCH  38  41
ATOM     41  N21 AL8 d   1      -5.538  -0.617  16.243  0.00  0.00    -0.324 N 
ATOM     42  H13 AL8 d   1      -5.780  -1.488  16.671  0.00  0.00     0.169 HD
ATOM     43  H14 AL8 d   1      -5.018  -0.607  15.389  0.00  0.00     0.169 HD
ENDBRANCH  38  41
ENDBRANCH   1  38
TORSDOF 7
