REMARK  9 active torsions:
REMARK  status: ('A' for Active; 'I' for Inactive)
REMARK    1  A    between atoms: P1_1  and  O1_5 
REMARK    2  A    between atoms: O1_5  and  C1_6 
REMARK    3  A    between atoms: C1_6  and  C2_7 
REMARK    4  A    between atoms: C2_7  and  O2_8 
REMARK    5  A    between atoms: C3_9  and  O3_10 
REMARK    6  A    between atoms: C4_11  and  O4_12 
REMARK    7  A    between atoms: C5_13  and  C6_15 
REMARK    8  A    between atoms: C6_15  and  O6_16 
REMARK    9  A    between atoms: O6_16  and  P2_17 
ROOT
ATOM      1  C2  FBP d   1       8.418  75.611  73.432  0.00  0.00     0.213 C 
ATOM      2  C3  FBP d   1       7.937  75.735  72.014  0.00  0.00     0.118 C 
ATOM      3  C4  FBP d   1       9.098  76.424  71.306  0.00  0.00     0.092 C 
ATOM      4  C5  FBP d   1      10.259  75.992  72.124  0.00  0.00     0.090 C 
ATOM      5  O5  FBP d   1       9.827  75.959  73.478  0.00  0.00    -0.341 OA
ATOM      6  H4  FBP d   1       7.729  74.748  71.574  0.00  0.00     0.095 H 
ATOM      7  H6  FBP d   1       8.975  77.517  71.273  0.00  0.00     0.091 H 
ATOM      8  H8  FBP d   1      10.559  74.981  71.811  0.00  0.00     0.090 H 
ENDROOT
BRANCH   1   9
ATOM      9  C1  FBP d   1       7.991  74.328  74.154  0.00  0.00     0.086 C 
ATOM     10  H1  FBP d   1       8.630  74.169  75.035  0.00  0.00     0.083 H 
ATOM     11  H2  FBP d   1       6.942  74.415  74.473  0.00  0.00     0.083 H 
BRANCH   9  12
ATOM     12  O1  FBP d   1       8.131  73.224  73.252  0.00  0.00    -0.277 OA
BRANCH  12  13
ATOM     13  P1  FBP d   1       7.828  71.760  73.811  0.00  0.00     0.422 P 
ATOM     14  O1P FBP d   1       9.016  71.311  74.571  0.00  0.00    -0.617 OA
ATOM     15  O2P FBP d   1       6.777  71.978  74.843  0.00  0.00    -0.617 OA
ATOM     16  O3P FBP d   1       7.719  70.874  72.614  0.00  0.00    -0.617 OA
ENDBRANCH  12  13
ENDBRANCH   9  12
ENDBRANCH   1   9
BRANCH   1  17
ATOM     17  O2  FBP d   1       7.674  76.771  73.803  0.00  0.00    -0.362 OA
ATOM     18  H3  FBP d   1       7.862  77.475  73.193  0.00  0.00     0.213 HD
ENDBRANCH   1  17
BRANCH   2  19
ATOM     19  O3  FBP d   1       6.778  76.541  71.958  0.00  0.00    -0.387 OA
ATOM     20  H5  FBP d   1       6.979  77.406  72.295  0.00  0.00     0.210 HD
ENDBRANCH   2  19
BRANCH   3  21
ATOM     21  O4  FBP d   1       9.295  75.890  70.012  0.00  0.00    -0.390 OA
ATOM     22  H7  FBP d   1      10.022  76.336  69.594  0.00  0.00     0.210 HD
ENDBRANCH   3  21
BRANCH   4  23
ATOM     23  C6  FBP d   1      11.460  76.911  71.980  0.00  0.00     0.059 C 
ATOM     24  H9  FBP d   1      11.770  77.286  72.967  0.00  0.00     0.079 H 
ATOM     25  H10 FBP d   1      11.210  77.760  71.327  0.00  0.00     0.079 H 
BRANCH  23  26
ATOM     26  O6  FBP d   1      12.504  76.141  71.401  0.00  0.00    -0.280 OA
BRANCH  26  27
ATOM     27  P2  FBP d   1      13.782  75.973  72.324  0.00  0.00     0.422 P 
ATOM     28  O4P FBP d   1      14.749  77.023  71.965  0.00  0.00    -0.617 OA
ATOM     29  O5P FBP d   1      13.353  76.195  73.723  0.00  0.00    -0.617 OA
ATOM     30  O6P FBP d   1      14.416  74.697  71.953  0.00  0.00    -0.617 OA
ENDBRANCH  26  27
ENDBRANCH  23  26
ENDBRANCH   4  23
TORSDOF 9
