REMARK  12 active torsions:
REMARK  status: ('A' for Active; 'I' for Inactive)
REMARK    1  A    between atoms: C1_1  and  O11_7 
REMARK    2  A    between atoms: C2_2  and  O12_12 
REMARK    3  A    between atoms: C3_3  and  O13_17 
REMARK    4  A    between atoms: C4_4  and  O14_22 
REMARK    5  A    between atoms: C5_5  and  O15_27 
REMARK    6  A    between atoms: C6_6  and  O16_32 
REMARK    7  A    between atoms: O11_7  and  P1_8 
REMARK    8  A    between atoms: O12_12  and  P2_13 
REMARK    9  A    between atoms: O13_17  and  P3_18 
REMARK   10  A    between atoms: O14_22  and  P4_23 
REMARK   11  A    between atoms: O15_27  and  P5_28 
REMARK   12  A    between atoms: O16_32  and  P6_33 
ROOT
ATOM      1  C1  IHP d   1      27.608   9.927  97.743  0.00  0.00     0.107 C 
ATOM      2  C2  IHP d   1      28.308   8.546  97.907  0.00  0.00     0.107 C 
ATOM      3  C3  IHP d   1      28.004   7.864  99.277  0.00  0.00     0.107 C 
ATOM      4  C4  IHP d   1      26.562   8.051  99.770  0.00  0.00     0.107 C 
ATOM      5  C5  IHP d   1      26.117   9.506  99.755  0.00  0.00     0.107 C 
ATOM      6  C6  IHP d   1      26.154  10.012  98.293  0.00  0.00     0.107 C 
ATOM      7  H1  IHP d   1      28.210  10.669  98.289  0.00  0.00     0.092 H 
ATOM      8  H2  IHP d   1      29.385   8.769  97.937  0.00  0.00     0.092 H 
ATOM      9  H3  IHP d   1      28.644   8.374 100.012  0.00  0.00     0.092 H 
ATOM     10  H4  IHP d   1      26.582   7.776 100.835  0.00  0.00     0.092 H 
ATOM     11  H5  IHP d   1      26.804  10.107 100.368  0.00  0.00     0.092 H 
ATOM     12  H6  IHP d   1      25.462   9.430  97.667  0.00  0.00     0.092 H 
ENDROOT
BRANCH   1  13
ATOM     13  O11 IHP d   1      27.600  10.267  96.376  0.00  0.00    -0.272 OA
BRANCH  13  14
ATOM     14  P1  IHP d   1      28.457  11.521  95.882  0.00  0.00     0.422 P 
ATOM     15  O21 IHP d   1      27.871  12.670  96.611  0.00  0.00    -0.617 OA
ATOM     16  O31 IHP d   1      29.837  11.184  96.291  0.00  0.00    -0.617 OA
ATOM     17  O41 IHP d   1      28.240  11.526  94.416  0.00  0.00    -0.617 OA
ENDBRANCH  13  14
ENDBRANCH   1  13
BRANCH   2  18
ATOM     18  O12 IHP d   1      28.139   7.703  96.763  0.00  0.00    -0.272 OA
BRANCH  18  19
ATOM     19  P2  IHP d   1      29.387   7.306  95.790  0.00  0.00     0.422 P 
ATOM     20  O22 IHP d   1      30.351   6.634  96.691  0.00  0.00    -0.617 OA
ATOM     21  O32 IHP d   1      29.869   8.595  95.239  0.00  0.00    -0.617 OA
ATOM     22  O42 IHP d   1      28.771   6.407  94.789  0.00  0.00    -0.617 OA
ENDBRANCH  18  19
ENDBRANCH   2  18
BRANCH   6  23
ATOM     23  O16 IHP d   1      25.815  11.405  98.285  0.00  0.00    -0.272 OA
BRANCH  23  24
ATOM     24  P6  IHP d   1      24.410  11.967  97.732  0.00  0.00     0.422 P 
ATOM     25  O26 IHP d   1      23.651  12.288  98.960  0.00  0.00    -0.617 OA
ATOM     26  O36 IHP d   1      23.851  10.843  96.947  0.00  0.00    -0.617 OA
ATOM     27  O46 IHP d   1      24.778  13.158  96.930  0.00  0.00    -0.617 OA
ENDBRANCH  23  24
ENDBRANCH   6  23
BRANCH   3  28
ATOM     28  O13 IHP d   1      28.382   6.498  99.300  0.00  0.00    -0.272 OA
BRANCH  28  29
ATOM     29  P3  IHP d   1      29.447   6.060 100.415  0.00  0.00     0.422 P 
ATOM     30  O23 IHP d   1      29.269   4.594 100.529  0.00  0.00    -0.617 OA
ATOM     31  O33 IHP d   1      29.035   6.820 101.622  0.00  0.00    -0.617 OA
ATOM     32  O43 IHP d   1      30.737   6.490  99.833  0.00  0.00    -0.617 OA
ENDBRANCH  28  29
ENDBRANCH   3  28
BRANCH   5  33
ATOM     33  O15 IHP d   1      24.789   9.618 100.289  0.00  0.00    -0.272 OA
BRANCH  33  34
ATOM     34  P5  IHP d   1      24.465  10.058 101.818  0.00  0.00     0.422 P 
ATOM     35  O25 IHP d   1      22.989  10.139 101.825  0.00  0.00    -0.617 OA
ATOM     36  O35 IHP d   1      25.027   8.972 102.653  0.00  0.00    -0.617 OA
ATOM     37  O45 IHP d   1      25.141  11.360 101.997  0.00  0.00    -0.617 OA
ENDBRANCH  33  34
ENDBRANCH   5  33
BRANCH   4  38
ATOM     38  O14 IHP d   1      25.652   7.124  99.173  0.00  0.00    -0.272 OA
BRANCH  38  39
ATOM     39  P4  IHP d   1      24.881   6.001 100.049  0.00  0.00     0.422 P 
ATOM     40  O24 IHP d   1      25.854   4.887 100.157  0.00  0.00    -0.617 OA
ATOM     41  O34 IHP d   1      24.583   6.672 101.333  0.00  0.00    -0.617 OA
ATOM     42  O44 IHP d   1      23.679   5.684  99.241  0.00  0.00    -0.617 OA
ENDBRANCH  38  39
ENDBRANCH   4  38
TORSDOF 12
