REMARK  9 active torsions:
REMARK  status: ('A' for Active; 'I' for Inactive)
REMARK    1  A    between atoms: C1_1  and  C13_13 
REMARK    2  A    between atoms: C6_6  and  O3_20 
REMARK       I    between atoms: C9_9  and  N1_16 
REMARK    3  A    between atoms: O2_19  and  C9_9 
REMARK    4  A    between atoms: C10_10  and  C12_11 
REMARK    5  A    between atoms: C10_10  and  C11_12 
REMARK    6  A    between atoms: C10_10  and  O2_19 
REMARK    7  A    between atoms: C13_13  and  S2_22 
REMARK    8  A    between atoms: S2_22  and  C14_14 
REMARK    9  A    between atoms: O3_20  and  C15_15 
ROOT
ATOM      1  C1  HBY d   1     143.308 -26.794  71.778  0.00  0.00     0.076 C 
ATOM      2  C2  HBY d   1     142.227 -27.693  70.879  0.00  0.00     0.082 C 
ATOM      3  C3  HBY d   1     141.939 -29.254  72.839  0.00  0.00     0.060 C 
ATOM      4  C4  HBY d   1     143.013 -28.503  73.642  0.00  0.00     0.068 C 
ATOM      5  C5  HBY d   1     143.654 -29.109  74.766  0.00  0.00    -0.022 C 
ATOM      6  C6  HBY d   1     143.343 -30.427  75.168  0.00  0.00     0.070 C 
ATOM      7  C7  HBY d   1     142.139 -31.150  74.521  0.00  0.00    -0.049 C 
ATOM      8  C8  HBY d   1     141.398 -30.482  73.391  0.00  0.00    -0.052 C 
ATOM      9  C9  HBY d   1     144.078 -26.098  74.244  0.00  0.00     0.299 C 
ATOM     10  N1  HBY d   1     143.339 -27.123  73.318  0.00  0.00    -0.291 N 
ATOM     11  N2  HBY d   1     141.489 -28.740  71.550  0.00  0.00    -0.350 N 
ATOM     12  O1  HBY d   1     144.302 -24.881  73.805  0.00  0.00    -0.143 OA
ATOM     13  S1  HBY d   1     141.905 -27.129  69.177  0.00  0.00    -0.035 SA
ATOM     14  H1  HBY d   1     142.936 -25.761  71.712  0.00  0.00     0.085 H 
ATOM     15  H2  HBY d   1     144.395 -28.546  75.322  0.00  0.00     0.091 H 
ATOM     16  H3  HBY d   1     141.831 -32.127  74.876  0.00  0.00     0.087 H 
ATOM     17  H4  HBY d   1     140.482 -30.909  73.000  0.00  0.00     0.087 H 
ATOM     18  H20 HBY d   1     140.664 -29.115  71.127  0.00  0.00     0.166 HD
ENDROOT
BRANCH   1  19
ATOM     19  C13 HBY d   1     144.787 -26.757  71.157  0.00  0.00     0.002 C 
ATOM     20  H12 HBY d   1     145.140 -25.716  71.117  0.00  0.00     0.052 H 
ATOM     21  H13 HBY d   1     144.766 -27.177  70.140  0.00  0.00     0.052 H 
BRANCH  19  22
ATOM     22  S2  HBY d   1     145.959 -27.773  72.229  0.00  0.00    -0.171 SA
BRANCH  22  23
ATOM     23  C14 HBY d   1     147.312 -27.938  70.979  0.00  0.00    -0.035 C 
ATOM     24  H14 HBY d   1     148.139 -28.523  71.409  0.00  0.00     0.041 H 
ATOM     25  H15 HBY d   1     147.676 -26.939  70.699  0.00  0.00     0.041 H 
ATOM     26  H16 HBY d   1     146.926 -28.451  70.086  0.00  0.00     0.041 H 
ENDBRANCH  22  23
ENDBRANCH  19  22
ENDBRANCH   1  19
BRANCH   9  27
ATOM     27  O2  HBY d   1     144.469 -26.531  75.554  0.00  0.00    -0.310 OA
BRANCH  27  28
ATOM     28  C10 HBY d   1     144.083 -25.604  76.771  0.00  0.00     0.042 C 
ATOM     29  H5  HBY d   1     143.651 -26.235  77.561  0.00  0.00     0.083 H 
BRANCH  28  30
ATOM     30  C12 HBY d   1     145.293 -24.854  77.391  0.00  0.00    -0.052 C 
ATOM     31  H6  HBY d   1     144.948 -24.231  78.229  0.00  0.00     0.030 H 
ATOM     32  H7  HBY d   1     145.759 -24.215  76.627  0.00  0.00     0.030 H 
ATOM     33  H8  HBY d   1     146.029 -25.585  77.756  0.00  0.00     0.030 H 
ENDBRANCH  28  30
BRANCH  28  34
ATOM     34  C11 HBY d   1     142.976 -24.616  76.260  0.00  0.00    -0.052 C 
ATOM     35  H9  HBY d   1     142.142 -25.190  75.831  0.00  0.00     0.030 H 
ATOM     36  H10 HBY d   1     143.401 -23.956  75.490  0.00  0.00     0.030 H 
ATOM     37  H11 HBY d   1     142.609 -24.010  77.101  0.00  0.00     0.030 H 
ENDBRANCH  28  34
ENDBRANCH  27  28
ENDBRANCH   9  27
BRANCH   6  38
ATOM     38  O3  HBY d   1     144.265 -31.064  76.233  0.00  0.00    -0.356 OA
BRANCH  38  39
ATOM     39  C15 HBY d   1     143.806 -32.259  77.039  0.00  0.00     0.010 C 
ATOM     40  H17 HBY d   1     144.602 -32.558  77.737  0.00  0.00     0.066 H 
ATOM     41  H18 HBY d   1     143.581 -33.094  76.360  0.00  0.00     0.066 H 
ATOM     42  H19 HBY d   1     142.902 -31.993  77.606  0.00  0.00     0.066 H 
ENDBRANCH  38  39
ENDBRANCH   6  38
TORSDOF 9
