REMARK  9 active torsions:
REMARK  status: ('A' for Active; 'I' for Inactive)
REMARK    1  A    between atoms: C1_1  and  C13_13 
REMARK    2  A    between atoms: C6_6  and  O3_20 
REMARK       I    between atoms: C9_9  and  N1_16 
REMARK    3  A    between atoms: O2_19  and  C9_9 
REMARK    4  A    between atoms: C10_10  and  C12_11 
REMARK    5  A    between atoms: C10_10  and  C11_12 
REMARK    6  A    between atoms: C10_10  and  O2_19 
REMARK    7  A    between atoms: C13_13  and  S2_22 
REMARK    8  A    between atoms: S2_22  and  C14_14 
REMARK    9  A    between atoms: O3_20  and  C15_15 
ROOT
ATOM      1  C1  HBY d   1     143.956 -27.382  72.107  0.00  0.00     0.080 C 
ATOM      2  C2  HBY d   1     142.541 -27.886  71.407  0.00  0.00     0.102 C 
ATOM      3  C3  HBY d   1     142.318 -29.546  73.247  0.00  0.00     0.060 A 
ATOM      4  C4  HBY d   1     143.446 -28.949  74.006  0.00  0.00     0.069 A 
ATOM      5  C5  HBY d   1     143.962 -29.627  75.135  0.00  0.00    -0.022 A 
ATOM      6  C6  HBY d   1     143.374 -30.870  75.567  0.00  0.00     0.070 A 
ATOM      7  C7  HBY d   1     142.243 -31.413  74.851  0.00  0.00    -0.049 A 
ATOM      8  C8  HBY d   1     141.725 -30.742  73.691  0.00  0.00    -0.052 A 
ATOM      9  C9  HBY d   1     145.012 -26.894  74.461  0.00  0.00     0.368 C 
ATOM     10  N1  HBY d   1     144.003 -27.655  73.631  0.00  0.00    -0.279 N 
ATOM     11  N2  HBY d   1     141.815 -28.919  72.063  0.00  0.00    -0.347 N 
ATOM     12  O1  HBY d   1     145.858 -26.120  73.877  0.00  0.00    -0.238 OA
ATOM     13  S1  HBY d   1     142.021 -27.161  69.891  0.00  0.00    -0.063 SA
ATOM     14  H1  HBY d   1     143.993 -26.290  71.977  0.00  0.00     0.086 H 
ATOM     15  H2  HBY d   1     144.803 -29.210  75.677  0.00  0.00     0.091 H 
ATOM     16  H3  HBY d   1     141.782 -32.333  75.191  0.00  0.00     0.087 H 
ATOM     17  H4  HBY d   1     140.877 -31.157  73.158  0.00  0.00     0.087 H 
ATOM     18  H20 HBY d   1     140.935 -29.213  71.689  0.00  0.00     0.167 HD
ENDROOT
BRANCH   1  19
ATOM     19  C13 HBY d   1     145.246 -27.969  71.405  0.00  0.00     0.002 C 
ATOM     20  H12 HBY d   1     145.670 -27.217  70.723  0.00  0.00     0.052 H 
ATOM     21  H13 HBY d   1     144.978 -28.871  70.835  0.00  0.00     0.052 H 
BRANCH  19  22
ATOM     22  S2  HBY d   1     146.530 -28.416  72.741  0.00  0.00    -0.171 SA
BRANCH  22  23
ATOM     23  C14 HBY d   1     147.800 -29.152  71.690  0.00  0.00    -0.035 C 
ATOM     24  H14 HBY d   1     148.647 -29.479  72.312  0.00  0.00     0.041 H 
ATOM     25  H15 HBY d   1     148.148 -28.407  70.959  0.00  0.00     0.041 H 
ATOM     26  H16 HBY d   1     147.379 -30.018  71.159  0.00  0.00     0.041 H 
ENDBRANCH  22  23
ENDBRANCH  19  22
ENDBRANCH   1  19
BRANCH   9  27
ATOM     27  O2  HBY d   1     144.967 -27.117  75.889  0.00  0.00    -0.299 OA
BRANCH  27  28
ATOM     28  C10 HBY d   1     144.623 -25.973  76.871  0.00  0.00     0.043 C 
ATOM     29  H5  HBY d   1     144.608 -26.378  77.894  0.00  0.00     0.083 H 
BRANCH  28  30
ATOM     30  C12 HBY d   1     145.677 -24.861  76.815  0.00  0.00    -0.052 C 
ATOM     31  H6  HBY d   1     145.406 -24.063  77.522  0.00  0.00     0.030 H 
ATOM     32  H7  HBY d   1     145.721 -24.448  75.796  0.00  0.00     0.030 H 
ATOM     33  H8  HBY d   1     146.660 -25.273  77.086  0.00  0.00     0.030 H 
ENDBRANCH  28  30
BRANCH  28  34
ATOM     34  C11 HBY d   1     143.227 -25.447  76.533  0.00  0.00    -0.052 C 
ATOM     35  H9  HBY d   1     142.502 -26.273  76.584  0.00  0.00     0.030 H 
ATOM     36  H10 HBY d   1     143.230 -25.024  75.517  0.00  0.00     0.030 H 
ATOM     37  H11 HBY d   1     142.945 -24.666  77.254  0.00  0.00     0.030 H 
ENDBRANCH  28  34
ENDBRANCH  27  28
ENDBRANCH   9  27
BRANCH   6  38
ATOM     38  O3  HBY d   1     143.925 -31.596  76.730  0.00  0.00    -0.356 OA
BRANCH  38  39
ATOM     39  C15 HBY d   1     143.365 -32.904  77.159  0.00  0.00     0.010 C 
ATOM     40  H17 HBY d   1     143.917 -33.268  78.038  0.00  0.00     0.066 H 
ATOM     41  H18 HBY d   1     143.461 -33.631  76.339  0.00  0.00     0.066 H 
ATOM     42  H19 HBY d   1     142.303 -32.781  77.418  0.00  0.00     0.066 H 
ENDBRANCH  38  39
ENDBRANCH   6  38
TORSDOF 9
