REMARK  12 active torsions:
REMARK  status: ('A' for Active; 'I' for Inactive)
REMARK    1  A    between atoms: S10_10  and  C1_1 
REMARK    2  A    between atoms: C4_4  and  O7_7 
REMARK    3  A    between atoms: O7_7  and  C8_8 
REMARK    4  A    between atoms: S10_10  and  N9_9 
REMARK    5  A    between atoms: C13_13  and  C23_23 
REMARK    6  A    between atoms: N14_14  and  S20_20 
REMARK    7  A    between atoms: C16_16  and  C19_19 
REMARK    8  A    between atoms: C16_16  and  C18_18 
REMARK    9  A    between atoms: S20_20  and  C27_25 
REMARK       I    between atoms: C23_23  and  N25_24 
REMARK   10  A    between atoms: N25_24  and  O26_34 
REMARK   11  A    between atoms: C30_28  and  O33_31 
REMARK   12  A    between atoms: O33_31  and  C34_32 
ROOT
ATOM      1  N9  N25 d   1       3.502  50.093  51.953  0.00  0.00    -0.278 N 
ATOM      2  C13 N25 d   1       2.157  50.320  51.425  0.00  0.00     0.164 C 
ATOM      3  N14 N25 d   1       2.175  50.927  50.093  0.00  0.00    -0.173 NA
ATOM      4  C15 N25 d   1       2.657  52.308  50.279  0.00  0.00     0.004 C 
ATOM      5  C16 N25 d   1       3.935  52.380  51.089  0.00  0.00    -0.018 C 
ATOM      6  C17 N25 d   1       3.991  51.443  52.279  0.00  0.00     0.015 C 
ATOM      7  H8  N25 d   1       2.059  49.296  51.035  0.00  0.00     0.116 H 
ATOM      8  H9  N25 d   1       2.842  52.752  49.290  0.00  0.00     0.058 H 
ATOM      9  H10 N25 d   1       1.878  52.885  50.799  0.00  0.00     0.058 H 
ATOM     10  H11 N25 d   1       5.034  51.368  52.621  0.00  0.00     0.066 H 
ATOM     11  H12 N25 d   1       3.369  51.859  53.086  0.00  0.00     0.066 H 
ENDROOT
BRANCH   1  12
ATOM     12  S10 N25 d   1       4.065  48.671  52.706  0.00  0.00     0.262 S 
ATOM     13  O12 N25 d   1       3.715  47.606  51.813  0.00  0.00    -0.200 OA
ATOM     14  O11 N25 d   1       5.509  48.726  52.752  0.00  0.00    -0.200 OA
BRANCH  12  15
ATOM     15  C1  N25 d   1       3.334  48.583  54.374  0.00  0.00     0.079 A 
ATOM     16  C6  N25 d   1       2.478  47.419  54.564  0.00  0.00    -0.058 A 
ATOM     17  C5  N25 d   1       2.014  47.121  55.912  0.00  0.00    -0.049 A 
ATOM     18  H4  N25 d   1       2.195  46.793  53.726  0.00  0.00     0.086 H 
ATOM     19  C4  N25 d   1       2.418  47.990  57.003  0.00  0.00     0.068 A 
ATOM     20  H3  N25 d   1       1.377  46.264  56.098  0.00  0.00     0.087 H 
ATOM     21  C3  N25 d   1       3.237  49.177  56.795  0.00  0.00    -0.049 A 
ATOM     22  C2  N25 d   1       3.713  49.490  55.453  0.00  0.00    -0.058 A 
ATOM     23  H2  N25 d   1       3.490  49.821  57.630  0.00  0.00     0.087 H 
ATOM     24  H1  N25 d   1       4.326  50.364  55.264  0.00  0.00     0.086 H 
BRANCH  19  25
ATOM     25  O7  N25 d   1       2.012  47.528  58.194  0.00  0.00    -0.356 OA
BRANCH  25  26
ATOM     26  C8  N25 d   1       2.544  48.086  59.289  0.00  0.00     0.010 C 
ATOM     27  H5  N25 d   1       2.120  47.610  60.186  0.00  0.00     0.066 H 
ATOM     28  H6  N25 d   1       2.314  49.161  59.301  0.00  0.00     0.066 H 
ATOM     29  H7  N25 d   1       3.635  47.945  59.279  0.00  0.00     0.066 H 
ENDBRANCH  25  26
ENDBRANCH  19  25
ENDBRANCH  12  15
ENDBRANCH   1  12
BRANCH   2  30
ATOM     30  C23 N25 d   1       0.889  50.166  52.268  0.00  0.00     0.280 C 
ATOM     31  O24 N25 d   1       0.398  51.111  52.892  0.00  0.00    -0.268 OA
ATOM     32  N25 N25 d   1       0.295  48.982  52.344  0.00  0.00    -0.234 N 
ATOM     33  H19 N25 d   1       0.680  48.112  52.035  0.00  0.00     0.197 HD
BRANCH  32  34
ATOM     34  O26 N25 d   1      -0.969  49.161  52.934  0.00  0.00    -0.287 OA
ATOM     35  H27 N25 d   1      -1.410  48.322  52.997  0.00  0.00     0.244 HD
ENDBRANCH  32  34
ENDBRANCH   2  30
BRANCH   3  36
ATOM     36  S20 N25 d   1       0.866  50.673  49.030  0.00  0.00     0.245 S 
ATOM     37  O22 N25 d   1       1.161  51.486  47.886  0.00  0.00    -0.206 OA
ATOM     38  O21 N25 d   1       0.691  49.262  48.757  0.00  0.00    -0.206 OA
BRANCH  36  39
ATOM     39  C27 N25 d   1      -0.700  51.310  49.662  0.00  0.00     0.074 A 
ATOM     40  C32 N25 d   1      -0.998  52.737  49.640  0.00  0.00    -0.058 A 
ATOM     41  C31 N25 d   1      -2.356  53.108  49.998  0.00  0.00    -0.049 A 
ATOM     42  H23 N25 d   1      -0.252  53.476  49.373  0.00  0.00     0.086 H 
ATOM     43  C30 N25 d   1      -3.289  52.049  50.341  0.00  0.00     0.068 A 
ATOM     44  H22 N25 d   1      -2.665  54.147  50.009  0.00  0.00     0.087 H 
ATOM     45  C29 N25 d   1      -2.969  50.632  50.393  0.00  0.00    -0.049 A 
ATOM     46  C28 N25 d   1      -1.618  50.239  50.037  0.00  0.00    -0.058 A 
ATOM     47  H21 N25 d   1      -3.710  49.898  50.686  0.00  0.00     0.087 H 
ATOM     48  H20 N25 d   1      -1.306  49.201  50.049  0.00  0.00     0.086 H 
BRANCH  43  49
ATOM     49  O33 N25 d   1      -4.568  52.373  50.533  0.00  0.00    -0.356 OA
BRANCH  49  50
ATOM     50  C34 N25 d   1      -5.222  52.180  49.375  0.00  0.00     0.010 C 
ATOM     51  H24 N25 d   1      -6.283  52.440  49.505  0.00  0.00     0.066 H 
ATOM     52  H25 N25 d   1      -5.138  51.124  49.078  0.00  0.00     0.066 H 
ATOM     53  H26 N25 d   1      -4.781  52.817  48.594  0.00  0.00     0.066 H 
ENDBRANCH  49  50
ENDBRANCH  43  49
ENDBRANCH  36  39
ENDBRANCH   3  36
BRANCH   5  54
ATOM     54  C19 N25 d   1       5.142  52.003  50.237  0.00  0.00    -0.067 C 
ATOM     55  H16 N25 d   1       6.055  52.063  50.848  0.00  0.00     0.028 H 
ATOM     56  H17 N25 d   1       5.223  52.697  49.388  0.00  0.00     0.028 H 
ATOM     57  H18 N25 d   1       5.019  50.977  49.861  0.00  0.00     0.028 H 
ENDBRANCH   5  54
BRANCH   5  58
ATOM     58  C18 N25 d   1       3.949  53.806  51.588  0.00  0.00    -0.067 C 
ATOM     59  H13 N25 d   1       4.849  53.972  52.198  0.00  0.00     0.028 H 
ATOM     60  H14 N25 d   1       3.053  53.989  52.199  0.00  0.00     0.028 H 
ATOM     61  H15 N25 d   1       3.955  54.495  50.730  0.00  0.00     0.028 H 
ENDBRANCH   5  58
TORSDOF 12
