REMARK  7 active torsions:
REMARK  status: ('A' for Active; 'I' for Inactive)
REMARK    1  A    between atoms: C8_5  and  C16_12 
REMARK    2  A    between atoms: C3_10  and  N13_11 
REMARK    3  A    between atoms: C16_12  and  C26_14 
REMARK    4  A    between atoms: C16_12  and  O21_13 
REMARK    5  A    between atoms: C26_14  and  C28_16 
REMARK    6  A    between atoms: C26_14  and  O22_15 
REMARK    7  A    between atoms: C28_16  and  O24_17 
ROOT
ATOM      1  N2  NEO d   1       1.553   0.200   8.716  0.00  0.00    -0.164 N 
ATOM      2  C1  NEO d   1       0.491   0.673   8.014  0.00  0.00     0.226 A 
ATOM      3  C10 NEO d   1       0.688   1.364   6.803  0.00  0.00     0.160 A 
ATOM      4  N9  NEO d   1      -0.293   1.864   5.993  0.00  0.00    -0.241 NA
ATOM      5  C8  NEO d   1       0.018   2.566   4.847  0.00  0.00     0.084 A 
ATOM      6  C7  NEO d   1       1.397   2.751   4.525  0.00  0.00     0.031 A 
ATOM      7  N6  NEO d   1       2.365   2.224   5.316  0.00  0.00    -0.237 NA
ATOM      8  C5  NEO d   1       2.046   1.541   6.430  0.00  0.00     0.201 A 
ATOM      9  N4  NEO d   1       3.047   1.066   7.159  0.00  0.00    -0.043 NA
ATOM     10  C3  NEO d   1       2.827   0.395   8.291  0.00  0.00     0.702 A 
ATOM     11  O11 NEO d   1      -0.755   0.609   8.608  0.00  0.00    -0.169 OA
ATOM     12  H1  NEO d   1       1.393  -0.303   9.565  0.00  0.00     0.186 HD
ATOM     13  H2  NEO d   1       1.672   3.317   3.642  0.00  0.00     0.118 H 
ENDROOT
BRANCH   5  14
ATOM     14  C16 NEO d   1      -1.143   3.122   3.979  0.00  0.00     0.105 C 
ATOM     15  H5  NEO d   1      -0.973   2.725   2.967  0.00  0.00     0.097 H 
BRANCH  14  16
ATOM     16  C26 NEO d   1      -1.283   4.645   3.828  0.00  0.00     0.086 C 
ATOM     17  H7  NEO d   1      -0.507   5.110   4.454  0.00  0.00     0.090 H 
BRANCH  16  18
ATOM     18  C28 NEO d   1      -1.077   5.164   2.355  0.00  0.00     0.043 C 
ATOM     19  H9  NEO d   1      -0.794   6.226   2.397  0.00  0.00     0.078 H 
ATOM     20  H10 NEO d   1      -2.029   5.059   1.814  0.00  0.00     0.078 H 
BRANCH  18  21
ATOM     21  O24 NEO d   1      -0.052   4.446   1.622  0.00  0.00    -0.398 OA
ATOM     22  H11 NEO d   1       0.779   4.535   2.073  0.00  0.00     0.209 HD
ENDBRANCH  18  21
ENDBRANCH  16  18
BRANCH  16  23
ATOM     23  O22 NEO d   1      -2.580   5.078   4.314  0.00  0.00    -0.390 OA
ATOM     24  H8  NEO d   1      -2.705   4.765   5.202  0.00  0.00     0.210 HD
ENDBRANCH  16  23
ENDBRANCH  14  16
BRANCH  14  25
ATOM     25  O21 NEO d   1      -2.401   2.633   4.435  0.00  0.00    -0.387 OA
ATOM     26  H6  NEO d   1      -3.073   2.848   3.799  0.00  0.00     0.210 HD
ENDBRANCH  14  25
ENDBRANCH   5  14
BRANCH  10  27
ATOM     27  N13 NEO d   1       3.867   0.248   9.105  0.00  0.00    -0.233 N 
ATOM     28  H3  NEO d   1       4.822   0.403   8.753  0.00  0.00     0.174 HD
ATOM     29  H4  NEO d   1       3.718  -0.021  10.088  0.00  0.00     0.174 HD
ENDBRANCH  10  27
TORSDOF 7
