REMARK WARNING: 32 MAX_TORS EXCEEDED!!!
REMARK  49 active torsions:
REMARK  status: ('A' for Active; 'I' for Inactive)
REMARK    1  A    between atoms: CA_2  and  N_1 
REMARK    2  A    between atoms: CA_2  and  CB_5 
REMARK    3  A    between atoms: CA_2  and  C_3 
REMARK       I    between atoms: C_3  and  N_7 
REMARK    4  A    between atoms: CB_5  and  OG_6 
REMARK    5  A    between atoms: CA_8  and  N_7 
REMARK    6  A    between atoms: CA_8  and  CB_11 
REMARK    7  A    between atoms: CA_8  and  C_9 
REMARK       I    between atoms: C_9  and  N_16 
REMARK    8  A    between atoms: CB_11  and  CG_12 
REMARK    9  A    between atoms: CG_12  and  CD_13 
REMARK   10  A    between atoms: CA_17  and  N_16 
REMARK   11  A    between atoms: CA_17  and  CB_20 
REMARK   12  A    between atoms: CA_17  and  C_18 
REMARK       I    between atoms: C_18  and  N_21 
REMARK   13  A    between atoms: CA_22  and  N_21 
REMARK   14  A    between atoms: CA_22  and  CB_25 
REMARK   15  A    between atoms: CA_22  and  C_23 
REMARK       I    between atoms: C_23  and  N_26 
REMARK   16  A    between atoms: CA_27  and  N_26 
REMARK   17  A    between atoms: CA_27  and  CB_30 
REMARK   18  A    between atoms: CA_27  and  C_28 
REMARK       I    between atoms: C_28  and  N_31 
REMARK   19  A    between atoms: CA_32  and  N_31 
REMARK   20  A    between atoms: CA_32  and  CB_35 
REMARK   21  A    between atoms: CA_32  and  C_33 
REMARK       I    between atoms: C_33  and  N_37 
REMARK   22  A    between atoms: CB_35  and  OG_36 
REMARK   23  A    between atoms: CA_38  and  N_37 
REMARK   24  A    between atoms: CA_38  and  CB_41 
REMARK   25  A    between atoms: CA_38  and  C_39 
REMARK       I    between atoms: C_39  and  N_44 
REMARK   26  A    between atoms: CB_41  and  CG2_43 
REMARK   27  A    between atoms: CB_41  and  OG1_42 
REMARK   28  A    between atoms: CA_45  and  N_44 
REMARK   29  A    between atoms: CA_45  and  CB_48 
REMARK   30  A    between atoms: CA_45  and  C_46 
REMARK       I    between atoms: C_46  and  N_49 
REMARK   31  A    between atoms: CA_50  and  N_49 
REMARK   32  A    between atoms: CA_50  and  CB_53 
REMARK   33  A    between atoms: CA_50  and  C_51 
REMARK       I    between atoms: C_51  and  N_56 
REMARK   34  A    between atoms: CB_53  and  CG2_55 
REMARK   35  A    between atoms: CB_53  and  CG1_54 
REMARK   36  A    between atoms: CA_57  and  N_56 
REMARK   37  A    between atoms: CA_57  and  CB_60 
REMARK   38  A    between atoms: CA_57  and  C_58 
REMARK       I    between atoms: C_58  and  N_63 
REMARK   39  A    between atoms: CB_60  and  CG2_62 
REMARK   40  A    between atoms: CB_60  and  CG1_61 
REMARK   41  A    between atoms: CA_64  and  N_63 
REMARK   42  A    between atoms: CA_64  and  CB_67 
REMARK   43  A    between atoms: CA_64  and  C_65 
REMARK       I    between atoms: C_65  and  N_71 
REMARK   44  A    between atoms: CB_67  and  CG2_69 
REMARK   45  A    between atoms: CB_67  and  CG1_68 
REMARK   46  A    between atoms: CG1_68  and  CD1_70 
REMARK   47  A    between atoms: CA_72  and  N_71 
REMARK   48  A    between atoms: CA_72  and  CB_75 
REMARK   49  A    between atoms: CA_72  and  C_73 
ROOT
ATOM      1  CA  THR d   1      14.220  16.178  74.371  0.00  0.00     0.113 C 
ATOM      2  HA  THR d   1      14.697  15.717  73.493  0.00  0.00     0.091 H 
ENDROOT
BRANCH   1   3
ATOM      3  N   THR d   1      15.257  16.653  75.272  0.00  0.00    -0.344 N 
ATOM      4  C   SER d   1      16.497  16.189  75.216  0.00  0.00     0.243 C 
ATOM      5  O   SER d   1      16.862  15.348  74.394  0.00  0.00    -0.271 OA
ATOM      6  H   THR d   1      15.028  17.349  75.953  0.00  0.00     0.163 HD
BRANCH   4   7
ATOM      7  CA  SER d   1      17.476  16.784  76.214  0.00  0.00     0.109 C 
ATOM      8  HA  SER d   1      16.950  16.978  77.160  0.00  0.00     0.090 H 
BRANCH   7   9
ATOM      9  N   SER d   1      18.549  15.845  76.461  0.00  0.00    -0.344 N 
ATOM     10  C   ALA d   1      19.079  15.700  77.668  0.00  0.00     0.240 C 
ATOM     11  O   ALA d   1      18.717  16.359  78.649  0.00  0.00    -0.271 OA
ATOM     12  H   SER d   1      18.899  15.293  75.704  0.00  0.00     0.163 HD
BRANCH  10  13
ATOM     13  CA  ALA d   1      20.185  14.665  77.781  0.00  0.00     0.086 C 
ATOM     14  HA  ALA d   1      20.835  14.757  76.898  0.00  0.00     0.086 H 
BRANCH  13  15
ATOM     15  N   ALA d   1      20.981  14.900  78.958  0.00  0.00    -0.346 N 
ATOM     16  C   ALA d   1      22.138  14.285  79.129  0.00  0.00     0.240 C 
ATOM     17  O   ALA d   1      22.601  13.484  78.309  0.00  0.00    -0.271 OA
ATOM     18  H   ALA d   1      20.654  15.537  79.656  0.00  0.00     0.163 HD
BRANCH  16  19
ATOM     19  CA  ALA d   1      22.886  14.617  80.404  0.00  0.00     0.086 C 
ATOM     20  HA  ALA d   1      22.174  14.648  81.242  0.00  0.00     0.086 H 
BRANCH  19  21
ATOM     21  N   ALA d   1      23.877  13.597  80.660  0.00  0.00    -0.346 N 
ATOM     22  C   ALA d   1      24.442  13.465  81.845  0.00  0.00     0.240 C 
ATOM     23  O   ALA d   1      24.144  14.161  82.812  0.00  0.00    -0.271 OA
ATOM     24  H   ALA d   1      24.141  12.976  79.921  0.00  0.00     0.163 HD
BRANCH  22  25
ATOM     25  CA  ALA d   1      25.476  12.374  81.947  0.00  0.00     0.086 C 
ATOM     26  HA  ALA d   1      26.078  12.393  81.027  0.00  0.00     0.086 H 
BRANCH  25  27
ATOM     27  N   ALA d   1      26.379  12.549  83.074  0.00  0.00    -0.346 N 
ATOM     28  C   GLU d   1      27.641  12.132  83.030  0.00  0.00     0.241 C 
ATOM     29  O   GLU d   1      28.166  11.655  82.018  0.00  0.00    -0.271 OA
ATOM     30  H   ALA d   1      26.042  12.995  83.903  0.00  0.00     0.163 HD
BRANCH  28  31
ATOM     31  CA  GLU d   1      28.442  12.317  84.286  0.00  0.00     0.090 C 
ATOM     32  HA  GLU d   1      27.770  12.574  85.118  0.00  0.00     0.087 H 
BRANCH  31  33
ATOM     33  N   GLU d   1      29.170  11.087  84.615  0.00  0.00    -0.346 N 
ATOM     34  C   SER d   1      29.254  10.617  85.858  0.00  0.00     0.251 C 
ATOM     35  O   SER d   1      28.681  11.142  86.813  0.00  0.00    -0.271 OA
ATOM     36  H   GLU d   1      29.620  10.582  83.878  0.00  0.00     0.163 HD
BRANCH  34  37
ATOM     37  CA  SER d   1      30.079   9.329  86.041  0.00  0.00     0.195 C 
ATOM     38  HA  SER d   1      30.440   9.017  85.050  0.00  0.00     0.102 H 
BRANCH  37  39
ATOM     39  N   SER d   1      31.246   9.537  86.901  0.00  0.00    -0.064 N 
ATOM     40 AHNC SER d   1      31.192   8.911  87.704  0.00  0.00     0.275 HD
ATOM     41  H   SER d   1      31.262  10.493  87.221  0.00  0.00     0.275 HD
ATOM     42  H1  SER d   1      32.087   9.343  86.379  0.00  0.00     0.275 HD
ENDBRANCH  37  39
BRANCH  37  43
ATOM     43  CB  SER d   1      29.204   8.208  86.608  0.00  0.00     0.051 C 
ATOM     44  HB3 SER d   1      28.768   8.541  87.561  0.00  0.00     0.077 H 
ATOM     45  HB2 SER d   1      29.829   7.319  86.782  0.00  0.00     0.077 H 
BRANCH  43  46
ATOM     46  OG  SER d   1      28.161   7.870  85.719  0.00  0.00    -0.398 OA
ATOM     47  HG  SER d   1      27.637   7.174  86.097  0.00  0.00     0.209 HD
ENDBRANCH  43  46
ENDBRANCH  37  43
ENDBRANCH  34  37
ENDBRANCH  31  33
BRANCH  31  48
ATOM     48  CB  GLU d   1      29.421  13.450  84.050  0.00  0.00    -0.029 C 
ATOM     49  HB3 GLU d   1      30.279  13.057  83.486  0.00  0.00     0.037 H 
ATOM     50  HB2 GLU d   1      29.764  13.823  85.026  0.00  0.00     0.037 H 
BRANCH  48  51
ATOM     51  CG  GLU d   1      28.824  14.612  83.272  0.00  0.00     0.018 C 
ATOM     52  HG3 GLU d   1      27.997  15.041  83.857  0.00  0.00     0.049 H 
ATOM     53  HG2 GLU d   1      28.437  14.234  82.314  0.00  0.00     0.049 H 
BRANCH  51  54
ATOM     54  CD  GLU d   1      29.846  15.710  82.989  0.00  0.00     0.172 C 
ATOM     55  OE2 GLU d   1      29.430  16.882  82.798  0.00  0.00    -0.648 OA
ATOM     56  OE1 GLU d   1      31.065  15.428  83.105  0.00  0.00    -0.648 OA
ENDBRANCH  51  54
ENDBRANCH  48  51
ENDBRANCH  31  48
ENDBRANCH  28  31
ENDBRANCH  25  27
BRANCH  25  57
ATOM     57  CB  ALA d   1      24.783  11.010  82.046  0.00  0.00    -0.049 C 
ATOM     58  HB3 ALA d   1      24.210  10.957  82.984  0.00  0.00     0.030 H 
ATOM     59  HB2 ALA d   1      25.540  10.212  82.033  0.00  0.00     0.030 H 
ATOM     60  HB1 ALA d   1      24.102  10.882  81.192  0.00  0.00     0.030 H 
ENDBRANCH  25  57
ENDBRANCH  22  25
ENDBRANCH  19  21
BRANCH  19  61
ATOM     61  CB  ALA d   1      23.566  15.977  80.279  0.00  0.00    -0.049 C 
ATOM     62  HB3 ALA d   1      24.286  15.952  79.448  0.00  0.00     0.030 H 
ATOM     63  HB2 ALA d   1      24.095  16.210  81.215  0.00  0.00     0.030 H 
ATOM     64  HB1 ALA d   1      22.808  16.750  80.084  0.00  0.00     0.030 H 
ENDBRANCH  19  61
ENDBRANCH  16  19
ENDBRANCH  13  15
BRANCH  13  65
ATOM     65  CB  ALA d   1      19.608  13.259  77.807  0.00  0.00    -0.049 C 
ATOM     66  HB3 ALA d   1      18.975  13.139  78.699  0.00  0.00     0.030 H 
ATOM     67  HB2 ALA d   1      20.428  12.527  77.838  0.00  0.00     0.030 H 
ATOM     68  HB1 ALA d   1      19.003  13.094  76.903  0.00  0.00     0.030 H 
ENDBRANCH  13  65
ENDBRANCH  10  13
ENDBRANCH   7   9
BRANCH   7  69
ATOM     69  CB  SER d   1      18.022  18.102  75.678  0.00  0.00     0.044 C 
ATOM     70  HB3 SER d   1      18.535  17.919  74.722  0.00  0.00     0.077 H 
ATOM     71  HB2 SER d   1      18.735  18.520  76.403  0.00  0.00     0.077 H 
BRANCH  69  72
ATOM     72  OG  SER d   1      16.968  19.029  75.472  0.00  0.00    -0.398 OA
ATOM     73  HG  SER d   1      16.524  19.191  76.296  0.00  0.00     0.209 HD
ENDBRANCH  69  72
ENDBRANCH   7  69
ENDBRANCH   4   7
ENDBRANCH   1   3
BRANCH   1  74
ATOM     74  CB  THR d   1      13.346  15.143  75.050  0.00  0.00     0.060 C 
ATOM     75  HB  THR d   1      12.875  15.596  75.934  0.00  0.00     0.086 H 
BRANCH  74  76
ATOM     76  CG2 THR d   1      12.262  14.656  74.108  0.00  0.00    -0.050 C 
ATOM     77 2HG2 THR d   1      12.111  13.576  74.250  0.00  0.00     0.031 H 
ATOM     78 1HG2 THR d   1      12.565  14.851  73.069  0.00  0.00     0.031 H 
ATOM     79 3HG2 THR d   1      11.324  15.188  74.322  0.00  0.00     0.031 H 
ENDBRANCH  74  76
BRANCH  74  80
ATOM     80  OG1 THR d   1      14.155  14.036  75.461  0.00  0.00    -0.393 OA
ATOM     81  HG1 THR d   1      14.833  14.343  76.051  0.00  0.00     0.210 HD
ENDBRANCH  74  80
ENDBRANCH   1  74
BRANCH   1  82
ATOM     82  C   THR d   1      13.362  17.352  73.911  0.00  0.00     0.243 C 
ATOM     83  O   THR d   1      12.640  17.972  74.699  0.00  0.00    -0.271 OA
ATOM     84  N   ALA d   1      13.497  17.689  72.637  0.00  0.00    -0.346 N 
ATOM     85  H   ALA d   1      14.125  17.167  72.059  0.00  0.00     0.163 HD
BRANCH  84  86
ATOM     86  CA  ALA d   1      12.761  18.791  72.060  0.00  0.00     0.086 C 
ATOM     87  HA  ALA d   1      12.388  19.435  72.870  0.00  0.00     0.086 H 
BRANCH  86  88
ATOM     88  CB  ALA d   1      13.665  19.604  71.161  0.00  0.00    -0.049 C 
ATOM     89  HB3 ALA d   1      14.050  18.964  70.353  0.00  0.00     0.030 H 
ATOM     90  HB2 ALA d   1      14.507  20.000  71.748  0.00  0.00     0.030 H 
ATOM     91  HB1 ALA d   1      13.096  20.439  70.727  0.00  0.00     0.030 H 
ENDBRANCH  86  88
BRANCH  86  92
ATOM     92  C   ALA d   1      11.590  18.270  71.269  0.00  0.00     0.240 C 
ATOM     93  O   ALA d   1      11.696  17.237  70.621  0.00  0.00    -0.271 OA
ATOM     94  N   VAL d   1      10.498  19.031  71.268  0.00  0.00    -0.346 N 
ATOM     95  H   VAL d   1      10.502  19.880  71.797  0.00  0.00     0.163 HD
BRANCH  94  96
ATOM     96  CA  VAL d   1       9.291  18.672  70.522  0.00  0.00     0.092 C 
ATOM     97  HA  VAL d   1       9.548  17.883  69.800  0.00  0.00     0.088 H 
BRANCH  96  98
ATOM     98  CB  VAL d   1       8.178  18.137  71.467  0.00  0.00    -0.033 C 
ATOM     99  HB  VAL d   1       8.178  18.748  72.382  0.00  0.00     0.042 H 
BRANCH  98 100
ATOM    100  CG2 VAL d   1       8.447  16.694  71.854  0.00  0.00    -0.071 C 
ATOM    101 3HG2 VAL d   1       8.463  16.069  70.949  0.00  0.00     0.028 H 
ATOM    102 2HG2 VAL d   1       7.654  16.341  72.529  0.00  0.00     0.028 H 
ATOM    103 1HG2 VAL d   1       9.419  16.626  72.364  0.00  0.00     0.028 H 
ENDBRANCH  98 100
BRANCH  98 104
ATOM    104  CG1 VAL d   1       6.821  18.255  70.814  0.00  0.00    -0.071 C 
ATOM    105 3HG1 VAL d   1       6.611  19.312  70.594  0.00  0.00     0.028 H 
ATOM    106 2HG1 VAL d   1       6.051  17.862  71.495  0.00  0.00     0.028 H 
ATOM    107 1HG1 VAL d   1       6.813  17.677  69.878  0.00  0.00     0.028 H 
ENDBRANCH  98 104
ENDBRANCH  96  98
BRANCH  96 108
ATOM    108  C   VAL d   1       8.762  19.896  69.757  0.00  0.00     0.241 C 
ATOM    109  O   VAL d   1       8.154  20.790  70.348  0.00  0.00    -0.271 OA
ATOM    110  N   VAL d   1       9.006  19.933  68.444  0.00  0.00    -0.346 N 
ATOM    111  H   VAL d   1       9.510  19.182  68.018  0.00  0.00     0.163 HD
BRANCH 110 112
ATOM    112  CA  VAL d   1       8.549  21.054  67.613  0.00  0.00     0.092 C 
ATOM    113  HA  VAL d   1       8.557  21.951  68.249  0.00  0.00     0.088 H 
BRANCH 112 114
ATOM    114  CB  VAL d   1       9.502  21.321  66.420  0.00  0.00    -0.033 C 
ATOM    115  HB  VAL d   1       9.322  22.346  66.065  0.00  0.00     0.042 H 
BRANCH 114 116
ATOM    116  CG2 VAL d   1       9.215  20.376  65.274  0.00  0.00    -0.071 C 
ATOM    117 3HG2 VAL d   1       9.364  19.339  65.608  0.00  0.00     0.028 H 
ATOM    118 2HG2 VAL d   1       9.897  20.594  64.439  0.00  0.00     0.028 H 
ATOM    119 1HG2 VAL d   1       8.175  20.508  64.941  0.00  0.00     0.028 H 
ENDBRANCH 114 116
BRANCH 114 120
ATOM    120  CG1 VAL d   1      10.951  21.227  66.859  0.00  0.00    -0.071 C 
ATOM    121 3HG1 VAL d   1      11.148  21.980  67.636  0.00  0.00     0.028 H 
ATOM    122 2HG1 VAL d   1      11.608  21.410  65.996  0.00  0.00     0.028 H 
ATOM    123 1HG1 VAL d   1      11.147  20.223  67.263  0.00  0.00     0.028 H 
ENDBRANCH 114 120
ENDBRANCH 112 114
BRANCH 112 124
ATOM    124  C   VAL d   1       7.109  20.860  67.109  0.00  0.00     0.241 C 
ATOM    125  O   VAL d   1       6.787  19.830  66.503  0.00  0.00    -0.271 OA
ATOM    126  N   ILE d   1       6.251  21.844  67.394  0.00  0.00    -0.346 N 
ATOM    127  H   ILE d   1       6.586  22.633  67.909  0.00  0.00     0.163 HD
BRANCH 126 128
ATOM    128  CA  ILE d   1       4.832  21.821  66.985  0.00  0.00     0.092 C 
ATOM    129  HA  ILE d   1       4.627  20.814  66.592  0.00  0.00     0.088 H 
BRANCH 128 130
ATOM    130  CB  ILE d   1       3.893  22.039  68.176  0.00  0.00    -0.030 C 
ATOM    131  HB  ILE d   1       4.248  22.911  68.744  0.00  0.00     0.043 H 
BRANCH 130 132
ATOM    132  CG2 ILE d   1       2.477  22.326  67.698  0.00  0.00    -0.071 C 
ATOM    133 3HG2 ILE d   1       2.475  23.238  67.083  0.00  0.00     0.028 H 
ATOM    134 2HG2 ILE d   1       1.818  22.469  68.567  0.00  0.00     0.028 H 
ATOM    135 1HG2 ILE d   1       2.114  21.479  67.098  0.00  0.00     0.028 H 
ENDBRANCH 130 132
BRANCH 130 136
ATOM    136  CG1 ILE d   1       3.923  20.815  69.100  0.00  0.00    -0.063 C 
ATOM    137 3HG1 ILE d   1       4.963  20.643  69.413  0.00  0.00     0.033 H 
ATOM    138 2HG1 ILE d   1       3.562  19.944  68.533  0.00  0.00     0.033 H 
BRANCH 136 139
ATOM    139  CD1 ILE d   1       3.070  20.961  70.343  0.00  0.00    -0.076 C 
ATOM    140 3HD1 ILE d   1       3.430  21.814  70.936  0.00  0.00     0.027 H 
ATOM    141 2HD1 ILE d   1       3.137  20.042  70.944  0.00  0.00     0.027 H 
ATOM    142 1HD1 ILE d   1       2.023  21.132  70.051  0.00  0.00     0.027 H 
ENDBRANCH 136 139
ENDBRANCH 130 136
ENDBRANCH 128 130
BRANCH 128 143
ATOM    143  C   ILE d   1       4.542  22.820  65.844  0.00  0.00     0.241 C 
ATOM    144  O   ILE d   1       5.128  23.907  65.805  0.00  0.00    -0.271 OA
ATOM    145  N   ALA d   1       3.635  22.460  64.930  0.00  0.00    -0.345 N 
ATOM    146  H   ALA d   1       3.131  21.604  65.046  0.00  0.00     0.163 HD
BRANCH 145 147
ATOM    147  CA  ALA d   1       3.370  23.302  63.761  0.00  0.00     0.093 C 
ATOM    148  HA  ALA d   1       3.848  24.272  63.962  0.00  0.00     0.089 H 
BRANCH 147 149
ATOM    149  CB  ALA d   1       4.050  22.688  62.535  0.00  0.00    -0.048 C 
ATOM    150  HB3 ALA d   1       3.650  21.678  62.361  0.00  0.00     0.030 H 
ATOM    151  HB2 ALA d   1       5.135  22.628  62.709  0.00  0.00     0.030 H 
ATOM    152  HB1 ALA d   1       3.854  23.317  61.654  0.00  0.00     0.030 H 
ENDBRANCH 147 149
BRANCH 147 153
ATOM    153  C   ALA d   1       1.914  23.602  63.442  0.00  0.00     0.196 C 
ATOM    154  O   ALA d   1       1.605  24.665  62.841  0.00  0.00    -0.646 OA
ATOM    155  O   ALA d   1       1.011  22.736  63.588  0.00  0.00    -0.646 OA
ENDBRANCH 147 153
ENDBRANCH 145 147
ENDBRANCH 128 143
ENDBRANCH 126 128
ENDBRANCH 112 124
ENDBRANCH 110 112
ENDBRANCH  96 108
ENDBRANCH  94  96
ENDBRANCH  86  92
ENDBRANCH  84  86
ENDBRANCH   1  82
TORSDOF 49
