REMARK  2 active torsions:
REMARK  status: ('A' for Active; 'I' for Inactive)
REMARK    1  A    between atoms: C1_1  and  C7_7 
REMARK    2  A    between atoms: C7_7  and  N1_8 
ROOT
ATOM      1  C1  BEN d   1       7.788  49.769  56.097  0.00  0.00     0.007 C 
ATOM      2  C2  BEN d   1       7.885  48.698  56.963  0.00  0.00    -0.069 C 
ATOM      3  C3  BEN d   1       8.055  47.380  56.487  0.00  0.00    -0.082 C 
ATOM      4  C4  BEN d   1       8.244  47.199  55.109  0.00  0.00    -0.083 C 
ATOM      5  C5  BEN d   1       8.213  48.308  54.251  0.00  0.00    -0.082 C 
ATOM      6  C6  BEN d   1       8.009  49.591  54.761  0.00  0.00    -0.069 C 
ATOM      7  H1  BEN d   1       7.829  48.873  58.031  0.00  0.00     0.085 H 
ATOM      8  H2  BEN d   1       8.040  46.534  57.165  0.00  0.00     0.083 H 
ATOM      9  H3  BEN d   1       8.413  46.206  54.709  0.00  0.00     0.083 H 
ATOM     10  H4  BEN d   1       8.348  48.168  53.185  0.00  0.00     0.083 H 
ATOM     11  H5  BEN d   1       8.026  50.447  54.096  0.00  0.00     0.085 H 
ENDROOT
BRANCH   1  12
ATOM     12  C7  BEN d   1       7.620  51.057  56.597  0.00  0.00     0.102 C 
ATOM     13  N2  BEN d   1       7.431  52.090  55.801  0.00  0.00    -0.385 N 
ATOM     14  H8  BEN d   1       7.388  51.953  54.781  0.00  0.00     0.157 HD
ATOM     15  H9  BEN d   1       7.326  53.034  56.199  0.00  0.00     0.157 HD
BRANCH  12  16
ATOM     16  N1  BEN d   1       7.687  51.153  57.930  0.00  0.00    -0.385 N 
ATOM     17  H6  BEN d   1       7.574  52.069  58.387  0.00  0.00     0.157 HD
ATOM     18  H7  BEN d   1       7.852  50.311  58.499  0.00  0.00     0.157 HD
ENDBRANCH  12  16
ENDBRANCH   1  12
TORSDOF 2
