REMARK  15 active torsions:
REMARK  status: ('A' for Active; 'I' for Inactive)
REMARK    1  A    between atoms: P1_2  and  O2_3 
REMARK    2  A    between atoms: O2_3  and  C5_5 
REMARK    3  A    between atoms: C5_5  and  C6_6 
REMARK    4  A    between atoms: C5_5  and  C7_7 
REMARK       I    between atoms: C6_6  and  N12_12 
REMARK    5  A    between atoms: C7_7  and  C8_8 
REMARK    6  A    between atoms: C8_8  and  C9_9 
REMARK    7  A    between atoms: C9_9  and  C10_10 
REMARK    8  A    between atoms: N12_12  and  C13_13 
REMARK    9  A    between atoms: C13_13  and  C14_14 
REMARK   10  A    between atoms: C13_13  and  C18_18 
REMARK   11  A    between atoms: C14_14  and  C15_15 
REMARK   12  A    between atoms: C15_15  and  C16_16 
REMARK   13  A    between atoms: C15_15  and  C17_17 
REMARK       I    between atoms: C18_18  and  N19_19 
REMARK   14  A    between atoms: N19_19  and  C21_21 
REMARK   15  A    between atoms: C24_24  and  N27_27 
ROOT
ATOM      1  C13 MLN d   1      40.445  53.002  78.464  0.00  0.00     0.090 C 
ATOM      2  H12 MLN d   1      40.249  54.051  78.732  0.00  0.00     0.087 H 
ENDROOT
BRANCH   1   3
ATOM      3  N12 MLN d   1      40.791  52.844  77.055  0.00  0.00    -0.346 N 
ATOM      4  C6  MLN d   1      40.819  53.903  76.198  0.00  0.00     0.248 C 
ATOM      5  O11 MLN d   1      40.474  55.023  76.456  0.00  0.00    -0.271 OA
ATOM      6  H11 MLN d   1      41.014  51.933  76.709  0.00  0.00     0.163 HD
BRANCH   4   7
ATOM      7  C5  MLN d   1      41.348  53.507  74.852  0.00  0.00     0.128 C 
ATOM      8  H1  MLN d   1      40.861  52.571  74.541  0.00  0.00     0.099 H 
BRANCH   7   9
ATOM      9  O2  MLN d   1      41.089  54.589  74.006  0.00  0.00    -0.268 OA
BRANCH   9  10
ATOM     10  P1  MLN d   1      40.049  54.230  72.615  0.00  0.00     0.423 P 
ATOM     11  O3  MLN d   1      40.907  53.333  71.581  0.00  0.00    -0.617 OA
ATOM     12  O4  MLN d   1      38.673  53.514  72.913  0.00  0.00    -0.617 OA
ATOM     13  O1  MLN d   1      39.725  55.530  71.963  0.00  0.00    -0.617 OA
ENDBRANCH   9  10
ENDBRANCH   7   9
BRANCH   7  14
ATOM     14  C7  MLN d   1      42.886  53.445  74.576  0.00  0.00    -0.032 C 
ATOM     15  H2  MLN d   1      43.054  54.050  73.673  0.00  0.00     0.037 H 
ATOM     16  H3  MLN d   1      43.110  52.390  74.358  0.00  0.00     0.037 H 
BRANCH  14  17
ATOM     17  C8  MLN d   1      43.956  53.903  75.598  0.00  0.00    -0.063 C 
ATOM     18  H4  MLN d   1      43.452  53.964  76.574  0.00  0.00     0.033 H 
ATOM     19  H5  MLN d   1      44.277  54.908  75.287  0.00  0.00     0.033 H 
BRANCH  17  20
ATOM     20  C9  MLN d   1      45.257  53.070  75.821  0.00  0.00    -0.068 C 
ATOM     21  H6  MLN d   1      45.910  53.555  76.562  0.00  0.00     0.032 H 
ATOM     22  H7  MLN d   1      45.806  52.942  74.877  0.00  0.00     0.032 H 
BRANCH  20  23
ATOM     23  C10 MLN d   1      44.755  51.737  76.336  0.00  0.00    -0.077 C 
ATOM     24  H8  MLN d   1      45.610  51.072  76.525  0.00  0.00     0.027 H 
ATOM     25  H9  MLN d   1      44.094  51.279  75.585  0.00  0.00     0.027 H 
ATOM     26  H10 MLN d   1      44.197  51.892  77.271  0.00  0.00     0.027 H 
ENDBRANCH  20  23
ENDBRANCH  17  20
ENDBRANCH  14  17
ENDBRANCH   7  14
ENDBRANCH   4   7
ENDBRANCH   1   3
BRANCH   1  27
ATOM     27  C14 MLN d   1      39.170  52.197  78.685  0.00  0.00    -0.035 C 
ATOM     28  H13 MLN d   1      38.932  52.167  79.758  0.00  0.00     0.037 H 
ATOM     29  H14 MLN d   1      39.309  51.172  78.311  0.00  0.00     0.037 H 
BRANCH  27  30
ATOM     30  C15 MLN d   1      38.036  52.870  77.927  0.00  0.00    -0.059 C 
ATOM     31  H15 MLN d   1      38.359  53.046  76.890  0.00  0.00     0.038 H 
BRANCH  30  32
ATOM     32  C16 MLN d   1      36.861  51.956  77.959  0.00  0.00    -0.073 C 
ATOM     33  H16 MLN d   1      36.023  52.418  77.417  0.00  0.00     0.028 H 
ATOM     34  H17 MLN d   1      36.566  51.774  79.003  0.00  0.00     0.028 H 
ATOM     35  H18 MLN d   1      37.126  51.002  77.481  0.00  0.00     0.028 H 
ENDBRANCH  30  32
BRANCH  30  36
ATOM     36  C17 MLN d   1      37.565  54.179  78.529  0.00  0.00    -0.073 C 
ATOM     37  H19 MLN d   1      38.395  54.901  78.533  0.00  0.00     0.028 H 
ATOM     38  H20 MLN d   1      37.224  54.007  79.561  0.00  0.00     0.028 H 
ATOM     39  H21 MLN d   1      36.734  54.580  77.930  0.00  0.00     0.028 H 
ENDBRANCH  30  36
ENDBRANCH  27  30
ENDBRANCH   1  27
BRANCH   1  40
ATOM     40  C18 MLN d   1      41.723  52.540  79.118  0.00  0.00     0.245 C 
ATOM     41  N19 MLN d   1      42.342  53.454  80.181  0.00  0.00    -0.325 N 
ATOM     42  H22 MLN d   1      41.925  54.354  80.307  0.00  0.00     0.169 HD
ATOM     43  O20 MLN d   1      42.241  51.486  78.800  0.00  0.00    -0.271 OA
BRANCH  41  44
ATOM     44  C21 MLN d   1      43.361  53.163  80.933  0.00  0.00     0.034 C 
ATOM     45  C22 MLN d   1      43.866  51.844  81.070  0.00  0.00    -0.055 C 
ATOM     46  C23 MLN d   1      44.857  51.611  82.037  0.00  0.00    -0.049 C 
ATOM     47  H23 MLN d   1      43.497  51.039  80.445  0.00  0.00     0.087 H 
ATOM     48  C24 MLN d   1      45.418  52.736  82.742  0.00  0.00     0.103 C 
ATOM     49  H24 MLN d   1      45.194  50.603  82.249  0.00  0.00     0.087 H 
ATOM     50  C25 MLN d   1      44.941  54.064  82.584  0.00  0.00    -0.049 C 
ATOM     51  C26 MLN d   1      43.926  54.280  81.605  0.00  0.00    -0.055 C 
ATOM     52  H25 MLN d   1      45.332  54.879  83.182  0.00  0.00     0.087 H 
ATOM     53  H26 MLN d   1      43.590  55.285  81.376  0.00  0.00     0.087 H 
BRANCH  48  54
ATOM     54  N27 MLN d   1      46.510  52.508  83.628  0.00  0.00    -0.116 N 
ATOM     55  O28 MLN d   1      47.158  53.481  84.196  0.00  0.00    -0.532 OA
ATOM     56  O29 MLN d   1      46.864  51.244  83.853  0.00  0.00    -0.532 OA
ENDBRANCH  48  54
ENDBRANCH  41  44
ENDBRANCH   1  40
TORSDOF 15
