REMARK WARNING: 32 MAX_TORS EXCEEDED!!!
REMARK  58 active torsions:
REMARK  status: ('A' for Active; 'I' for Inactive)
REMARK    1  A    between atoms: C_1  and  CH3_3 
REMARK       I    between atoms: N_4  and  C_1 
REMARK    2  A    between atoms: CA_5  and  N_4 
REMARK    3  A    between atoms: CA_5  and  CB_8 
REMARK    4  A    between atoms: C_6  and  CA_5 
REMARK       I    between atoms: N_10  and  C_6 
REMARK    5  A    between atoms: CB_8  and  OG_9 
REMARK    6  A    between atoms: CA_11  and  N_10 
REMARK    7  A    between atoms: CA_11  and  CB_14 
REMARK    8  A    between atoms: C_12  and  CA_11 
REMARK    9  A    between atoms: CB_14  and  CG2_16 
REMARK   10  A    between atoms: CB_14  and  OG1_15 
REMARK   11  A    between atoms: CA_18  and  N_17 
REMARK   12  A    between atoms: CA_18  and  CB_21 
REMARK   13  A    between atoms: C_19  and  CA_18 
REMARK       I    between atoms: N_24  and  C_19 
REMARK   14  A    between atoms: CB_21  and  CG2_23 
REMARK   15  A    between atoms: CB_21  and  CG1_22 
REMARK   16  A    between atoms: CA_25  and  N_24 
REMARK   17  A    between atoms: CA_25  and  CB_28 
REMARK   18  A    between atoms: C_26  and  CA_25 
REMARK       I    between atoms: N_34  and  C_26 
REMARK   19  A    between atoms: CB_28  and  CG_29 
REMARK   20  A    between atoms: CA_35  and  N_34 
REMARK   21  A    between atoms: CA_35  and  CB_38 
REMARK   22  A    between atoms: C_36  and  CA_35 
REMARK       I    between atoms: N_43  and  C_36 
REMARK   23  A    between atoms: CB_38  and  CG_39 
REMARK   24  A    between atoms: CG_39  and  CD_40 
REMARK   25  A    between atoms: CA_44  and  N_43 
REMARK   26  A    between atoms: CA_44  and  CB_47 
REMARK   27  A    between atoms: C_45  and  CA_44 
REMARK       I    between atoms: N_51  and  C_45 
REMARK   28  A    between atoms: CB_47  and  CG2_49 
REMARK   29  A    between atoms: CB_47  and  CG1_48 
REMARK   30  A    between atoms: CG1_48  and  CD1_50 
REMARK   31  A    between atoms: CA_52  and  N_51 
REMARK   32  A    between atoms: CA_52  and  CB_55 
REMARK   33  A    between atoms: C_53  and  CA_52 
REMARK       I    between atoms: N_59  and  C_53 
REMARK   34  A    between atoms: CB_55  and  CG_56 
REMARK   35  A    between atoms: CG_56  and  CD1_57 
REMARK   36  A    between atoms: CG_56  and  CD2_58 
REMARK   37  A    between atoms: CA_60  and  N_59 
REMARK   38  A    between atoms: CA_60  and  CB_63 
REMARK   39  A    between atoms: C_61  and  CA_60 
REMARK       I    between atoms: N_65  and  C_61 
REMARK   40  A    between atoms: CB_63  and  OG_64 
REMARK   41  A    between atoms: CA_66  and  N_65 
REMARK   42  A    between atoms: CA_66  and  CB_69 
REMARK   43  A    between atoms: C_67  and  CA_66 
REMARK       I    between atoms: N_74  and  C_67 
REMARK   44  A    between atoms: CB_69  and  CG_70 
REMARK   45  A    between atoms: CG_70  and  CD_71 
REMARK   46  A    between atoms: CD_71  and  CE_72 
REMARK   47  A    between atoms: CE_72  and  NZ_73 
REMARK   48  A    between atoms: CA_75  and  N_74 
REMARK   49  A    between atoms: CA_75  and  CB_78 
REMARK   50  A    between atoms: C_76  and  CA_75 
REMARK       I    between atoms: C_76  and  N_82 
REMARK   51  A    between atoms: CB_78  and  CG_79 
REMARK   52  A    between atoms: CG_79  and  CD1_80 
REMARK   53  A    between atoms: CG_79  and  CD2_81 
REMARK   54  A    between atoms: N_82  and  CA_83 
REMARK   55  A    between atoms: CA_83  and  CB_86 
REMARK   56  A    between atoms: CA_83  and  C_84 
REMARK   57  A    between atoms: C_84  and  O1_88 
REMARK   58  A    between atoms: CB_86  and  OG_87 
ROOT
ATOM      1  CA  ILE d   1      52.793  24.969  31.810  0.00  0.00     0.092 C 
ATOM      2  H39 ILE d   1      51.897  24.438  31.457  0.00  0.00     0.088 H 
ENDROOT
BRANCH   1   3
ATOM      3  N   ILE d   1      53.674  25.215  30.638  0.00  0.00    -0.346 N 
ATOM      4  C   GLU d   1      53.056  25.750  29.572  0.00  0.00     0.241 C 
ATOM      5  O   GLU d   1      51.839  25.993  29.528  0.00  0.00    -0.271 OA
ATOM      6  H38 ILE d   1      54.650  24.999  30.643  0.00  0.00     0.163 HD
BRANCH   4   7
ATOM      7  CA  GLU d   1      53.884  26.085  28.360  0.00  0.00     0.090 C 
ATOM      8  H33 GLU d   1      53.348  26.841  27.768  0.00  0.00     0.087 H 
BRANCH   7   9
ATOM      9  N   GLU d   1      55.157  26.650  28.739  0.00  0.00    -0.346 N 
ATOM     10  C   HIS d   1      55.329  27.830  29.298  0.00  0.00     0.241 C 
ATOM     11  O   HIS d   1      54.356  28.499  29.625  0.00  0.00    -0.271 OA
ATOM     12  H32 GLU d   1      55.974  26.101  28.563  0.00  0.00     0.163 HD
BRANCH  10  13
ATOM     13  CA  HIS d   1      56.721  28.313  29.669  0.00  0.00     0.094 C 
ATOM     14  H26 HIS d   1      56.601  29.171  30.347  0.00  0.00     0.088 H 
BRANCH  13  15
ATOM     15  N   HIS d   1      57.445  27.257  30.397  0.00  0.00    -0.346 N 
ATOM     16  C   VAL d   1      56.958  26.748  31.527  0.00  0.00     0.241 C 
ATOM     17  O   VAL d   1      55.905  27.122  32.045  0.00  0.00    -0.271 OA
ATOM     18  H25 HIS d   1      58.314  26.918  30.038  0.00  0.00     0.163 HD
BRANCH  16  19
ATOM     19  CA  VAL d   1      57.783  25.652  32.149  0.00  0.00     0.091 C 
ATOM     20  H17 VAL d   1      57.114  25.001  32.731  0.00  0.00     0.088 H 
BRANCH  19  21
ATOM     21  N   VAL d   1      58.387  24.842  31.074  0.00  0.00    -0.357 N 
ATOM     22  C   THR d   1      57.614  24.011  30.331  0.00  0.00     0.177 C 
ATOM     23  O   THR d   1      56.365  24.016  31.000  0.00  0.00    -0.175 OA
ATOM     24  H16 VAL d   1      59.368  24.906  30.893  0.00  0.00     0.162 HD
BRANCH  22  25
ATOM     25  CA  THR d   1      58.177  23.196  29.193  0.00  0.00     0.101 C 
ATOM     26  H10 THR d   1      57.354  23.211  28.463  0.00  0.00     0.089 H 
BRANCH  25  27
ATOM     27  N   THR d   1      59.298  23.865  28.473  0.00  0.00    -0.345 N 
ATOM     28  C   SER d   1      58.952  24.779  27.550  0.00  0.00     0.243 C 
ATOM     29  O   SER d   1      57.760  25.095  27.403  0.00  0.00    -0.271 OA
ATOM     30  H9  THR d   1      60.254  23.646  28.666  0.00  0.00     0.163 HD
BRANCH  28  31
ATOM     31  CA  SER d   1      60.141  25.559  26.958  0.00  0.00     0.109 C 
ATOM     32  H5  SER d   1      59.779  26.561  26.686  0.00  0.00     0.090 H 
BRANCH  31  33
ATOM     33  N   SER d   1      61.010  25.717  28.048  0.00  0.00    -0.346 N 
ATOM     34  C   ACE d   1      60.815  26.529  29.078  0.00  0.00     0.214 C 
ATOM     35  O   ACE d   1      59.844  27.111  29.555  0.00  0.00    -0.274 OA
ATOM     36  H4  SER d   1      61.848  25.171  28.048  0.00  0.00     0.163 HD
BRANCH  34  37
ATOM     37  CH3 ACE d   1      62.169  26.607  29.741  0.00  0.00    -0.003 C 
ATOM     38  H1  ACE d   1      62.896  26.021  29.160  0.00  0.00     0.040 H 
ATOM     39  H2  ACE d   1      62.102  26.200  30.761  0.00  0.00     0.040 H 
ATOM     40  H3  ACE d   1      62.496  27.656  29.785  0.00  0.00     0.040 H 
ENDBRANCH  34  37
ENDBRANCH  31  33
BRANCH  31  41
ATOM     41  CB  SER d   1      60.713  24.987  25.672  0.00  0.00     0.044 C 
ATOM     42  H6  SER d   1      61.795  25.175  25.616  0.00  0.00     0.077 H 
ATOM     43  H7  SER d   1      60.217  25.436  24.799  0.00  0.00     0.077 H 
BRANCH  41  44
ATOM     44  OG  SER d   1      60.454  23.584  25.725  0.00  0.00    -0.398 OA
ATOM     45  H8  SER d   1      60.880  23.213  26.488  0.00  0.00     0.209 HD
ENDBRANCH  41  44
ENDBRANCH  31  41
ENDBRANCH  28  31
ENDBRANCH  25  27
BRANCH  25  46
ATOM     46  CB  THR d   1      58.409  21.752  29.385  0.00  0.00     0.059 C 
ATOM     47  H11 THR d   1      57.634  21.343  28.720  0.00  0.00     0.086 H 
BRANCH  46  48
ATOM     48  CG2 THR d   1      59.645  21.191  28.767  0.00  0.00    -0.050 C 
ATOM     49  H13 THR d   1      59.704  20.113  28.979  0.00  0.00     0.031 H 
ATOM     50  H14 THR d   1      60.527  21.696  29.187  0.00  0.00     0.031 H 
ATOM     51  H15 THR d   1      59.615  21.349  27.679  0.00  0.00     0.031 H 
ENDBRANCH  46  48
BRANCH  46  52
ATOM     52  OG1 THR d   1      58.060  21.153  30.576  0.00  0.00    -0.393 OA
ATOM     53  H12 THR d   1      57.268  21.557  30.912  0.00  0.00     0.210 HD
ENDBRANCH  46  52
ENDBRANCH  25  46
ENDBRANCH  22  25
ENDBRANCH  19  21
BRANCH  19  54
ATOM     54  CB  VAL d   1      58.856  26.250  33.146  0.00  0.00    -0.033 C 
ATOM     55  H18 VAL d   1      59.749  26.520  32.564  0.00  0.00     0.042 H 
BRANCH  54  56
ATOM     56  CG2 VAL d   1      59.214  25.161  34.155  0.00  0.00    -0.071 C 
ATOM     57  H22 VAL d   1      59.541  24.258  33.619  0.00  0.00     0.028 H 
ATOM     58  H23 VAL d   1      58.332  24.925  34.768  0.00  0.00     0.028 H 
ATOM     59  H24 VAL d   1      60.028  25.516  34.805  0.00  0.00     0.028 H 
ENDBRANCH  54  56
BRANCH  54  60
ATOM     60  CG1 VAL d   1      58.417  27.462  33.909  0.00  0.00    -0.071 C 
ATOM     61  H19 VAL d   1      59.232  27.795  34.569  0.00  0.00     0.028 H 
ATOM     62  H20 VAL d   1      57.533  27.214  34.515  0.00  0.00     0.028 H 
ATOM     63  H21 VAL d   1      58.164  28.267  33.204  0.00  0.00     0.028 H 
ENDBRANCH  54  60
ENDBRANCH  19  54
ENDBRANCH  16  19
ENDBRANCH  13  15
BRANCH  13  64
ATOM     64  CB  HIS d   1      57.529  28.790  28.477  0.00  0.00     0.002 C 
ATOM     65  H27 HIS d   1      57.777  27.928  27.840  0.00  0.00     0.046 H 
ATOM     66  H28 HIS d   1      58.456  29.262  28.834  0.00  0.00     0.046 H 
BRANCH  64  67
ATOM     67  CG  HIS d   1      56.746  29.786  27.676  0.00  0.00     0.030 A 
ATOM     68  ND1 HIS d   1      56.895  31.134  27.765  0.00  0.00    -0.353 N 
ATOM     69  CE1 HIS d   1      56.029  31.765  27.028  0.00  0.00     0.063 A 
ATOM     70  H29 HIS d   1      57.607  31.599  28.346  0.00  0.00     0.166 HD
ATOM     71  NE2 HIS d   1      55.345  30.843  26.384  0.00  0.00    -0.254 NA
ATOM     72  H31 HIS d   1      55.896  32.843  26.957  0.00  0.00     0.143 H 
ATOM     73  CD2 HIS d   1      55.748  29.593  26.764  0.00  0.00     0.025 A 
ATOM     74  H30 HIS d   1      55.355  28.640  26.412  0.00  0.00     0.117 H 
ENDBRANCH  64  67
ENDBRANCH  13  64
ENDBRANCH  10  13
ENDBRANCH   7   9
BRANCH   7  75
ATOM     75  CB  GLU d   1      54.017  24.825  27.514  0.00  0.00    -0.029 C 
ATOM     76  H34 GLU d   1      53.030  24.578  27.096  0.00  0.00     0.037 H 
ATOM     77  H35 GLU d   1      54.357  24.003  28.161  0.00  0.00     0.037 H 
BRANCH  75  78
ATOM     78  CG  GLU d   1      55.016  24.979  26.352  0.00  0.00     0.018 C 
ATOM     79  H36 GLU d   1      55.542  24.024  26.209  0.00  0.00     0.049 H 
ATOM     80  H37 GLU d   1      55.743  25.763  26.611  0.00  0.00     0.049 H 
BRANCH  78  81
ATOM     81  CD  GLU d   1      54.324  25.363  25.039  0.00  0.00     0.172 C 
ATOM     82  OE2 GLU d   1      54.832  26.243  24.304  0.00  0.00    -0.648 OA
ATOM     83  OE1 GLU d   1      53.251  24.762  24.785  0.00  0.00    -0.648 OA
ENDBRANCH  78  81
ENDBRANCH  75  78
ENDBRANCH   7  75
ENDBRANCH   4   7
ENDBRANCH   1   3
BRANCH   1  84
ATOM     84  CB  ILE d   1      53.448  24.090  32.880  0.00  0.00    -0.030 C 
ATOM     85  H40 ILE d   1      54.370  24.596  33.203  0.00  0.00     0.043 H 
BRANCH  84  86
ATOM     86  CG2 ILE d   1      52.584  23.934  34.116  0.00  0.00    -0.071 C 
ATOM     87  H43 ILE d   1      52.329  24.928  34.513  0.00  0.00     0.028 H 
ATOM     88  H44 ILE d   1      53.135  23.365  34.879  0.00  0.00     0.028 H 
ATOM     89  H45 ILE d   1      51.661  23.396  33.853  0.00  0.00     0.028 H 
ENDBRANCH  84  86
BRANCH  84  90
ATOM     90  CG1 ILE d   1      53.850  22.780  32.263  0.00  0.00    -0.063 C 
ATOM     91  H41 ILE d   1      54.679  23.002  31.575  0.00  0.00     0.033 H 
ATOM     92  H42 ILE d   1      52.981  22.427  31.689  0.00  0.00     0.033 H 
BRANCH  90  93
ATOM     93  CD1 ILE d   1      54.294  21.634  33.102  0.00  0.00    -0.076 C 
ATOM     94  H46 ILE d   1      54.540  20.779  32.455  0.00  0.00     0.027 H 
ATOM     95  H47 ILE d   1      53.486  21.350  33.793  0.00  0.00     0.027 H 
ATOM     96  H48 ILE d   1      55.184  21.925  33.679  0.00  0.00     0.027 H 
ENDBRANCH  90  93
ENDBRANCH  84  90
ENDBRANCH   1  84
BRANCH   1  97
ATOM     97  C   ILE d   1      52.361  26.311  32.358  0.00  0.00     0.241 C 
ATOM     98  O   ILE d   1      51.184  26.453  32.694  0.00  0.00    -0.271 OA
ATOM     99  N   LEU d   1      53.228  27.342  32.450  0.00  0.00    -0.346 N 
ATOM    100  H49 LEU d   1      54.178  27.261  32.147  0.00  0.00     0.163 HD
BRANCH  99 101
ATOM    101  CA  LEU d   1      52.698  28.594  33.022  0.00  0.00     0.089 C 
ATOM    102  H50 LEU d   1      52.362  28.320  34.033  0.00  0.00     0.087 H 
BRANCH 101 103
ATOM    103  CB  LEU d   1      53.743  29.673  33.248  0.00  0.00    -0.035 C 
ATOM    104  H51 LEU d   1      53.257  30.556  33.687  0.00  0.00     0.037 H 
ATOM    105  H52 LEU d   1      54.193  29.944  32.282  0.00  0.00     0.037 H 
BRANCH 103 106
ATOM    106  CG  LEU d   1      54.874  29.178  34.217  0.00  0.00    -0.059 C 
ATOM    107  H53 LEU d   1      55.267  28.229  33.824  0.00  0.00     0.038 H 
BRANCH 106 108
ATOM    108  CD1 LEU d   1      56.013  30.164  34.226  0.00  0.00    -0.073 C 
ATOM    109  H54 LEU d   1      56.800  29.809  34.907  0.00  0.00     0.028 H 
ATOM    110  H55 LEU d   1      55.647  31.144  34.567  0.00  0.00     0.028 H 
ATOM    111  H56 LEU d   1      56.423  30.259  33.210  0.00  0.00     0.028 H 
ENDBRANCH 106 108
BRANCH 106 112
ATOM    112  CD2 LEU d   1      54.301  28.894  35.574  0.00  0.00    -0.073 C 
ATOM    113  H57 LEU d   1      53.479  28.169  35.480  0.00  0.00     0.028 H 
ATOM    114  H58 LEU d   1      53.919  29.827  36.013  0.00  0.00     0.028 H 
ATOM    115  H59 LEU d   1      55.085  28.478  36.223  0.00  0.00     0.028 H 
ENDBRANCH 106 112
ENDBRANCH 103 106
ENDBRANCH 101 103
BRANCH 101 116
ATOM    116  C   LEU d   1      51.450  29.078  32.318  0.00  0.00     0.241 C 
ATOM    117  O   LEU d   1      50.511  29.570  32.926  0.00  0.00    -0.271 OA
ATOM    118  N   SER d   1      51.459  28.889  30.995  0.00  0.00    -0.344 N 
ATOM    119  H60 SER d   1      52.298  28.531  30.585  0.00  0.00     0.163 HD
BRANCH 118 120
ATOM    120  CA  SER d   1      50.336  29.166  30.103  0.00  0.00     0.109 C 
ATOM    121  H61 SER d   1      50.050  30.216  30.263  0.00  0.00     0.090 H 
BRANCH 120 122
ATOM    122  CB  SER d   1      50.774  29.042  28.642  0.00  0.00     0.044 C 
ATOM    123  H62 SER d   1      49.929  28.745  28.003  0.00  0.00     0.077 H 
ATOM    124  H63 SER d   1      51.588  28.309  28.538  0.00  0.00     0.077 H 
BRANCH 122 125
ATOM    125  OG  SER d   1      51.236  30.383  28.303  0.00  0.00    -0.398 OA
ATOM    126  H64 SER d   1      51.530  30.396  27.400  0.00  0.00     0.209 HD
ENDBRANCH 122 125
ENDBRANCH 120 122
BRANCH 120 127
ATOM    127  C   SER d   1      49.115  28.335  30.428  0.00  0.00     0.243 C 
ATOM    128  O   SER d   1      48.026  28.880  30.309  0.00  0.00    -0.271 OA
ATOM    129  N   LYS d   1      49.213  27.120  30.923  0.00  0.00    -0.346 N 
ATOM    130  H65 LYS d   1      50.129  26.728  31.003  0.00  0.00     0.163 HD
BRANCH 129 131
ATOM    131  CA  LYS d   1      48.093  26.302  31.363  0.00  0.00     0.089 C 
ATOM    132  H66 LYS d   1      47.264  26.455  30.657  0.00  0.00     0.087 H 
BRANCH 131 133
ATOM    133  CB  LYS d   1      48.440  24.809  31.407  0.00  0.00    -0.038 C 
ATOM    134  H67 LYS d   1      47.956  24.374  32.294  0.00  0.00     0.036 H 
ATOM    135  H68 LYS d   1      49.532  24.717  31.503  0.00  0.00     0.036 H 
BRANCH 133 136
ATOM    136  CG  LYS d   1      48.009  24.009  30.201  0.00  0.00    -0.061 C 
ATOM    137  H69 LYS d   1      46.916  23.884  30.221  0.00  0.00     0.033 H 
ATOM    138  H70 LYS d   1      48.492  23.021  30.230  0.00  0.00     0.033 H 
BRANCH 136 139
ATOM    139  CD  LYS d   1      48.408  24.724  28.916  0.00  0.00    -0.043 C 
ATOM    140  H71 LYS d   1      49.407  25.166  29.044  0.00  0.00     0.035 H 
ATOM    141  H72 LYS d   1      47.679  25.521  28.705  0.00  0.00     0.035 H 
BRANCH 139 142
ATOM    142  CE  LYS d   1      48.438  23.751  27.743  0.00  0.00     0.080 C 
ATOM    143  H73 LYS d   1      47.406  23.488  27.468  0.00  0.00     0.075 H 
ATOM    144  H74 LYS d   1      48.980  22.842  28.044  0.00  0.00     0.075 H 
BRANCH 142 145
ATOM    145  NZ  LYS d   1      49.122  24.358  26.556  0.00  0.00    -0.079 N 
ATOM    146  H75 LYS d   1      49.128  23.695  25.797  0.00  0.00     0.274 HD
ATOM    147  H76 LYS d   1      50.070  24.597  26.801  0.00  0.00     0.274 HD
ATOM    148  H77 LYS d   1      48.628  25.190  26.272  0.00  0.00     0.274 HD
ENDBRANCH 142 145
ENDBRANCH 139 142
ENDBRANCH 136 139
ENDBRANCH 133 136
ENDBRANCH 131 133
BRANCH 131 149
ATOM    149  C   LYS d   1      47.627  26.687  32.778  0.00  0.00     0.241 C 
ATOM    150  O   LYS d   1      46.677  26.140  33.351  0.00  0.00    -0.271 OA
ATOM    151  N   LEU d   1      48.346  27.601  33.418  0.00  0.00    -0.346 N 
ATOM    152  H78 LEU d   1      49.155  27.988  32.977  0.00  0.00     0.163 HD
BRANCH 151 153
ATOM    153  CA  LEU d   1      47.971  28.052  34.764  0.00  0.00     0.089 C 
ATOM    154  H79 LEU d   1      47.206  27.375  35.171  0.00  0.00     0.087 H 
BRANCH 153 155
ATOM    155  CB  LEU d   1      49.114  28.090  35.733  0.00  0.00    -0.035 C 
ATOM    156  H80 LEU d   1      48.701  28.449  36.687  0.00  0.00     0.037 H 
ATOM    157  H81 LEU d   1      49.829  28.829  35.342  0.00  0.00     0.037 H 
BRANCH 155 158
ATOM    158  CG  LEU d   1      49.917  26.844  36.054  0.00  0.00    -0.059 C 
ATOM    159  H82 LEU d   1      50.661  26.717  35.254  0.00  0.00     0.038 H 
BRANCH 158 160
ATOM    160  CD1 LEU d   1      50.675  27.027  37.364  0.00  0.00    -0.073 C 
ATOM    161  H83 LEU d   1      51.252  26.117  37.584  0.00  0.00     0.028 H 
ATOM    162  H84 LEU d   1      49.960  27.213  38.179  0.00  0.00     0.028 H 
ATOM    163  H85 LEU d   1      51.360  27.883  37.275  0.00  0.00     0.028 H 
ENDBRANCH 158 160
BRANCH 158 164
ATOM    164  CD2 LEU d   1      49.064  25.594  36.072  0.00  0.00    -0.073 C 
ATOM    165  H86 LEU d   1      48.535  25.497  35.113  0.00  0.00     0.028 H 
ATOM    166  H87 LEU d   1      48.331  25.662  36.890  0.00  0.00     0.028 H 
ATOM    167  H88 LEU d   1      49.706  24.714  36.227  0.00  0.00     0.028 H 
ENDBRANCH 158 164
ENDBRANCH 155 158
ENDBRANCH 153 155
BRANCH 153 168
ATOM    168  C   LEU d   1      47.369  29.448  34.558  0.00  0.00     0.241 C 
ATOM    169  O   LEU d   1      46.764  29.991  35.452  0.00  0.00    -0.271 OA
ATOM    170  N   SER d   1      47.557  29.925  33.328  0.00  0.00    -0.343 N 
ATOM    171  H89 SER d   1      48.086  29.353  32.701  0.00  0.00     0.163 HD
BRANCH 170 172
ATOM    172  CA  SER d   1      47.076  31.182  32.807  0.00  0.00     0.113 C 
ATOM    173  H90 SER d   1      46.612  31.733  33.638  0.00  0.00     0.092 H 
BRANCH 172 174
ATOM    174  CB  SER d   1      48.276  32.000  32.280  0.00  0.00     0.045 C 
ATOM    175  H91 SER d   1      48.028  32.428  31.297  0.00  0.00     0.077 H 
ATOM    176  H92 SER d   1      49.155  31.346  32.184  0.00  0.00     0.077 H 
BRANCH 174 177
ATOM    177  OG  SER d   1      48.558  33.045  33.196  0.00  0.00    -0.398 OA
ATOM    178  H93 SER d   1      49.295  33.553  32.878  0.00  0.00     0.209 HD
ENDBRANCH 174 177
ENDBRANCH 172 174
BRANCH 172 179
ATOM    179  C   SER d   1      46.027  31.042  31.703  0.00  0.00     0.165 C 
ATOM    180  O   SER d   1      45.186  30.093  31.780  0.00  0.00    -0.648 OA
BRANCH 179 181
ATOM    181  O1  SER d   1      45.996  31.896  30.684  0.00  0.00    -0.775 OA
ATOM    182  H94 SER d   1      45.156  32.339  30.669  0.00  0.00     0.167 HD
ENDBRANCH 179 181
ENDBRANCH 172 179
ENDBRANCH 170 172
ENDBRANCH 153 168
ENDBRANCH 151 153
ENDBRANCH 131 149
ENDBRANCH 129 131
ENDBRANCH 120 127
ENDBRANCH 118 120
ENDBRANCH 101 116
ENDBRANCH  99 101
ENDBRANCH   1  97
TORSDOF 58
