REMARK  9 active torsions:
REMARK  status: ('A' for Active; 'I' for Inactive)
REMARK    1  A    between atoms: C1_1  and  O1_7 
REMARK    2  A    between atoms: C2_2  and  O2_8 
REMARK    3  A    between atoms: C3_3  and  O3_9 
REMARK    4  A    between atoms: C4_4  and  O4_10 
REMARK    5  A    between atoms: C5_5  and  O5_11 
REMARK    6  A    between atoms: C6_6  and  O6_12 
REMARK    7  A    between atoms: O1_7  and  P1_13 
REMARK    8  A    between atoms: O4_10  and  P4_17 
REMARK    9  A    between atoms: O5_11  and  P5_21 
ROOT
ATOM      1  C1  I3P d   1       2.972  57.170  28.819  0.00  0.00     0.106 C 
ATOM      2  C2  I3P d   1       2.402  58.343  28.135  0.00  0.00     0.090 C 
ATOM      3  C3  I3P d   1       1.403  57.936  27.036  0.00  0.00     0.091 C 
ATOM      4  C4  I3P d   1       0.339  57.030  27.607  0.00  0.00     0.106 C 
ATOM      5  C5  I3P d   1       1.010  55.801  28.200  0.00  0.00     0.106 C 
ATOM      6  C6  I3P d   1       1.966  56.227  29.313  0.00  0.00     0.091 C 
ATOM      7  H1  I3P d   1       3.553  56.629  28.057  0.00  0.00     0.092 H 
ATOM      8  H2  I3P d   1       3.230  58.883  27.654  0.00  0.00     0.091 H 
ATOM      9  H3  I3P d   1       1.940  57.410  26.233  0.00  0.00     0.091 H 
ATOM     10  H4  I3P d   1      -0.220  57.551  28.399  0.00  0.00     0.092 H 
ATOM     11  H5  I3P d   1       1.560  55.257  27.417  0.00  0.00     0.092 H 
ATOM     12  H6  I3P d   1       1.378  56.738  30.089  0.00  0.00     0.091 H 
ENDROOT
BRANCH   1  13
ATOM     13  O1  I3P d   1       3.925  57.540  29.889  0.00  0.00    -0.272 OA
BRANCH  13  14
ATOM     14  P1  I3P d   1       5.333  57.881  29.854  0.00  0.00     0.422 P 
ATOM     15  O11 I3P d   1       5.403  59.260  29.660  0.00  0.00    -0.617 OA
ATOM     16  O12 I3P d   1       5.847  57.172  28.709  0.00  0.00    -0.617 OA
ATOM     17  O13 I3P d   1       6.019  57.235  30.879  0.00  0.00    -0.617 OA
ENDBRANCH  13  14
ENDBRANCH   1  13
BRANCH   2  18
ATOM     18  O2  I3P d   1       1.780  59.229  29.064  0.00  0.00    -0.390 OA
ATOM     19  H7  I3P d   1       1.485  60.008  28.608  0.00  0.00     0.210 HD
ENDBRANCH   2  18
BRANCH   6  20
ATOM     20  O6  I3P d   1       2.584  55.074  29.910  0.00  0.00    -0.390 OA
ATOM     21  H9  I3P d   1       1.913  54.510  30.276  0.00  0.00     0.210 HD
ENDBRANCH   6  20
BRANCH   3  22
ATOM     22  O3  I3P d   1       0.780  59.090  26.511  0.00  0.00    -0.390 OA
ATOM     23  H8  I3P d   1       1.441  59.668  26.148  0.00  0.00     0.210 HD
ENDBRANCH   3  22
BRANCH   5  24
ATOM     24  O5  I3P d   1      -0.014  54.949  28.781  0.00  0.00    -0.272 OA
BRANCH  24  25
ATOM     25  P5  I3P d   1      -0.360  53.656  28.480  0.00  0.00     0.422 P 
ATOM     26  O51 I3P d   1      -1.690  53.649  28.310  0.00  0.00    -0.617 OA
ATOM     27  O52 I3P d   1       0.190  53.157  27.285  0.00  0.00    -0.617 OA
ATOM     28  O53 I3P d   1       0.212  52.903  29.438  0.00  0.00    -0.617 OA
ENDBRANCH  24  25
ENDBRANCH   5  24
BRANCH   4  29
ATOM     29  O4  I3P d   1      -0.567  56.702  26.508  0.00  0.00    -0.272 OA
BRANCH  29  30
ATOM     30  P4  I3P d   1      -1.980  57.014  26.290  0.00  0.00     0.422 P 
ATOM     31  O41 I3P d   1      -2.762  56.883  27.426  0.00  0.00    -0.617 OA
ATOM     32  O42 I3P d   1      -1.849  58.397  26.096  0.00  0.00    -0.617 OA
ATOM     33  O43 I3P d   1      -2.368  56.622  25.032  0.00  0.00    -0.617 OA
ENDBRANCH  29  30
ENDBRANCH   4  29
TORSDOF 9
