REMARK  10 active torsions:
REMARK  status: ('A' for Active; 'I' for Inactive)
REMARK    1  A    between atoms: C1_1  and  O1_2 
REMARK    2  A    between atoms: O1_2  and  P1_13 
REMARK    3  A    between atoms: C2_3  and  O2_4 
REMARK    4  A    between atoms: C3_5  and  O3_6 
REMARK    5  A    between atoms: O3_6  and  P3_17 
REMARK    6  A    between atoms: C4_7  and  O4_8 
REMARK    7  A    between atoms: O4_8  and  P4_21 
REMARK    8  A    between atoms: C5_9  and  O5_10 
REMARK    9  A    between atoms: O5_10  and  P5_25 
REMARK   10  A    between atoms: C6_11  and  O6_12 
ROOT
ATOM      1  C1  4IP d   1      -2.057   4.457  38.908  0.00  0.00     0.106 C 
ATOM      2  C2  4IP d   1      -0.922   5.344  39.322  0.00  0.00     0.091 C 
ATOM      3  C3  4IP d   1       0.286   4.855  38.602  0.00  0.00     0.106 C 
ATOM      4  C4  4IP d   1       0.140   4.986  37.044  0.00  0.00     0.107 C 
ATOM      5  C5  4IP d   1      -1.018   4.123  36.627  0.00  0.00     0.106 C 
ATOM      6  C6  4IP d   1      -2.284   4.546  37.401  0.00  0.00     0.091 C 
ATOM      7  H1  4IP d   1      -1.777   3.426  39.169  0.00  0.00     0.092 H 
ATOM      8  H2  4IP d   1      -0.753   5.237  40.404  0.00  0.00     0.091 H 
ATOM      9  H4  4IP d   1       0.374   3.779  38.810  0.00  0.00     0.092 H 
ATOM     10  H5  4IP d   1      -0.016   6.032  36.741  0.00  0.00     0.092 H 
ATOM     11  H6  4IP d   1      -0.792   3.059  36.794  0.00  0.00     0.092 H 
ATOM     12  H7  4IP d   1      -2.514   5.589  37.139  0.00  0.00     0.091 H 
ENDROOT
BRANCH   1  13
ATOM     13  O1  4IP d   1      -3.375   4.757  39.551  0.00  0.00    -0.272 OA
BRANCH  13  14
ATOM     14  P1  4IP d   1      -3.866   3.965  40.926  0.00  0.00     0.422 P 
ATOM     15  O1P 4IP d   1      -5.075   4.584  41.329  0.00  0.00    -0.617 OA
ATOM     16  O2P 4IP d   1      -2.750   4.101  41.892  0.00  0.00    -0.617 OA
ATOM     17  O3P 4IP d   1      -3.951   2.615  40.458  0.00  0.00    -0.617 OA
ENDBRANCH  13  14
ENDBRANCH   1  13
BRANCH   2  18
ATOM     18  O2  4IP d   1      -1.240   6.736  39.057  0.00  0.00    -0.390 OA
ATOM     19  H3  4IP d   1      -0.511   7.283  39.325  0.00  0.00     0.210 HD
ENDBRANCH   2  18
BRANCH   6  20
ATOM     20  O6  4IP d   1      -3.405   3.732  37.059  0.00  0.00    -0.390 OA
ATOM     21  H8  4IP d   1      -3.581   3.812  36.129  0.00  0.00     0.210 HD
ENDBRANCH   6  20
BRANCH   3  22
ATOM     22  O3  4IP d   1       1.416   5.454  39.134  0.00  0.00    -0.272 OA
BRANCH  22  23
ATOM     23  P3  4IP d   1       2.596   4.697  39.791  0.00  0.00     0.422 P 
ATOM     24  O4P 4IP d   1       3.536   5.730  40.119  0.00  0.00    -0.617 OA
ATOM     25  O5P 4IP d   1       1.772   4.139  40.838  0.00  0.00    -0.617 OA
ATOM     26  O6P 4IP d   1       3.077   3.715  38.817  0.00  0.00    -0.617 OA
ENDBRANCH  22  23
ENDBRANCH   3  22
BRANCH   5  27
ATOM     27  O5  4IP d   1      -1.286   4.402  35.194  0.00  0.00    -0.272 OA
BRANCH  27  28
ATOM     28  P5  4IP d   1      -0.762   3.551  33.958  0.00  0.00     0.422 P 
ATOM     29  O26 4IP d   1       0.291   4.343  33.403  0.00  0.00    -0.617 OA
ATOM     30  O27 4IP d   1      -0.239   2.412  34.606  0.00  0.00    -0.617 OA
ATOM     31  O28 4IP d   1      -2.018   3.507  33.230  0.00  0.00    -0.617 OA
ENDBRANCH  27  28
ENDBRANCH   5  27
BRANCH   4  32
ATOM     32  O4  4IP d   1       1.348   4.449  36.464  0.00  0.00    -0.272 OA
BRANCH  32  33
ATOM     33  P4  4IP d   1       2.470   5.261  35.756  0.00  0.00     0.422 P 
ATOM     34  O7P 4IP d   1       2.054   6.681  35.926  0.00  0.00    -0.617 OA
ATOM     35  O8P 4IP d   1       3.707   4.905  36.437  0.00  0.00    -0.617 OA
ATOM     36  O9P 4IP d   1       2.441   4.804  34.395  0.00  0.00    -0.617 OA
ENDBRANCH  32  33
ENDBRANCH   4  32
TORSDOF 10
