REMARK WARNING: 32 MAX_TORS EXCEEDED!!!
REMARK  72 active torsions:
REMARK  status: ('A' for Active; 'I' for Inactive)
REMARK    1  A    between atoms: N_1  and  CA_2 
REMARK    2  A    between atoms: CA_2  and  C_3 
REMARK       I    between atoms: C_3  and  N_5 
REMARK    3  A    between atoms: N_5  and  CA_6 
REMARK    4  A    between atoms: CA_6  and  C_7 
REMARK    5  A    between atoms: CA_6  and  CB_9 
REMARK       I    between atoms: C_7  and  N_14 
REMARK    6  A    between atoms: CB_9  and  CG_10 
REMARK    7  A    between atoms: CG_10  and  CD_11 
REMARK       I    between atoms: CD_11  and  NE2_13 
REMARK    8  A    between atoms: N_14  and  CA_15 
REMARK    9  A    between atoms: CA_15  and  C_16 
REMARK   10  A    between atoms: CA_15  and  CB_18 
REMARK       I    between atoms: C_16  and  N_21 
REMARK   11  A    between atoms: CB_18  and  CG1_19 
REMARK   12  A    between atoms: CB_18  and  CG2_20 
REMARK   13  A    between atoms: N_21  and  CA_22 
REMARK   14  A    between atoms: CA_22  and  C_23 
REMARK       I    between atoms: C_23  and  N_25 
REMARK   15  A    between atoms: N_25  and  CA_26 
REMARK   16  A    between atoms: CA_26  and  C_27 
REMARK   17  A    between atoms: CA_26  and  CB_29 
REMARK       I    between atoms: C_27  and  N_36 
REMARK   18  A    between atoms: CB_29  and  CG_30 
REMARK   19  A    between atoms: CG_30  and  CD_31 
REMARK   20  A    between atoms: CD_31  and  NE_32 
REMARK       I    between atoms: NE_32  and  CZ_33 
REMARK       I    between atoms: CZ_33  and  NH1_34 
REMARK       I    between atoms: CZ_33  and  NH2_35 
REMARK   21  A    between atoms: N_36  and  CA_37 
REMARK   22  A    between atoms: CA_37  and  C_38 
REMARK   23  A    between atoms: CA_37  and  CB_40 
REMARK       I    between atoms: C_38  and  N_45 
REMARK   24  A    between atoms: CB_40  and  CG_41 
REMARK   25  A    between atoms: CG_41  and  CD_42 
REMARK       I    between atoms: CD_42  and  NE2_44 
REMARK   26  A    between atoms: N_45  and  CA_46 
REMARK   27  A    between atoms: CA_46  and  C_47 
REMARK   28  A    between atoms: CA_46  and  CB_49 
REMARK       I    between atoms: C_47  and  N_53 
REMARK   29  A    between atoms: CB_49  and  CG_50 
REMARK   30  A    between atoms: CG_50  and  CD1_51 
REMARK   31  A    between atoms: CG_50  and  CD2_52 
REMARK   32  A    between atoms: N_53  and  CA_54 
REMARK   33  A    between atoms: CA_54  and  C_55 
REMARK   34  A    between atoms: CA_54  and  CB_57 
REMARK       I    between atoms: C_55  and  N_58 
REMARK   35  A    between atoms: N_58  and  CA_59 
REMARK   36  A    between atoms: CA_59  and  C_60 
REMARK   37  A    between atoms: CA_59  and  CB_62 
REMARK       I    between atoms: C_60  and  N_66 
REMARK   38  A    between atoms: CB_62  and  CG1_63 
REMARK   39  A    between atoms: CB_62  and  CG2_64 
REMARK   40  A    between atoms: CG1_63  and  CD1_65 
REMARK   41  A    between atoms: N_66  and  CA_67 
REMARK   42  A    between atoms: CA_67  and  C_68 
REMARK   43  A    between atoms: CA_67  and  CB_70 
REMARK       I    between atoms: C_68  and  N_74 
REMARK   44  A    between atoms: CB_70  and  CG1_71 
REMARK   45  A    between atoms: CB_70  and  CG2_72 
REMARK   46  A    between atoms: CG1_71  and  CD1_73 
REMARK   47  A    between atoms: N_74  and  CA_75 
REMARK   48  A    between atoms: CA_75  and  C_76 
REMARK       I    between atoms: C_76  and  N_78 
REMARK   49  A    between atoms: N_78  and  CA_79 
REMARK   50  A    between atoms: CA_79  and  C_80 
REMARK   51  A    between atoms: CA_79  and  CB_82 
REMARK       I    between atoms: C_80  and  N_86 
REMARK   52  A    between atoms: CB_82  and  CG_83 
REMARK   53  A    between atoms: N_86  and  CA_87 
REMARK   54  A    between atoms: CA_87  and  C_88 
REMARK   55  A    between atoms: CA_87  and  CB_90 
REMARK       I    between atoms: C_88  and  N_94 
REMARK   56  A    between atoms: CB_90  and  CG_91 
REMARK   57  A    between atoms: N_94  and  CA_95 
REMARK   58  A    between atoms: CA_95  and  C_96 
REMARK   59  A    between atoms: CA_95  and  CB_98 
REMARK       I    between atoms: C_96  and  N_102 
REMARK   60  A    between atoms: CB_98  and  CG1_99 
REMARK   61  A    between atoms: CB_98  and  CG2_100 
REMARK   62  A    between atoms: CG1_99  and  CD1_101 
REMARK   63  A    between atoms: N_102  and  CA_103 
REMARK   64  A    between atoms: CA_103  and  C_104 
REMARK   65  A    between atoms: CA_103  and  CB_106 
REMARK       I    between atoms: C_104  and  N_110 
REMARK   66  A    between atoms: CB_106  and  CG_107 
REMARK       I    between atoms: CG_107  and  ND2_109 
REMARK   67  A    between atoms: N_110  and  CA_111 
REMARK   68  A    between atoms: CA_111  and  C_112 
REMARK   69  A    between atoms: CA_111  and  CB_114 
REMARK   70  A    between atoms: CB_114  and  CG_115 
REMARK   71  A    between atoms: CG_115  and  CD_116 
REMARK   72  A    between atoms: CD_116  and  NE_117 
REMARK       I    between atoms: NE_117  and  CZ_118 
REMARK       I    between atoms: CZ_118  and  NH1_119 
ROOT
ATOM      1  CA  ILE d   1       6.561 -15.114   0.387  0.00  0.00     0.092 C 
ATOM      2  H64 ILE d   1       7.245 -15.553   1.128  0.00  0.00     0.088 H 
ENDROOT
BRANCH   1   3
ATOM      3  N   ILE d   1       5.453 -14.406   1.089  0.00  0.00    -0.346 N 
ATOM      4  C   ALA d   1       5.713 -13.372   1.842  0.00  0.00     0.240 C 
ATOM      5  O   ALA d   1       6.849 -12.966   1.987  0.00  0.00    -0.271 OA
ATOM      6  H63 ILE d   1       4.511 -14.723   0.983  0.00  0.00     0.163 HD
BRANCH   4   7
ATOM      7  CA  ALA d   1       4.531 -12.689   2.533  0.00  0.00     0.086 C 
ATOM      8  H59 ALA d   1       4.772 -11.631   2.715  0.00  0.00     0.086 H 
BRANCH   7   9
ATOM      9  N   ALA d   1       3.329 -12.784   1.659  0.00  0.00    -0.346 N 
ATOM     10  C   LEU d   1       3.131 -11.895   0.722  0.00  0.00     0.241 C 
ATOM     11  O   LEU d   1       3.913 -10.982   0.547  0.00  0.00    -0.271 OA
ATOM     12  H58 ALA d   1       2.674 -13.528   1.789  0.00  0.00     0.163 HD
BRANCH  10  13
ATOM     13  CA  LEU d   1       1.879 -12.044  -0.146  0.00  0.00     0.089 C 
ATOM     14  H48 LEU d   1       2.096 -11.696  -1.167  0.00  0.00     0.087 H 
BRANCH  13  15
ATOM     15  N   LEU d   1       1.472 -13.477  -0.185  0.00  0.00    -0.346 N 
ATOM     16  C   GLN d   1       2.326 -14.390  -0.563  0.00  0.00     0.241 C 
ATOM     17  O   GLN d   1       3.460 -14.098  -0.890  0.00  0.00    -0.271 OA
ATOM     18  H47 LEU d   1       0.544 -13.740   0.079  0.00  0.00     0.163 HD
BRANCH  16  19
ATOM     19  CA  GLN d   1       1.842 -15.841  -0.576  0.00  0.00     0.090 C 
ATOM     20  H40 GLN d   1       2.695 -16.516  -0.411  0.00  0.00     0.087 H 
BRANCH  19  21
ATOM     21  N   GLN d   1       0.837 -16.030   0.507  0.00  0.00    -0.346 N 
ATOM     22  C   ARG d   1       1.213 -16.431   1.691  0.00  0.00     0.241 C 
ATOM     23  O   ARG d   1       2.380 -16.659   1.941  0.00  0.00    -0.271 OA
ATOM     24  H39 GLN d   1      -0.130 -15.849   0.326  0.00  0.00     0.163 HD
BRANCH  22  25
ATOM     25  CA  ARG d   1       0.123 -16.597   2.751  0.00  0.00     0.089 C 
ATOM     26  H27 ARG d   1       0.557 -16.463   3.753  0.00  0.00     0.087 H 
BRANCH  25  27
ATOM     27  N   ARG d   1      -0.934 -15.575   2.521  0.00  0.00    -0.346 N 
ATOM     28  C   GLY d   1      -0.675 -14.310   2.713  0.00  0.00     0.236 C 
ATOM     29  O   GLY d   1       0.422 -13.938   3.080  0.00  0.00    -0.272 OA
ATOM     30  H26 ARG d   1      -1.844 -15.858   2.219  0.00  0.00     0.163 HD
BRANCH  28  31
ATOM     31  CA  GLY d   1      -1.806 -13.315   2.451  0.00  0.00     0.069 C 
ATOM     32  H24 GLY d   1      -2.609 -13.466   3.188  0.00  0.00     0.078 H 
ATOM     33  H25 GLY d   1      -1.421 -12.288   2.533  0.00  0.00     0.078 H 
BRANCH  31  34
ATOM     34  N   GLY d   1      -2.334 -13.542   1.085  0.00  0.00    -0.351 N 
ATOM     35  C   VAL d   1      -3.327 -14.363   0.900  0.00  0.00     0.241 C 
ATOM     36  O   VAL d   1      -3.840 -14.957   1.828  0.00  0.00    -0.271 OA
ATOM     37  H23 GLY d   1      -1.928 -13.065   0.306  0.00  0.00     0.163 HD
BRANCH  35  38
ATOM     38  CA  VAL d   1      -3.814 -14.553  -0.532  0.00  0.00     0.092 C 
ATOM     39  H15 VAL d   1      -2.947 -14.600  -1.207  0.00  0.00     0.088 H 
BRANCH  38  40
ATOM     40  N   VAL d   1      -4.581 -15.831  -0.634  0.00  0.00    -0.346 N 
ATOM     41  C   GLN d   1      -4.036 -16.949  -0.234  0.00  0.00     0.241 C 
ATOM     42  O   GLN d   1      -2.910 -16.975   0.222  0.00  0.00    -0.271 OA
ATOM     43  H14 VAL d   1      -5.509 -15.831  -1.007  0.00  0.00     0.163 HD
BRANCH  41  44
ATOM     44  CA  GLN d   1      -4.864 -18.229  -0.362  0.00  0.00     0.090 C 
ATOM     45  H7  GLN d   1      -4.467 -18.992   0.323  0.00  0.00     0.087 H 
BRANCH  44  46
ATOM     46  N   GLN d   1      -6.285 -17.940  -0.015  0.00  0.00    -0.346 N 
ATOM     47  C   GLY d   1      -6.739 -18.228   1.175  0.00  0.00     0.243 C 
ATOM     48  O   GLY d   1      -6.024 -18.733   2.017  0.00  0.00    -0.272 OA
ATOM     49  H6  GLN d   1      -6.891 -17.525  -0.694  0.00  0.00     0.163 HD
BRANCH  47  50
ATOM     50  CA  GLY d   1      -8.206 -17.906   1.468  0.00  0.00     0.152 C 
ATOM     51  H4  GLY d   1      -8.265 -17.189   2.300  0.00  0.00     0.090 H 
ATOM     52  H5  GLY d   1      -8.671 -17.468   0.573  0.00  0.00     0.090 H 
BRANCH  50  53
ATOM     53  N   GLY d   1      -8.925 -19.158   1.840  0.00  0.00    -0.071 N 
ATOM     54  H1  GLY d   1      -9.891 -18.946   2.033  0.00  0.00     0.274 HD
ATOM     55  H2  GLY d   1      -8.499 -19.559   2.661  0.00  0.00     0.274 HD
ATOM     56  H3  GLY d   1      -8.871 -19.816   1.078  0.00  0.00     0.274 HD
ENDBRANCH  50  53
ENDBRANCH  47  50
ENDBRANCH  44  46
BRANCH  44  57
ATOM     57  CB  GLN d   1      -4.786 -18.745  -1.801  0.00  0.00    -0.030 C 
ATOM     58  H8  GLN d   1      -4.044 -18.157  -2.361  0.00  0.00     0.037 H 
ATOM     59  H9  GLN d   1      -5.771 -18.644  -2.280  0.00  0.00     0.037 H 
BRANCH  57  60
ATOM     60  CG  GLN d   1      -4.371 -20.218  -1.797  0.00  0.00     0.011 C 
ATOM     61  H10 GLN d   1      -3.827 -20.443  -0.868  0.00  0.00     0.047 H 
ATOM     62  H11 GLN d   1      -3.720 -20.418  -2.661  0.00  0.00     0.047 H 
BRANCH  60  63
ATOM     63  CD  GLN d   1      -5.617 -21.101  -1.884  0.00  0.00     0.215 C 
ATOM     64  OE1 GLN d   1      -6.712 -20.657  -1.602  0.00  0.00    -0.274 OA
ATOM     65  NE2 GLN d   1      -5.497 -22.343  -2.267  0.00  0.00    -0.370 N 
ATOM     66  H12 GLN d   1      -6.306 -22.928  -2.327  0.00  0.00     0.159 HD
ATOM     67  H13 GLN d   1      -4.596 -22.709  -2.500  0.00  0.00     0.159 HD
ENDBRANCH  60  63
ENDBRANCH  57  60
ENDBRANCH  44  57
ENDBRANCH  41  44
ENDBRANCH  38  40
BRANCH  38  68
ATOM     68  CB  VAL d   1      -4.696 -13.365  -0.930  0.00  0.00    -0.033 C 
ATOM     69  H16 VAL d   1      -4.250 -12.436  -0.545  0.00  0.00     0.042 H 
BRANCH  68  70
ATOM     70  CG1 VAL d   1      -4.793 -13.286  -2.455  0.00  0.00    -0.071 C 
ATOM     71  H17 VAL d   1      -5.426 -12.433  -2.738  0.00  0.00     0.028 H 
ATOM     72  H18 VAL d   1      -5.235 -14.216  -2.843  0.00  0.00     0.028 H 
ATOM     73  H19 VAL d   1      -3.787 -13.153  -2.880  0.00  0.00     0.028 H 
ENDBRANCH  68  70
BRANCH  68  74
ATOM     74  CG2 VAL d   1      -6.098 -13.536  -0.338  0.00  0.00    -0.071 C 
ATOM     75  H20 VAL d   1      -6.029 -13.593   0.758  0.00  0.00     0.028 H 
ATOM     76  H21 VAL d   1      -6.549 -14.461  -0.725  0.00  0.00     0.028 H 
ATOM     77  H22 VAL d   1      -6.723 -12.677  -0.622  0.00  0.00     0.028 H 
ENDBRANCH  68  74
ENDBRANCH  38  68
ENDBRANCH  35  38
ENDBRANCH  31  34
ENDBRANCH  28  31
ENDBRANCH  25  27
BRANCH  25  78
ATOM     78  CB  ARG d   1      -0.492 -17.995   2.642  0.00  0.00    -0.036 C 
ATOM     79  H28 ARG d   1       0.212 -18.666   2.128  0.00  0.00     0.036 H 
ATOM     80  H29 ARG d   1      -1.429 -17.939   2.069  0.00  0.00     0.036 H 
BRANCH  78  81
ATOM     81  CG  ARG d   1      -0.784 -18.540   4.042  0.00  0.00    -0.048 C 
ATOM     82  H30 ARG d   1      -1.287 -19.515   3.958  0.00  0.00     0.035 H 
ATOM     83  H31 ARG d   1      -1.436 -17.836   4.580  0.00  0.00     0.035 H 
BRANCH  81  84
ATOM     84  CD  ARG d   1       0.527 -18.709   4.812  0.00  0.00     0.009 C 
ATOM     85  H32 ARG d   1       0.647 -17.875   5.519  0.00  0.00     0.064 H 
ATOM     86  H33 ARG d   1       1.369 -18.713   4.105  0.00  0.00     0.064 H 
BRANCH  84  87
ATOM     87  NE  ARG d   1       0.502 -19.996   5.562  0.00  0.00    -0.227 N 
ATOM     88  CZ  ARG d   1       1.620 -20.607   5.846  0.00  0.00     0.665 C 
ATOM     89  NH1 ARG d   1       2.473 -20.878   4.896  0.00  0.00    -0.235 N 
ATOM     90  NH2 ARG d   1       1.885 -20.945   7.078  0.00  0.00    -0.235 N 
ATOM     91  H35 ARG d   1       3.356 -21.360   5.119  0.00  0.00     0.174 HD
ATOM     92  H36 ARG d   1       2.264 -20.610   3.924  0.00  0.00     0.174 HD
ATOM     93  H37 ARG d   1       1.211 -20.731   7.827  0.00  0.00     0.174 HD
ATOM     94  H38 ARG d   1       2.768 -21.426   7.301  0.00  0.00     0.174 HD
ATOM     95  H34 ARG d   1      -0.397 -20.404   5.856  0.00  0.00     0.177 HD
ENDBRANCH  84  87
ENDBRANCH  81  84
ENDBRANCH  78  81
ENDBRANCH  25  78
ENDBRANCH  22  25
ENDBRANCH  19  21
BRANCH  19  96
ATOM     96  CB  GLN d   1       1.195 -16.154  -1.928  0.00  0.00    -0.030 C 
ATOM     97  H41 GLN d   1       1.717 -15.599  -2.721  0.00  0.00     0.037 H 
ATOM     98  H42 GLN d   1       0.137 -15.855  -1.906  0.00  0.00     0.037 H 
BRANCH  96  99
ATOM     99  CG  GLN d   1       1.295 -17.656  -2.206  0.00  0.00     0.011 C 
ATOM    100  H43 GLN d   1       1.969 -18.121  -1.471  0.00  0.00     0.047 H 
ATOM    101  H44 GLN d   1       1.691 -17.816  -3.220  0.00  0.00     0.047 H 
BRANCH  99 102
ATOM    102  CD  GLN d   1      -0.094 -18.288  -2.096  0.00  0.00     0.215 C 
ATOM    103  OE1 GLN d   1      -1.077 -17.696  -2.493  0.00  0.00    -0.274 OA
ATOM    104  NE2 GLN d   1      -0.217 -19.476  -1.570  0.00  0.00    -0.370 N 
ATOM    105  H45 GLN d   1      -1.120 -19.898  -1.494  0.00  0.00     0.159 HD
ATOM    106  H46 GLN d   1       0.592 -19.964  -1.243  0.00  0.00     0.159 HD
ENDBRANCH  99 102
ENDBRANCH  96  99
ENDBRANCH  19  96
ENDBRANCH  16  19
ENDBRANCH  13  15
BRANCH  13 107
ATOM    107  CB  LEU d   1       0.744 -11.206   0.449  0.00  0.00    -0.035 C 
ATOM    108  H49 LEU d   1       1.157 -10.508   1.192  0.00  0.00     0.037 H 
ATOM    109  H50 LEU d   1       0.015 -11.871   0.935  0.00  0.00     0.037 H 
BRANCH 107 110
ATOM    110  CG  LEU d   1       0.047 -10.413  -0.660  0.00  0.00    -0.059 C 
ATOM    111  H51 LEU d   1       0.696 -10.374  -1.547  0.00  0.00     0.038 H 
BRANCH 110 112
ATOM    112  CD1 LEU d   1      -1.274 -11.092  -1.024  0.00  0.00    -0.073 C 
ATOM    113  H52 LEU d   1      -1.773 -10.521  -1.821  0.00  0.00     0.028 H 
ATOM    114  H53 LEU d   1      -1.924 -11.129  -0.137  0.00  0.00     0.028 H 
ATOM    115  H54 LEU d   1      -1.076 -12.115  -1.376  0.00  0.00     0.028 H 
ENDBRANCH 110 112
BRANCH 110 116
ATOM    116  CD2 LEU d   1      -0.233  -8.991  -0.168  0.00  0.00    -0.073 C 
ATOM    117  H55 LEU d   1       0.716  -8.500   0.095  0.00  0.00     0.028 H 
ATOM    118  H56 LEU d   1      -0.883  -9.031   0.719  0.00  0.00     0.028 H 
ATOM    119  H57 LEU d   1      -0.733  -8.420  -0.964  0.00  0.00     0.028 H 
ENDBRANCH 110 116
ENDBRANCH 107 110
ENDBRANCH  13 107
ENDBRANCH  10  13
ENDBRANCH   7   9
BRANCH   7 120
ATOM    120  CB  ALA d   1       4.248 -13.385   3.866  0.00  0.00    -0.049 C 
ATOM    121  H60 ALA d   1       5.136 -13.315   4.512  0.00  0.00     0.030 H 
ATOM    122  H61 ALA d   1       4.010 -14.443   3.684  0.00  0.00     0.030 H 
ATOM    123  H62 ALA d   1       3.395 -12.897   4.361  0.00  0.00     0.030 H 
ENDBRANCH   7 120
ENDBRANCH   4   7
ENDBRANCH   1   3
BRANCH   1 124
ATOM    124  C   ILE d   1       7.324 -14.117  -0.487  0.00  0.00     0.241 C 
ATOM    125  O   ILE d   1       8.528 -13.993  -0.395  0.00  0.00    -0.271 OA
ATOM    126  N   ILE d   1       6.633 -13.405  -1.333  0.00  0.00    -0.346 N 
ATOM    127  H74 ILE d   1       5.642 -13.522  -1.394  0.00  0.00     0.163 HD
BRANCH 126 128
ATOM    128  CA  ILE d   1       7.324 -12.416  -2.209  0.00  0.00     0.092 C 
ATOM    129  H75 ILE d   1       7.998 -12.946  -2.899  0.00  0.00     0.088 H 
BRANCH 128 130
ATOM    130  C   ILE d   1       8.133 -11.446  -1.346  0.00  0.00     0.241 C 
ATOM    131  O   ILE d   1       9.141 -10.923  -1.770  0.00  0.00    -0.271 OA
ATOM    132  N   GLY d   1       7.695 -11.199  -0.140  0.00  0.00    -0.351 N 
ATOM    133  H85 GLY d   1       6.860 -11.643   0.186  0.00  0.00     0.163 HD
BRANCH 132 134
ATOM    134  CA  GLY d   1       8.433 -10.258   0.754  0.00  0.00     0.069 C 
ATOM    135  H86 GLY d   1       7.987 -10.287   1.759  0.00  0.00     0.078 H 
ATOM    136  H87 GLY d   1       8.358  -9.238   0.349  0.00  0.00     0.078 H 
BRANCH 134 137
ATOM    137  C   GLY d   1       9.908 -10.659   0.843  0.00  0.00     0.236 C 
ATOM    138  O   GLY d   1      10.790  -9.827   0.769  0.00  0.00    -0.272 OA
ATOM    139  N   ASP d   1      10.185 -11.923   1.005  0.00  0.00    -0.346 N 
ATOM    140  H88 ASP d   1       9.445 -12.593   1.065  0.00  0.00     0.163 HD
BRANCH 139 141
ATOM    141  CA  ASP d   1      11.605 -12.369   1.101  0.00  0.00     0.098 C 
ATOM    142  H89 ASP d   1      12.064 -11.935   2.001  0.00  0.00     0.088 H 
BRANCH 141 143
ATOM    143  C   ASP d   1      12.377 -11.905  -0.137  0.00  0.00     0.241 C 
ATOM    144  O   ASP d   1      13.354 -11.190  -0.039  0.00  0.00    -0.271 OA
ATOM    145  N   ASP d   1      11.946 -12.307  -1.301  0.00  0.00    -0.345 N 
ATOM    146  H92 ASP d   1      11.139 -12.894  -1.358  0.00  0.00     0.163 HD
BRANCH 145 147
ATOM    147  CA  ASP d   1      12.654 -11.893  -2.547  0.00  0.00     0.098 C 
ATOM    148  H93 ASP d   1      13.675 -12.303  -2.538  0.00  0.00     0.088 H 
BRANCH 147 149
ATOM    149  C   ASP d   1      12.723 -10.363  -2.632  0.00  0.00     0.241 C 
ATOM    150  O   ASP d   1      13.565  -9.811  -3.313  0.00  0.00    -0.271 OA
ATOM    151  N   ILE d   1      11.847  -9.671  -1.953  0.00  0.00    -0.346 N 
ATOM    152  H96 ILE d   1      11.160 -10.141  -1.399  0.00  0.00     0.163 HD
BRANCH 151 153
ATOM    153  CA  ILE d   1      11.870  -8.183  -2.004  0.00  0.00     0.092 C 
ATOM    154  H97 ILE d   1      12.792  -7.847  -2.500  0.00  0.00     0.088 H 
BRANCH 153 155
ATOM    155  C   ILE d   1      11.822  -7.621  -0.582  0.00  0.00     0.241 C 
ATOM    156  O   ILE d   1      10.983  -6.806  -0.254  0.00  0.00    -0.271 OA
ATOM    157  N   ASN d   1      12.716  -8.049   0.267  0.00  0.00    -0.346 N 
ATOM    158 7H10 ASN d   1      13.399  -8.720  -0.022  0.00  0.00     0.163 HD
BRANCH 157 159
ATOM    159  CA  ASN d   1      12.719  -7.538   1.667  0.00  0.00     0.097 C 
ATOM    160 8H10 ASN d   1      11.747  -7.074   1.890  0.00  0.00     0.088 H 
BRANCH 159 161
ATOM    161  C   ASN d   1      13.829  -6.498   1.830  0.00  0.00     0.241 C 
ATOM    162  O   ASN d   1      14.997  -6.828   1.888  0.00  0.00    -0.271 OA
ATOM    163  N   ARG d   1      13.474  -5.244   1.906  0.00  0.00    -0.345 N 
ATOM    164 3H11 ARG d   1      12.507  -4.994   1.856  0.00  0.00     0.163 HD
BRANCH 163 165
ATOM    165  CA  ARG d   1      14.511  -4.186   2.067  0.00  0.00     0.096 C 
ATOM    166 4H11 ARG d   1      14.035  -3.196   2.019  0.00  0.00     0.089 H 
BRANCH 165 167
ATOM    167  C   ARG d   1      15.545  -4.309   0.945  0.00  0.00     0.196 C 
ATOM    168  O   ARG d   1      16.554  -4.958   1.166  0.00  0.00    -0.646 OA
ATOM    169  OXT ARG d   1      15.309  -3.754  -0.115  0.00  0.00    -0.646 OA
ENDBRANCH 165 167
BRANCH 165 170
ATOM    170  CB  ARG d   1      15.203  -4.353   3.421  0.00  0.00    -0.035 C 
ATOM    171 5H11 ARG d   1      15.645  -5.358   3.485  0.00  0.00     0.036 H 
ATOM    172 6H11 ARG d   1      14.466  -4.224   4.228  0.00  0.00     0.036 H 
BRANCH 170 173
ATOM    173  CG  ARG d   1      16.305  -3.302   3.564  0.00  0.00    -0.047 C 
ATOM    174 7H11 ARG d   1      16.098  -2.671   4.441  0.00  0.00     0.035 H 
ATOM    175 8H11 ARG d   1      16.333  -2.676   2.660  0.00  0.00     0.035 H 
BRANCH 173 176
ATOM    176  CD  ARG d   1      17.655  -3.997   3.744  0.00  0.00     0.009 C 
ATOM    177 9H11 ARG d   1      18.117  -4.160   2.760  0.00  0.00     0.064 H 
ATOM    178 0H12 ARG d   1      17.505  -4.965   4.244  0.00  0.00     0.064 H 
BRANCH 176 179
ATOM    179  NE  ARG d   1      18.547  -3.141   4.576  0.00  0.00    -0.227 N 
ATOM    180  CZ  ARG d   1      19.570  -3.668   5.191  0.00  0.00     0.665 C 
ATOM    181  NH1 ARG d   1      20.565  -4.156   4.501  0.00  0.00    -0.235 N 
ATOM    182  NH2 ARG d   1      19.598  -3.708   6.495  0.00  0.00    -0.235 N 
ATOM    183 2H12 ARG d   1      21.373  -4.572   4.986  0.00  0.00     0.174 HD
ATOM    184 3H12 ARG d   1      20.542  -4.125   3.472  0.00  0.00     0.174 HD
ATOM    185 4H12 ARG d   1      18.813  -3.323   7.039  0.00  0.00     0.174 HD
ATOM    186 5H12 ARG d   1      20.405  -4.125   6.980  0.00  0.00     0.174 HD
ATOM    187 1H12 ARG d   1      18.356  -2.133   4.666  0.00  0.00     0.177 HD
ENDBRANCH 176 179
ENDBRANCH 173 176
ENDBRANCH 170 173
ENDBRANCH 165 170
ENDBRANCH 163 165
ENDBRANCH 159 161
BRANCH 159 188
ATOM    188  CB  ASN d   1      12.963  -8.699   2.633  0.00  0.00     0.036 C 
ATOM    189 9H10 ASN d   1      14.034  -8.951   2.640  0.00  0.00     0.051 H 
ATOM    190 0H11 ASN d   1      12.382  -9.575   2.308  0.00  0.00     0.051 H 
BRANCH 188 191
ATOM    191  CG  ASN d   1      12.526  -8.292   4.041  0.00  0.00     0.217 C 
ATOM    192  OD1 ASN d   1      11.646  -7.470   4.202  0.00  0.00    -0.274 OA
ATOM    193  ND2 ASN d   1      13.107  -8.837   5.074  0.00  0.00    -0.370 N 
ATOM    194 1H11 ASN d   1      12.829  -8.578   5.999  0.00  0.00     0.159 HD
ATOM    195 2H11 ASN d   1      13.831  -9.514   4.941  0.00  0.00     0.159 HD
ENDBRANCH 188 191
ENDBRANCH 159 188
ENDBRANCH 157 159
ENDBRANCH 153 155
BRANCH 153 196
ATOM    196  CB  ILE d   1      10.655  -7.685  -2.790  0.00  0.00    -0.030 C 
ATOM    197  H98 ILE d   1      10.641  -6.585  -2.787  0.00  0.00     0.043 H 
BRANCH 196 198
ATOM    198  CG1 ILE d   1       9.376  -8.217  -2.140  0.00  0.00    -0.063 C 
ATOM    199  H99 ILE d   1       9.623  -8.684  -1.175  0.00  0.00     0.033 H 
ATOM    200 0H10 ILE d   1       8.913  -8.964  -2.801  0.00  0.00     0.033 H 
BRANCH 198 201
ATOM    201  CD1 ILE d   1       8.398  -7.064  -1.912  0.00  0.00    -0.076 C 
ATOM    202 4H10 ILE d   1       7.480  -7.449  -1.445  0.00  0.00     0.027 H 
ATOM    203 5H10 ILE d   1       8.150  -6.597  -2.877  0.00  0.00     0.027 H 
ATOM    204 6H10 ILE d   1       8.860  -6.316  -1.250  0.00  0.00     0.027 H 
ENDBRANCH 198 201
ENDBRANCH 196 198
BRANCH 196 205
ATOM    205  CG2 ILE d   1      10.735  -8.192  -4.231  0.00  0.00    -0.071 C 
ATOM    206 1H10 ILE d   1      11.653  -7.812  -4.703  0.00  0.00     0.028 H 
ATOM    207 2H10 ILE d   1       9.859  -7.837  -4.794  0.00  0.00     0.028 H 
ATOM    208 3H10 ILE d   1      10.750  -9.292  -4.232  0.00  0.00     0.028 H 
ENDBRANCH 196 205
ENDBRANCH 153 196
ENDBRANCH 151 153
ENDBRANCH 147 149
BRANCH 147 209
ATOM    209  CB  ASP d   1      11.898 -12.434  -3.762  0.00  0.00     0.043 C 
ATOM    210  H94 ASP d   1      11.242 -11.649  -4.165  0.00  0.00     0.052 H 
ATOM    211  H95 ASP d   1      11.291 -13.300  -3.460  0.00  0.00     0.052 H 
BRANCH 209 212
ATOM    212  CG  ASP d   1      12.899 -12.863  -4.837  0.00  0.00     0.175 C 
ATOM    213  OD1 ASP d   1      14.021 -12.386  -4.798  0.00  0.00    -0.648 OA
ATOM    214  OD2 ASP d   1      12.525 -13.660  -5.682  0.00  0.00    -0.648 OA
ENDBRANCH 209 212
ENDBRANCH 147 209
ENDBRANCH 145 147
ENDBRANCH 141 143
BRANCH 141 215
ATOM    215  CB  ASP d   1      11.654 -13.896   1.190  0.00  0.00     0.043 C 
ATOM    216  H90 ASP d   1      11.628 -14.323   0.177  0.00  0.00     0.052 H 
ATOM    217  H91 ASP d   1      10.787 -14.258   1.762  0.00  0.00     0.052 H 
BRANCH 215 218
ATOM    218  CG  ASP d   1      12.944 -14.327   1.892  0.00  0.00     0.175 C 
ATOM    219  OD1 ASP d   1      13.678 -13.456   2.328  0.00  0.00    -0.648 OA
ATOM    220  OD2 ASP d   1      13.176 -15.522   1.981  0.00  0.00    -0.648 OA
ENDBRANCH 215 218
ENDBRANCH 141 215
ENDBRANCH 139 141
ENDBRANCH 134 137
ENDBRANCH 132 134
ENDBRANCH 128 130
BRANCH 128 221
ATOM    221  CB  ILE d   1       6.289 -11.626  -3.011  0.00  0.00    -0.030 C 
ATOM    222  H76 ILE d   1       6.798 -10.854  -3.607  0.00  0.00     0.043 H 
BRANCH 221 223
ATOM    223  CG1 ILE d   1       5.305 -10.960  -2.050  0.00  0.00    -0.063 C 
ATOM    224  H77 ILE d   1       5.755 -10.042  -1.643  0.00  0.00     0.033 H 
ATOM    225  H78 ILE d   1       5.073 -11.651  -1.226  0.00  0.00     0.033 H 
BRANCH 223 226
ATOM    226  CD1 ILE d   1       4.019 -10.609  -2.797  0.00  0.00    -0.076 C 
ATOM    227  H82 ILE d   1       3.312 -10.130  -2.104  0.00  0.00     0.027 H 
ATOM    228  H83 ILE d   1       3.569 -11.527  -3.204  0.00  0.00     0.027 H 
ATOM    229  H84 ILE d   1       4.250  -9.918  -3.621  0.00  0.00     0.027 H 
ENDBRANCH 223 226
ENDBRANCH 221 223
BRANCH 221 230
ATOM    230  CG2 ILE d   1       5.535 -12.572  -3.943  0.00  0.00    -0.071 C 
ATOM    231  H79 ILE d   1       6.245 -13.050  -4.633  0.00  0.00     0.028 H 
ATOM    232  H80 ILE d   1       4.790 -12.003  -4.519  0.00  0.00     0.028 H 
ATOM    233  H81 ILE d   1       5.026 -13.345  -3.348  0.00  0.00     0.028 H 
ENDBRANCH 221 230
ENDBRANCH 128 221
ENDBRANCH 126 128
ENDBRANCH   1 124
BRANCH   1 234
ATOM    234  CB  ILE d   1       5.981 -16.224  -0.492  0.00  0.00    -0.030 C 
ATOM    235  H65 ILE d   1       4.973 -15.938  -0.828  0.00  0.00     0.043 H 
BRANCH 234 236
ATOM    236  CG1 ILE d   1       5.902 -17.522   0.315  0.00  0.00    -0.063 C 
ATOM    237  H66 ILE d   1       5.790 -17.283   1.383  0.00  0.00     0.033 H 
ATOM    238  H67 ILE d   1       6.823 -18.104   0.164  0.00  0.00     0.033 H 
BRANCH 236 239
ATOM    239  CD1 ILE d   1       4.699 -18.342  -0.153  0.00  0.00    -0.076 C 
ATOM    240  H71 ILE d   1       4.643 -19.275   0.427  0.00  0.00     0.027 H 
ATOM    241  H72 ILE d   1       4.811 -18.581  -1.221  0.00  0.00     0.027 H 
ATOM    242  H73 ILE d   1       3.778 -17.760  -0.002  0.00  0.00     0.027 H 
ENDBRANCH 236 239
ENDBRANCH 234 236
BRANCH 234 243
ATOM    243  CG2 ILE d   1       6.883 -16.436  -1.709  0.00  0.00    -0.071 C 
ATOM    244  H68 ILE d   1       6.940 -15.504  -2.290  0.00  0.00     0.028 H 
ATOM    245  H69 ILE d   1       6.466 -17.235  -2.339  0.00  0.00     0.028 H 
ATOM    246  H70 ILE d   1       7.891 -16.721  -1.373  0.00  0.00     0.028 H 
ENDBRANCH 234 243
ENDBRANCH   1 234
TORSDOF 72
