REMARK  11 active torsions:
REMARK  status: ('A' for Active; 'I' for Inactive)
REMARK    1  A    between atoms: C2_2  and  N24_26 
REMARK    2  A    between atoms: C5_7  and  C17_19 
REMARK    3  A    between atoms: C9_11  and  C6_8 
REMARK    4  A    between atoms: N10_12  and  C9_11 
REMARK    5  A    between atoms: C11_13  and  N10_12 
REMARK    6  A    between atoms: O18_20  and  C13_15 
REMARK    7  A    between atoms: C14_16  and  O19_21 
REMARK    8  A    between atoms: C15_17  and  O20_22 
REMARK    9  A    between atoms: O18_20  and  C21_23 
REMARK   10  A    between atoms: O19_21  and  C22_24 
REMARK   11  A    between atoms: O20_22  and  C23_25 
ROOT
ATOM      1  C9  TMQ d   1       0.063 -10.734  -5.369  0.00  0.00     0.017 C 
ATOM      2  H3  TMQ d   1       0.025 -10.106  -6.271  0.00  0.00     0.071 H 
ATOM      3  H4  TMQ d   1      -0.928 -10.749  -4.891  0.00  0.00     0.071 H 
ENDROOT
BRANCH   1   4
ATOM      4  C6  TMQ d   1       1.057 -10.119  -4.396  0.00  0.00    -0.034 A 
ATOM      5  C5  TMQ d   1       0.740  -8.896  -3.689  0.00  0.00    -0.038 A 
ATOM      6  C4A TMQ d   1       1.729  -8.327  -2.752  0.00  0.00     0.046 A 
ATOM      7  C4  TMQ d   1       1.598  -7.109  -1.951  0.00  0.00     0.153 A 
ATOM      8  C3A TMQ d   1       3.002  -9.048  -2.588  0.00  0.00     0.090 A 
ATOM      9  N3  TMQ d   1       2.613  -6.709  -1.123  0.00  0.00    -0.045 NA
ATOM     10  N25 TMQ d   1       0.503  -6.293  -1.951  0.00  0.00    -0.383 N 
ATOM     11  C2  TMQ d   1       3.757  -7.429  -1.026  0.00  0.00     0.722 A 
ATOM     12  N1  TMQ d   1       3.953  -8.555  -1.728  0.00  0.00    -0.062 NA
ATOM     13  H22 TMQ d   1      -0.307  -6.519  -2.545  0.00  0.00     0.157 HD
ATOM     14  H23 TMQ d   1       0.488  -5.452  -1.357  0.00  0.00     0.157 HD
ATOM     15  C8  TMQ d   1       3.242 -10.247  -3.319  0.00  0.00    -0.053 A 
ATOM     16  C7  TMQ d   1       2.290 -10.763  -4.197  0.00  0.00    -0.072 A 
ATOM     17  H2  TMQ d   1       4.184 -10.768  -3.190  0.00  0.00     0.087 H 
ATOM     18  H1  TMQ d   1       2.505 -11.678  -4.736  0.00  0.00     0.084 H 
BRANCH   5  19
ATOM     19  C17 TMQ d   1      -0.609  -8.250  -3.948  0.00  0.00    -0.050 C 
ATOM     20  H8  TMQ d   1      -0.700  -7.337  -3.342  0.00  0.00     0.033 H 
ATOM     21  H9  TMQ d   1      -1.410  -8.953  -3.675  0.00  0.00     0.033 H 
ATOM     22  H10 TMQ d   1      -0.694  -7.993  -5.014  0.00  0.00     0.033 H 
ENDBRANCH   5  19
BRANCH  11  23
ATOM     23  N24 TMQ d   1       4.736  -6.997  -0.195  0.00  0.00    -0.231 N 
ATOM     24  H20 TMQ d   1       5.612  -7.532  -0.109  0.00  0.00     0.174 HD
ATOM     25  H21 TMQ d   1       4.604  -6.133   0.351  0.00  0.00     0.174 HD
ENDBRANCH  11  23
ENDBRANCH   1   4
BRANCH   1  26
ATOM     26  N10 TMQ d   1       0.405 -12.103  -5.771  0.00  0.00    -0.386 N 
ATOM     27  H5  TMQ d   1       0.707 -12.284  -6.739  0.00  0.00     0.160 HD
BRANCH  26  28
ATOM     28  C11 TMQ d   1       0.330 -13.151  -4.881  0.00  0.00     0.033 A 
ATOM     29  C12 TMQ d   1      -0.464 -13.059  -3.703  0.00  0.00    -0.022 A 
ATOM     30  H6  TMQ d   1      -1.019 -12.151  -3.496  0.00  0.00     0.091 H 
ATOM     31  C13 TMQ d   1      -0.533 -14.169  -2.784  0.00  0.00     0.106 A 
ATOM     32  C14 TMQ d   1       0.194 -15.352  -3.069  0.00  0.00     0.135 A 
ATOM     33  C15 TMQ d   1       0.988 -15.455  -4.240  0.00  0.00     0.106 A 
ATOM     34  C16 TMQ d   1       1.052 -14.337  -5.151  0.00  0.00    -0.022 A 
ATOM     35  H7  TMQ d   1       1.657 -14.407  -6.048  0.00  0.00     0.091 H 
BRANCH  31  36
ATOM     36  O18 TMQ d   1      -1.314 -14.126  -1.589  0.00  0.00    -0.353 OA
BRANCH  36  37
ATOM     37  C21 TMQ d   1      -2.351 -13.146  -1.653  0.00  0.00     0.010 C 
ATOM     38  H11 TMQ d   1      -2.921 -13.153  -0.712  0.00  0.00     0.066 H 
ATOM     39  H12 TMQ d   1      -3.024 -13.379  -2.491  0.00  0.00     0.066 H 
ATOM     40  H13 TMQ d   1      -1.907 -12.151  -1.805  0.00  0.00     0.066 H 
ENDBRANCH  36  37
ENDBRANCH  31  36
BRANCH  32  41
ATOM     41  O19 TMQ d   1       0.128 -16.419  -2.196  0.00  0.00    -0.351 OA
BRANCH  41  42
ATOM     42  C22 TMQ d   1       1.297 -16.417  -1.415  0.00  0.00     0.011 C 
ATOM     43  H14 TMQ d   1       1.268 -17.260  -0.709  0.00  0.00     0.067 H 
ATOM     44  H15 TMQ d   1       1.362 -15.473  -0.855  0.00  0.00     0.067 H 
ATOM     45  H16 TMQ d   1       2.175 -16.517  -2.070  0.00  0.00     0.067 H 
ENDBRANCH  41  42
ENDBRANCH  32  41
BRANCH  33  46
ATOM     46  O20 TMQ d   1       1.698 -16.671  -4.472  0.00  0.00    -0.353 OA
BRANCH  46  47
ATOM     47  C23 TMQ d   1       2.031 -16.850  -5.849  0.00  0.00     0.010 C 
ATOM     48  H17 TMQ d   1       2.575 -17.798  -5.974  0.00  0.00     0.066 H 
ATOM     49  H18 TMQ d   1       2.665 -16.016  -6.184  0.00  0.00     0.066 H 
ATOM     50  H19 TMQ d   1       1.109 -16.874  -6.449  0.00  0.00     0.066 H 
ENDBRANCH  46  47
ENDBRANCH  33  46
ENDBRANCH  26  28
ENDBRANCH   1  26
TORSDOF 11
