REMARK  19 active torsions:
REMARK  status: ('A' for Active; 'I' for Inactive)
REMARK    1  A    between atoms: CA_2  and  CB_5 
REMARK    2  A    between atoms: CB_5  and  CG_6 
REMARK    3  A    between atoms: CA_10  and  CB_13 
REMARK    4  A    between atoms: CA_15  and  CB_18 
REMARK    5  A    between atoms: CB_18  and  CG_19 
REMARK    6  A    between atoms: CA_23  and  CB_26 
REMARK    7  A    between atoms: CB_26  and  CG_27 
REMARK    8  A    between atoms: CG_27  and  CD_28 
REMARK    9  A    between atoms: CA_32  and  CB_33 
REMARK   10  A    between atoms: CB_33  and  CG_34 
REMARK   11  A    between atoms: CZ_39  and  OH_40 
REMARK   12  A    between atoms: OH_40  and  C1_41 
REMARK   13  A    between atoms: C1_41  and  C3_48 
REMARK   14  A    between atoms: C1_41  and  C2_42 
REMARK   15  A    between atoms: CA_52  and  CB_55 
REMARK   16  A    between atoms: CB_55  and  CG_56 
REMARK   17  A    between atoms: CG_56  and  CD2_58 
REMARK   18  A    between atoms: CG_56  and  CD1_57 
REMARK   19  A    between atoms: C1_60  and  C2_62 
REMARK       I    between atoms: C2_62  and  N2_63 
ROOT
ATOM      1  N   ASP d   1      -9.462  -3.185  29.071  0.00  0.00    -0.347 N 
ATOM      2  CA  ASP d   1     -10.611  -3.135  29.951  0.00  0.00     0.098 C 
ATOM      3  C   ASP d   1      -9.945  -2.864  31.274  0.00  0.00     0.241 C 
ATOM      4  O   ASP d   1     -10.113  -1.814  31.876  0.00  0.00    -0.271 OA
ATOM      5  N   ASP d   1      -6.448  -2.020  33.462  0.00  0.00    -0.346 N 
ATOM      6  CA  ASP d   1      -5.246  -1.378  33.082  0.00  0.00     0.098 C 
ATOM      7  C   ASP d   1      -4.378  -2.085  32.094  0.00  0.00     0.241 C 
ATOM      8  O   ASP d   1      -3.973  -1.479  31.106  0.00  0.00    -0.271 OA
ATOM      9  H1  ASP d   1      -8.518  -3.175  29.401  0.00  0.00     0.163 HD
ATOM     10  H2  ASP d   1     -11.341  -2.359  29.677  0.00  0.00     0.088 H 
ATOM     11  H10 ASP d   1      -6.817  -1.905  34.384  0.00  0.00     0.163 HD
ATOM     12  H11 ASP d   1      -5.478  -0.368  32.712  0.00  0.00     0.088 H 
ATOM     13  N   ALA d   1      -9.043  -3.925  31.695  0.00  0.00    -0.346 N 
ATOM     14  CA  ALA d   1      -8.402  -3.539  32.918  0.00  0.00     0.086 C 
ATOM     15  C   ALA d   1      -7.127  -2.838  32.500  0.00  0.00     0.240 C 
ATOM     16  O   ALA d   1      -6.692  -2.984  31.377  0.00  0.00    -0.271 OA
ATOM     17  H5  ALA d   1      -8.894  -4.786  31.209  0.00  0.00     0.163 HD
ATOM     18  H6  ALA d   1      -9.042  -2.861  33.501  0.00  0.00     0.086 H 
ATOM     19  N   GLU d   1      -3.980  -3.453  32.362  0.00  0.00    -0.346 N 
ATOM     20  CA  GLU d   1      -3.079  -3.964  31.372  0.00  0.00     0.090 C 
ATOM     21  C   GLU d   1      -3.636  -4.891  30.321  0.00  0.00     0.241 C 
ATOM     22  O   GLU d   1      -4.343  -5.764  30.861  0.00  0.00    -0.271 OA
ATOM     23  H14 GLU d   1      -4.298  -3.981  33.149  0.00  0.00     0.163 HD
ATOM     24  H15 GLU d   1      -2.616  -3.105  30.863  0.00  0.00     0.087 H 
ATOM     25  N   FLT d   1      -3.378  -4.953  28.946  0.00  0.00    -0.346 N 
ATOM     26  CA  FLT d   1      -2.776  -4.325  27.855  0.00  0.00     0.093 C 
ATOM     27  O   FLT d   1      -3.715  -4.373  25.636  0.00  0.00    -0.271 OA
ATOM     28  C   FLT d   1      -3.328  -4.990  26.590  0.00  0.00     0.241 C 
ATOM     29  H20 FLT d   1      -3.799  -5.794  28.606  0.00  0.00     0.163 HD
ATOM     30  H21 FLT d   1      -3.047  -3.260  27.899  0.00  0.00     0.088 H 
ATOM     31  N   LEU d   1      -3.304  -6.431  26.638  0.00  0.00    -0.346 N 
ATOM     32  CA  LEU d   1      -3.849  -7.071  25.482  0.00  0.00     0.089 C 
ATOM     33  C   LEU d   1      -5.357  -7.035  25.656  0.00  0.00     0.241 C 
ATOM     34  O   LEU d   1      -5.824  -8.030  26.180  0.00  0.00    -0.271 OA
ATOM     35  H28 LEU d   1      -2.936  -6.941  27.416  0.00  0.00     0.163 HD
ATOM     36  H29 LEU d   1      -3.519  -6.564  24.563  0.00  0.00     0.087 H 
ATOM     37  N1  AEA d   1      -6.016  -5.867  25.180  0.00  0.00    -0.345 N 
ATOM     38  C1  AEA d   1      -7.429  -5.726  25.343  0.00  0.00     0.097 C 
ATOM     39  C3  AEA d   1      -7.856  -5.935  26.821  0.00  0.00     0.004 C 
ATOM     40  S1  AEA d   1      -7.370  -4.352  27.593  0.00  0.00    -0.157 SA
ATOM     41  C4  AEA d   1      -8.619  -3.314  26.742  0.00  0.00     0.051 C 
ATOM     42  O1  AEA d   1     -10.973  -3.256  27.312  0.00  0.00    -0.273 OA
ATOM     43  C5  AEA d   1      -9.808  -3.251  27.675  0.00  0.00     0.227 C 
ATOM     44  H39 AEA d   1      -5.490  -5.144  24.731  0.00  0.00     0.163 HD
ATOM     45  H40 AEA d   1      -7.578  -4.648  25.185  0.00  0.00     0.088 H 
ATOM     46  H41 AEA d   1      -7.319  -6.781  27.275  0.00  0.00     0.052 H 
ATOM     47  H42 AEA d   1      -8.940  -6.102  26.903  0.00  0.00     0.052 H 
ATOM     48  H45 AEA d   1      -8.908  -3.771  25.784  0.00  0.00     0.063 H 
ATOM     49  H46 AEA d   1      -8.220  -2.305  26.562  0.00  0.00     0.063 H 
ENDROOT
BRANCH  26  50
ATOM     50  CB  FLT d   1      -1.252  -4.432  27.614  0.00  0.00    -0.014 C 
ATOM     51  H22 FLT d   1      -0.952  -5.489  27.664  0.00  0.00     0.043 H 
ATOM     52  H23 FLT d   1      -0.723  -3.864  28.393  0.00  0.00     0.043 H 
BRANCH  50  53
ATOM     53  CG  FLT d   1      -0.878  -3.866  26.235  0.00  0.00    -0.056 A 
ATOM     54  CD2 FLT d   1      -0.871  -4.717  25.127  0.00  0.00    -0.074 A 
ATOM     55  CE2 FLT d   1      -0.535  -4.240  23.872  0.00  0.00    -0.050 A 
ATOM     56  H26 FLT d   1      -1.131  -5.762  25.252  0.00  0.00     0.084 H 
ATOM     57  CZ  FLT d   1      -0.218  -2.875  23.680  0.00  0.00     0.074 A 
ATOM     58  H27 FLT d   1      -0.515  -4.919  23.028  0.00  0.00     0.087 H 
ATOM     59  CE1 FLT d   1      -0.225  -2.030  24.783  0.00  0.00    -0.050 A 
ATOM     60  CD1 FLT d   1      -0.555  -2.527  26.055  0.00  0.00    -0.074 A 
ATOM     61  H25 FLT d   1       0.025  -0.982  24.662  0.00  0.00     0.087 H 
ATOM     62  H24 FLT d   1      -0.558  -1.857  26.907  0.00  0.00     0.084 H 
BRANCH  57  63
ATOM     63  OH  FLT d   1       0.112  -2.468  22.391  0.00  0.00    -0.292 OA
BRANCH  63  64
ATOM     64  C1  FLT d   1       0.801  -1.261  22.144  0.00  0.00     0.387 C 
ATOM     65  F1  FLT d   1       0.032  -0.201  22.488  0.00  0.00    -0.186 F 
BRANCH  64  66
ATOM     66  C3  FLT d   1       1.061  -1.216  20.646  0.00  0.00     0.256 C 
ATOM     67  O1  FLT d   1       1.125  -0.187  20.063  0.00  0.00    -0.643 OA
ATOM     68  O2  FLT d   1       1.251  -2.491  20.266  0.00  0.00    -0.643 OA
ENDBRANCH  64  66
BRANCH  64  69
ATOM     69  C2  FLT d   1       2.187  -1.149  22.724  0.00  0.00     0.256 C 
ATOM     70  O4  FLT d   1       3.066  -1.971  22.542  0.00  0.00    -0.643 OA
ATOM     71  O3  FLT d   1       2.452  -0.022  23.384  0.00  0.00    -0.643 OA
ENDBRANCH  64  69
ENDBRANCH  63  64
ENDBRANCH  57  63
ENDBRANCH  50  53
ENDBRANCH  26  50
BRANCH  20  72
ATOM     72  CB  GLU d   1      -2.002  -4.798  32.113  0.00  0.00    -0.029 C 
ATOM     73  H16 GLU d   1      -1.202  -5.017  31.390  0.00  0.00     0.037 H 
ATOM     74  H17 GLU d   1      -2.476  -5.738  32.431  0.00  0.00     0.037 H 
BRANCH  72  75
ATOM     75  CG  GLU d   1      -1.358  -4.191  33.323  0.00  0.00     0.018 C 
ATOM     76  H18 GLU d   1      -0.272  -4.242  33.155  0.00  0.00     0.049 H 
ATOM     77  H19 GLU d   1      -1.629  -4.833  34.174  0.00  0.00     0.049 H 
BRANCH  75  78
ATOM     78  CD  GLU d   1      -1.651  -2.802  33.739  0.00  0.00     0.172 C 
ATOM     79  OE1 GLU d   1      -2.099  -1.875  32.971  0.00  0.00    -0.648 OA
ATOM     80  OE2 GLU d   1      -1.423  -2.486  34.909  0.00  0.00    -0.648 OA
ENDBRANCH  75  78
ENDBRANCH  72  75
ENDBRANCH  20  72
BRANCH  32  81
ATOM     81  CB  LEU d   1      -3.514  -8.573  25.441  0.00  0.00    -0.035 C 
ATOM     82  H30 LEU d   1      -4.278  -9.093  24.845  0.00  0.00     0.037 H 
ATOM     83  H31 LEU d   1      -3.518  -8.968  26.468  0.00  0.00     0.037 H 
BRANCH  81  84
ATOM     84  CG  LEU d   1      -2.126  -8.828  24.810  0.00  0.00    -0.059 C 
ATOM     85  H32 LEU d   1      -1.462  -7.962  24.945  0.00  0.00     0.038 H 
BRANCH  84  86
ATOM     86  CD2 LEU d   1      -2.290  -9.149  23.317  0.00  0.00    -0.073 C 
ATOM     87  H36 LEU d   1      -2.680  -8.264  22.792  0.00  0.00     0.028 H 
ATOM     88  H37 LEU d   1      -2.994  -9.986  23.197  0.00  0.00     0.028 H 
ATOM     89  H38 LEU d   1      -1.314  -9.427  22.892  0.00  0.00     0.028 H 
ENDBRANCH  84  86
BRANCH  84  90
ATOM     90  CD1 LEU d   1      -1.578 -10.077  25.540  0.00  0.00    -0.073 C 
ATOM     91  H33 LEU d   1      -0.583 -10.326  25.144  0.00  0.00     0.028 H 
ATOM     92  H34 LEU d   1      -2.260 -10.925  25.378  0.00  0.00     0.028 H 
ATOM     93  H35 LEU d   1      -1.502  -9.868  26.617  0.00  0.00     0.028 H 
ENDBRANCH  84  90
ENDBRANCH  81  84
ENDBRANCH  32  81
BRANCH   6  94
ATOM     94  CB  ASP d   1      -4.361  -1.340  34.380  0.00  0.00     0.043 C 
ATOM     95  H12 ASP d   1      -3.730  -2.239  34.435  0.00  0.00     0.052 H 
ATOM     96  H13 ASP d   1      -5.000  -1.285  35.273  0.00  0.00     0.052 H 
BRANCH  94  97
ATOM     97  CG  ASP d   1      -3.502  -0.110  34.282  0.00  0.00     0.175 C 
ATOM     98  OD1 ASP d   1      -2.874   0.072  33.246  0.00  0.00    -0.648 OA
ATOM     99  OD2 ASP d   1      -3.458   0.706  35.258  0.00  0.00    -0.648 OA
ENDBRANCH  94  97
ENDBRANCH   6  94
BRANCH  38 100
ATOM    100  C2  AEA d   1      -8.353  -6.310  24.336  0.00  0.00     0.239 C 
ATOM    101  O3  AEA d   1      -8.708  -5.628  23.369  0.00  0.00    -0.271 OA
ATOM    102  N2  AEA d   1      -8.889  -7.643  24.473  0.00  0.00    -0.368 N 
ATOM    103  H43 AEA d   1      -9.509  -8.007  23.777  0.00  0.00     0.159 HD
ATOM    104  H44 AEA d   1      -8.641  -8.203  25.264  0.00  0.00     0.159 HD
ENDBRANCH  38 100
BRANCH  14 105
ATOM    105  CB  ALA d   1      -8.095  -4.801  33.739  0.00  0.00    -0.049 C 
ATOM    106  H7  ALA d   1      -7.603  -4.515  34.680  0.00  0.00     0.030 H 
ATOM    107  H8  ALA d   1      -7.430  -5.461  33.163  0.00  0.00     0.030 H 
ATOM    108  H9  ALA d   1      -9.033  -5.331  33.962  0.00  0.00     0.030 H 
ENDBRANCH  14 105
BRANCH   2 109
ATOM    109  CB  ASP d   1     -11.242  -4.536  29.931  0.00  0.00     0.043 C 
ATOM    110  H3  ASP d   1     -11.661  -4.740  28.935  0.00  0.00     0.052 H 
ATOM    111  H4  ASP d   1     -12.042  -4.593  30.684  0.00  0.00     0.052 H 
BRANCH 109 112
ATOM    112  CG  ASP d   1     -10.171  -5.550  30.249  0.00  0.00     0.175 C 
ATOM    113  OD1 ASP d   1     -10.360  -6.392  31.106  0.00  0.00    -0.648 OA
ATOM    114  OD2 ASP d   1      -9.100  -5.444  29.560  0.00  0.00    -0.648 OA
ENDBRANCH 109 112
ENDBRANCH   2 109
TORSDOF 19
