REMARK  4 active torsions:
REMARK  status: ('A' for Active; 'I' for Inactive)
REMARK    1  A    between atoms: C9_5  and  C43_26 
REMARK    2  A    between atoms: S15_19  and  C16_7 
REMARK    3  A    between atoms: C19_8  and  C22_11 
REMARK    4  A    between atoms: N8_18  and  S15_19 
ROOT
ATOM      1  O28 BSI d   1      29.825  59.652  49.369  0.00  0.00    -0.200 OA
ATOM      2  S15 BSI d   1      28.447  59.840  49.770  0.00  0.00     0.262 S 
ATOM      3  O29 BSI d   1      27.678  60.914  49.215  0.00  0.00    -0.200 OA
ENDROOT
BRANCH   2   4
ATOM      4  N8  BSI d   1      28.419  59.990  51.365  0.00  0.00    -0.287 N 
ATOM      5  C7  BSI d   1      29.557  59.404  52.102  0.00  0.00     0.030 C 
ATOM      6  C3  BSI d   1      29.464  59.678  53.554  0.00  0.00    -0.033 A 
ATOM      7  H3  BSI d   1      29.563  58.316  51.944  0.00  0.00     0.072 H 
ATOM      8  H4  BSI d   1      30.492  59.836  51.716  0.00  0.00     0.072 H 
ATOM      9  C2  BSI d   1      30.404  59.055  54.388  0.00  0.00    -0.075 A 
ATOM     10  C4  BSI d   1      28.493  60.563  54.096  0.00  0.00    -0.048 A 
ATOM     11  C1  BSI d   1      30.390  59.323  55.780  0.00  0.00    -0.082 A 
ATOM     12  H2  BSI d   1      31.136  58.373  53.971  0.00  0.00     0.084 H 
ATOM     13  C6  BSI d   1      29.451  60.223  56.324  0.00  0.00    -0.082 A 
ATOM     14  H1  BSI d   1      31.106  58.833  56.430  0.00  0.00     0.083 H 
ATOM     15  C5  BSI d   1      28.496  60.858  55.493  0.00  0.00    -0.076 A 
ATOM     16  H13 BSI d   1      29.460  60.431  57.388  0.00  0.00     0.083 H 
ATOM     17  H12 BSI d   1      27.779  61.556  55.910  0.00  0.00     0.084 H 
ATOM     18  C10 BSI d   1      27.434  61.222  53.239  0.00  0.00    -0.011 C 
ATOM     19  C9  BSI d   1      27.129  60.329  52.036  0.00  0.00     0.110 C 
ATOM     20  H6  BSI d   1      26.518  61.365  53.832  0.00  0.00     0.044 H 
ATOM     21  H7  BSI d   1      27.800  62.198  52.888  0.00  0.00     0.044 H 
ATOM     22  H5  BSI d   1      26.490  60.877  51.328  0.00  0.00     0.091 H 
BRANCH  19  23
ATOM     23  C43 BSI d   1      26.388  59.079  52.495  0.00  0.00     0.197 C 
ATOM     24  O46 BSI d   1      27.029  58.064  52.884  0.00  0.00    -0.646 OA
ATOM     25  O45 BSI d   1      25.142  59.060  52.528  0.00  0.00    -0.646 OA
ENDBRANCH  19  23
ENDBRANCH   2   4
BRANCH   2  26
ATOM     26  C16 BSI d   1      27.625  58.317  49.364  0.00  0.00     0.079 A 
ATOM     27  C17 BSI d   1      26.310  58.320  48.806  0.00  0.00    -0.059 A 
ATOM     28  C18 BSI d   1      25.726  57.119  48.324  0.00  0.00    -0.071 A 
ATOM     29  H14 BSI d   1      25.753  59.248  48.750  0.00  0.00     0.085 H 
ATOM     30  C19 BSI d   1      26.471  55.907  48.383  0.00  0.00    -0.026 A 
ATOM     31  H15 BSI d   1      24.722  57.125  47.915  0.00  0.00     0.084 H 
ATOM     32  C20 BSI d   1      27.763  55.934  49.037  0.00  0.00    -0.071 A 
ATOM     33  C21 BSI d   1      28.357  57.112  49.542  0.00  0.00    -0.059 A 
ATOM     34  H8  BSI d   1      28.303  55.000  49.145  0.00  0.00     0.084 H 
ATOM     35  H9  BSI d   1      29.320  57.098  50.039  0.00  0.00     0.085 H 
BRANCH  30  36
ATOM     36  C22 BSI d   1      26.001  54.667  47.717  0.00  0.00    -0.026 A 
ATOM     37  C23 BSI d   1      25.127  54.750  46.609  0.00  0.00    -0.072 A 
ATOM     38  C24 BSI d   1      24.709  53.540  45.971  0.00  0.00    -0.082 A 
ATOM     39  H16 BSI d   1      24.780  55.712  46.250  0.00  0.00     0.084 H 
ATOM     40  C25 BSI d   1      25.165  52.276  46.432  0.00  0.00    -0.083 A 
ATOM     41  H10 BSI d   1      24.035  53.588  45.124  0.00  0.00     0.083 H 
ATOM     42  C26 BSI d   1      26.053  52.205  47.540  0.00  0.00    -0.082 A 
ATOM     43  H17 BSI d   1      24.837  51.368  45.940  0.00  0.00     0.083 H 
ATOM     44  C27 BSI d   1      26.468  53.398  48.178  0.00  0.00    -0.072 A 
ATOM     45  H18 BSI d   1      26.410  51.244  47.893  0.00  0.00     0.083 H 
ATOM     46  H11 BSI d   1      27.145  53.349  49.023  0.00  0.00     0.084 H 
ENDBRANCH  30  36
ENDBRANCH   2  26
TORSDOF 4
