REMARK  11 active torsions:
REMARK  status: ('A' for Active; 'I' for Inactive)
REMARK    1  A    between atoms: C1_1  and  C7_16 
REMARK    2  A    between atoms: C6_22  and  C_6 
REMARK    3  A    between atoms: C9_7  and  C16_14 
REMARK    4  A    between atoms: C9_7  and  C17_15 
REMARK    5  A    between atoms: C10_8  and  C15_13 
REMARK    6  A    between atoms: C11_9  and  C13_10 
REMARK    7  A    between atoms: C13_10  and  C12_11 
REMARK    8  A    between atoms: C13_10  and  C14_12 
REMARK    9  A    between atoms: C8_17  and  C18_18 
REMARK   10  A    between atoms: C8_17  and  C6_22 
REMARK   11  A    between atoms: C18_18  and  C19_19 
ROOT
ATOM      1  C1  TRZ d   1      26.927  62.503 -10.757  0.00  0.00    -0.048 C 
ATOM      2  C2  TRZ d   1      27.301  62.128  -9.452  0.00  0.00    -0.069 C 
ATOM      3  C3  TRZ d   1      26.768  62.827  -8.351  0.00  0.00    -0.043 C 
ATOM      4  C4  TRZ d   1      26.190  64.021  -8.534  0.00  0.00    -0.045 C 
ATOM      5  C5  TRZ d   1      25.749  64.416  -9.797  0.00  0.00    -0.062 C 
ATOM      6  C   TRZ d   1      26.172  63.700 -10.917  0.00  0.00     0.016 C 
ATOM      7  C9  TRZ d   1      27.211  62.664  -6.972  0.00  0.00    -0.016 C 
ATOM      8  C10 TRZ d   1      26.500  63.552  -6.116  0.00  0.00    -0.039 C 
ATOM      9  C11 TRZ d   1      25.773  64.542  -7.126  0.00  0.00    -0.021 C 
ATOM     10  H1  TRZ d   1      27.993  61.308  -9.296  0.00  0.00     0.085 H 
ATOM     11  H2  TRZ d   1      25.087  65.267  -9.907  0.00  0.00     0.085 H 
ATOM     12  H3  TRZ d   1      25.755  63.012  -5.513  0.00  0.00     0.042 H 
ATOM     13  H4  TRZ d   1      26.106  65.581  -6.983  0.00  0.00     0.048 H 
ENDROOT
BRANCH   6  14
ATOM     14  C6  TRZ d   1      25.839  64.196 -12.192  0.00  0.00     0.160 C 
ATOM     15  O   TRZ d   1      26.621  63.968 -13.155  0.00  0.00    -0.292 OA
BRANCH  14  16
ATOM     16  C8  TRZ d   1      24.686  65.152 -12.432  0.00  0.00     0.004 C 
ATOM     17  H24 TRZ d   1      24.497  65.729 -11.515  0.00  0.00     0.045 H 
ATOM     18  H25 TRZ d   1      24.949  65.839 -13.250  0.00  0.00     0.045 H 
BRANCH  16  19
ATOM     19  C18 TRZ d   1      23.456  64.400 -12.800  0.00  0.00     0.022 C 
ATOM     20  H26 TRZ d   1      22.589  64.850 -12.294  0.00  0.00     0.049 H 
ATOM     21  H27 TRZ d   1      23.562  63.352 -12.485  0.00  0.00     0.049 H 
BRANCH  19  22
ATOM     22  C19 TRZ d   1      23.250  64.453 -14.269  0.00  0.00     0.172 C 
ATOM     23  O2  TRZ d   1      22.078  64.539 -14.749  0.00  0.00    -0.648 OA
ATOM     24  O3  TRZ d   1      24.263  64.403 -15.028  0.00  0.00    -0.648 OA
ENDBRANCH  19  22
ENDBRANCH  16  19
ENDBRANCH  14  16
ENDBRANCH   6  14
BRANCH   1  25
ATOM     25  C7  TRZ d   1      27.399  61.609 -11.891  0.00  0.00    -0.050 C 
ATOM     26  H21 TRZ d   1      27.958  60.757 -11.478  0.00  0.00     0.033 H 
ATOM     27  H22 TRZ d   1      28.052  62.184 -12.564  0.00  0.00     0.033 H 
ATOM     28  H23 TRZ d   1      26.529  61.239 -12.452  0.00  0.00     0.033 H 
ENDBRANCH   1  25
BRANCH   9  29
ATOM     29  C13 TRZ d   1      24.291  64.445  -6.894  0.00  0.00    -0.053 C 
ATOM     30  H5  TRZ d   1      23.974  63.404  -7.057  0.00  0.00     0.040 H 
BRANCH  29  31
ATOM     31  C12 TRZ d   1      23.532  65.383  -7.817  0.00  0.00    -0.073 C 
ATOM     32  H6  TRZ d   1      22.453  65.291  -7.626  0.00  0.00     0.028 H 
ATOM     33  H7  TRZ d   1      23.743  65.118  -8.864  0.00  0.00     0.028 H 
ATOM     34  H8  TRZ d   1      23.851  66.419  -7.630  0.00  0.00     0.028 H 
ENDBRANCH  29  31
BRANCH  29  35
ATOM     35  C14 TRZ d   1      23.893  64.902  -5.505  0.00  0.00    -0.073 C 
ATOM     36  H9  TRZ d   1      24.398  64.276  -4.754  0.00  0.00     0.028 H 
ATOM     37  H10 TRZ d   1      22.803  64.810  -5.387  0.00  0.00     0.028 H 
ATOM     38  H11 TRZ d   1      24.189  65.952  -5.365  0.00  0.00     0.028 H 
ENDBRANCH  29  35
ENDBRANCH   9  29
BRANCH   7  39
ATOM     39  C16 TRZ d   1      26.829  61.324  -6.240  0.00  0.00    -0.065 C 
ATOM     40  H15 TRZ d   1      27.296  60.475  -6.762  0.00  0.00     0.028 H 
ATOM     41  H16 TRZ d   1      25.736  61.202  -6.246  0.00  0.00     0.028 H 
ATOM     42  H17 TRZ d   1      27.189  61.358  -5.201  0.00  0.00     0.028 H 
ENDBRANCH   7  39
BRANCH   7  43
ATOM     43  C17 TRZ d   1      28.657  62.607  -6.737  0.00  0.00    -0.065 C 
ATOM     44  H18 TRZ d   1      29.137  63.489  -7.187  0.00  0.00     0.028 H 
ATOM     45  H19 TRZ d   1      29.067  61.694  -7.193  0.00  0.00     0.028 H 
ATOM     46  H20 TRZ d   1      28.852  62.596  -5.655  0.00  0.00     0.028 H 
ENDBRANCH   7  43
BRANCH   8  47
ATOM     47  C15 TRZ d   1      27.439  64.205  -5.234  0.00  0.00    -0.071 C 
ATOM     48  H12 TRZ d   1      27.898  63.458  -4.569  0.00  0.00     0.028 H 
ATOM     49  H13 TRZ d   1      26.912  64.958  -4.630  0.00  0.00     0.028 H 
ATOM     50  H14 TRZ d   1      28.222  64.696  -5.831  0.00  0.00     0.028 H 
ENDBRANCH   8  47
TORSDOF 11
