REMARK  6 active torsions:
REMARK  status: ('A' for Active; 'I' for Inactive)
REMARK    1  A    between atoms: C1_5  and  P1_1 
REMARK    2  A    between atoms: C4_8  and  C2_6 
REMARK    3  A    between atoms: C3_7  and  C4_8 
REMARK    4  A    between atoms: S1_9  and  C3_7 
REMARK    5  A    between atoms: C8_14  and  S1_9 
REMARK    6  A    between atoms: C7_13  and  OH_10 
ROOT
ATOM      1  C3  HE1 d   1      48.817  28.205  14.667  0.00  0.00    -0.016 C 
ATOM      2  H3  HE1 d   1      48.570  29.183  15.105  0.00  0.00     0.049 H 
ATOM      3  H4  HE1 d   1      49.825  28.244  14.228  0.00  0.00     0.049 H 
ENDROOT
BRANCH   1   4
ATOM      4  C4  HE1 d   1      47.801  27.811  13.636  0.00  0.00    -0.041 C 
ATOM      5  H5  HE1 d   1      47.965  26.759  13.360  0.00  0.00     0.040 H 
ATOM      6  H6  HE1 d   1      46.795  27.925  14.067  0.00  0.00     0.040 H 
BRANCH   4   7
ATOM      7  C2  HE1 d   1      47.894  28.637  12.427  0.00  0.00    -0.093 C 
ATOM      8  C1  HE1 d   1      47.876  28.166  11.201  0.00  0.00     0.013 C 
ATOM      9  H1  HE1 d   1      47.795  27.089  11.065  0.00  0.00     0.098 H 
ATOM     10  H2  HE1 d   1      47.984  29.715  12.555  0.00  0.00     0.077 H 
BRANCH   8  11
ATOM     11  P1  HE1 d   1      47.971  29.142   9.822  0.00  0.00     0.284 P 
ATOM     12  O1  HE1 d   1      48.277  28.242   8.531  0.00  0.00    -0.636 OA
ATOM     13  O2  HE1 d   1      49.154  30.186  10.058  0.00  0.00    -0.636 OA
ATOM     14  O3  HE1 d   1      46.579  29.944   9.673  0.00  0.00    -0.636 OA
ENDBRANCH   8  11
ENDBRANCH   4   7
ENDBRANCH   1   4
BRANCH   1  15
ATOM     15  S1  HE1 d   1      48.711  26.919  15.892  0.00  0.00    -0.127 SA
BRANCH  15  16
ATOM     16  C8  HE1 d   1      49.819  25.644  15.428  0.00  0.00     0.033 A 
ATOM     17  C7  HE1 d   1      51.183  25.893  15.223  0.00  0.00     0.082 A 
ATOM     18  C6  HE1 d   1      52.013  24.837  14.856  0.00  0.00    -0.050 A 
ATOM     19  C5  HE1 d   1      51.496  23.542  14.687  0.00  0.00    -0.080 A 
ATOM     20  H9  HE1 d   1      53.070  25.016  14.699  0.00  0.00     0.087 H 
ATOM     21  C10 HE1 d   1      50.130  23.305  14.890  0.00  0.00    -0.082 A 
ATOM     22  H8  HE1 d   1      52.152  22.728  14.400  0.00  0.00     0.083 H 
ATOM     23  C9  HE1 d   1      49.285  24.365  15.263  0.00  0.00    -0.064 A 
ATOM     24  H11 HE1 d   1      49.726  22.308  14.760  0.00  0.00     0.083 H 
ATOM     25  H10 HE1 d   1      48.227  24.190  15.421  0.00  0.00     0.085 H 
BRANCH  17  26
ATOM     26  OH  HE1 d   1      51.734  27.147  15.374  0.00  0.00    -0.359 OA
ATOM     27  H7  HE1 d   1      52.124  27.421  14.552  0.00  0.00     0.217 HD
ENDBRANCH  17  26
ENDBRANCH  15  16
ENDBRANCH   1  15
TORSDOF 6
