REMARK  11 active torsions:
REMARK  status: ('A' for Active; 'I' for Inactive)
REMARK    1  A    between atoms: C2_2  and  NA2_3 
REMARK    2  A    between atoms: C9_13  and  C6_9 
REMARK    3  A    between atoms: C10_14  and  C9_13 
REMARK    4  A    between atoms: C14_18  and  C10_14 
REMARK    5  A    between atoms: C10_14  and  CA1_33 
REMARK    6  A    between atoms: C11_15  and  C_21 
REMARK       I    between atoms: C_21  and  N_23 
REMARK    7  A    between atoms: N_23  and  CA_24 
REMARK    8  A    between atoms: CA_24  and  CB_25 
REMARK    9  A    between atoms: CA_24  and  CT_30 
REMARK   10  A    between atoms: CB_25  and  CG_26 
REMARK   11  A    between atoms: CG_26  and  CD_27 
ROOT
ATOM      1  C11 NHS d   1      43.065  19.239   4.743  0.00  0.00     0.032 A 
ATOM      2  C12 NHS d   1      41.840  18.484   4.638  0.00  0.00    -0.067 A 
ATOM      3  C13 NHS d   1      40.935  18.698   3.537  0.00  0.00    -0.075 A 
ATOM      4  C14 NHS d   1      41.258  19.672   2.517  0.00  0.00    -0.043 A 
ATOM      5  C15 NHS d   1      42.469  20.407   2.645  0.00  0.00    -0.075 A 
ATOM      6  C16 NHS d   1      43.345  20.193   3.726  0.00  0.00    -0.067 A 
ATOM      7  H10 NHS d   1      41.598  17.748   5.396  0.00  0.00     0.085 H 
ATOM      8  H11 NHS d   1      40.014  18.130   3.473  0.00  0.00     0.084 H 
ATOM      9  H12 NHS d   1      42.723  21.147   1.895  0.00  0.00     0.084 H 
ATOM     10  H13 NHS d   1      44.260  20.772   3.785  0.00  0.00     0.085 H 
ENDROOT
BRANCH   4  11
ATOM     11  C10 NHS d   1      40.333  19.970   1.260  0.00  0.00     0.059 C 
ATOM     12  H9  NHS d   1      41.029  20.017   0.409  0.00  0.00     0.064 H 
BRANCH  11  13
ATOM     13  C9  NHS d   1      39.712  21.425   1.318  0.00  0.00    -0.025 C 
ATOM     14  H7  NHS d   1      40.525  22.118   1.056  0.00  0.00     0.042 H 
ATOM     15  H8  NHS d   1      38.936  21.460   0.539  0.00  0.00     0.042 H 
BRANCH  13  16
ATOM     16  C6  NHS d   1      39.066  21.982   2.596  0.00  0.00    -0.056 A 
ATOM     17  C5  NHS d   1      37.822  21.470   3.036  0.00  0.00    -0.059 A 
ATOM     18  C4A NHS d   1      37.220  21.976   4.209  0.00  0.00     0.062 A 
ATOM     19  H4  NHS d   1      37.330  20.687   2.471  0.00  0.00     0.086 H 
ATOM     20  C4  NHS d   1      35.891  21.470   4.742  0.00  0.00     0.272 A 
ATOM     21  C8A NHS d   1      37.880  23.023   4.979  0.00  0.00     0.091 A 
ATOM     22  N3  NHS d   1      35.403  22.040   5.898  0.00  0.00    -0.154 N 
ATOM     23  O4  NHS d   1      35.238  20.592   4.187  0.00  0.00    -0.267 OA
ATOM     24  C2  NHS d   1      36.110  23.084   6.625  0.00  0.00     0.701 A 
ATOM     25  H3  NHS d   1      34.524  21.722   6.253  0.00  0.00     0.187 HD
ATOM     26  N1  NHS d   1      37.249  23.552   6.204  0.00  0.00    -0.064 NA
ATOM     27  C8  NHS d   1      39.114  23.530   4.525  0.00  0.00    -0.053 A 
ATOM     28  C7  NHS d   1      39.707  23.011   3.340  0.00  0.00    -0.075 A 
ATOM     29  H6  NHS d   1      39.612  24.317   5.080  0.00  0.00     0.087 H 
ATOM     30  H5  NHS d   1      40.658  23.404   3.000  0.00  0.00     0.084 H 
BRANCH  24  31
ATOM     31  NA2 NHS d   1      35.553  23.594   7.762  0.00  0.00    -0.233 N 
ATOM     32  H1  NHS d   1      36.041  24.333   8.288  0.00  0.00     0.174 HD
ATOM     33  H2  NHS d   1      34.645  23.240   8.094  0.00  0.00     0.174 HD
ENDBRANCH  24  31
ENDBRANCH  13  16
ENDBRANCH  11  13
BRANCH  11  34
ATOM     34  CA1 NHS d   1      39.397  18.795   0.892  0.00  0.00     0.181 C 
ATOM     35  OA1 NHS d   1      39.969  17.799   0.432  0.00  0.00    -0.647 OA
ATOM     36  OA2 NHS d   1      38.327  19.036   0.333  0.00  0.00    -0.647 OA
ENDBRANCH  11  34
ENDBRANCH   4  11
BRANCH   1  37
ATOM     37  C   NHS d   1      44.068  19.041   5.894  0.00  0.00     0.252 C 
ATOM     38  O   NHS d   1      43.842  18.205   6.802  0.00  0.00    -0.268 OA
ATOM     39  N   NHS d   1      45.247  19.796   5.854  0.00  0.00    -0.342 N 
ATOM     40  H14 NHS d   1      45.311  20.409   5.066  0.00  0.00     0.163 HD
BRANCH  39  41
ATOM     41  CA  NHS d   1      46.441  19.857   6.780  0.00  0.00     0.097 C 
ATOM     42  H15 NHS d   1      46.833  20.878   6.660  0.00  0.00     0.089 H 
BRANCH  41  43
ATOM     43  CB  NHS d   1      45.982  19.751   8.274  0.00  0.00    -0.028 C 
ATOM     44  H16 NHS d   1      46.790  19.248   8.826  0.00  0.00     0.037 H 
ATOM     45  H17 NHS d   1      45.080  19.122   8.291  0.00  0.00     0.037 H 
BRANCH  43  46
ATOM     46  CG  NHS d   1      45.641  21.071   9.055  0.00  0.00     0.018 C 
ATOM     47  H18 NHS d   1      46.417  21.220   9.821  0.00  0.00     0.049 H 
ATOM     48  H19 NHS d   1      44.665  20.932   9.544  0.00  0.00     0.049 H 
BRANCH  46  49
ATOM     49  CD  NHS d   1      45.565  22.345   8.209  0.00  0.00     0.172 C 
ATOM     50  OE1 NHS d   1      44.516  22.841   7.824  0.00  0.00    -0.648 OA
ATOM     51  OE2 NHS d   1      46.798  22.864   7.922  0.00  0.00    -0.648 OA
ENDBRANCH  46  49
ENDBRANCH  43  46
ENDBRANCH  41  43
BRANCH  41  52
ATOM     52  CT  NHS d   1      47.678  18.928   6.467  0.00  0.00     0.196 C 
ATOM     53  O1  NHS d   1      47.629  17.691   6.484  0.00  0.00    -0.646 OA
ATOM     54  O2  NHS d   1      48.818  19.631   6.163  0.00  0.00    -0.646 OA
ENDBRANCH  41  52
ENDBRANCH  39  41
ENDBRANCH   1  37
TORSDOF 11
