REMARK  3 active torsions:
REMARK  status: ('A' for Active; 'I' for Inactive)
REMARK    1  A    between atoms: C1_4  and  B_1 
REMARK    2  A    between atoms: B_1  and  O2_3 
REMARK    3  A    between atoms: B_1  and  O1_2 
ROOT
ATOM      1  C1  BZB d   1      25.723   5.920  15.657  0.00  0.00     0.010 A 
ATOM      2  C2  BZB d   1      25.464   7.261  15.584  0.00  0.00    -0.064 A 
ATOM      3  C8  BZB d   1      24.996   6.528  13.411  0.00  0.00     0.014 A 
ATOM      4  C3  BZB d   1      25.029   7.599  14.242  0.00  0.00    -0.019 A 
ATOM      5  C7  BZB d   1      24.584   6.661  12.020  0.00  0.00    -0.066 A 
ATOM      6  S   BZB d   1      25.467   5.063  14.167  0.00  0.00    -0.101 SA
ATOM      7  C4  BZB d   1      24.658   8.889  13.737  0.00  0.00    -0.072 A 
ATOM      8  C6  BZB d   1      24.222   7.924  11.532  0.00  0.00    -0.082 A 
ATOM      9  C5  BZB d   1      24.256   9.039  12.386  0.00  0.00    -0.082 A 
ATOM     10  H3  BZB d   1      25.568   7.967  16.407  0.00  0.00     0.085 H 
ATOM     11  H4  BZB d   1      24.558   5.794  11.370  0.00  0.00     0.085 H 
ATOM     12  H5  BZB d   1      24.685   9.753  14.391  0.00  0.00     0.084 H 
ATOM     13  H6  BZB d   1      23.917   8.040  10.498  0.00  0.00     0.083 H 
ATOM     14  H7  BZB d   1      23.974  10.016  12.011  0.00  0.00     0.083 H 
ENDROOT
BRANCH   1  15
ATOM     15  B   BZB d   1      26.201   5.164  16.945  0.00  0.00     0.536 B 
BRANCH  15  16
ATOM     16  O2  BZB d   1      25.180   4.177  17.108  0.00  0.00    -0.433 OA
ATOM     17  H2  BZB d   1      24.330   4.601  17.115  0.00  0.00     0.185 HD
ENDBRANCH  15  16
BRANCH  15  18
ATOM     18  O1  BZB d   1      26.315   6.243  17.977  0.00  0.00    -0.433 OA
ATOM     19  H1  BZB d   1      26.486   5.851  18.826  0.00  0.00     0.185 HD
ENDBRANCH  15  18
ENDBRANCH   1  15
TORSDOF 3
