REMARK  11 active torsions:
REMARK  status: ('A' for Active; 'I' for Inactive)
REMARK    1  A    between atoms: C2_2  and  NA2_3 
REMARK    2  A    between atoms: C10_12  and  C9_11 
REMARK    3  A    between atoms: C9_11  and  C6_15 
REMARK    4  A    between atoms: C10_12  and  CA1_13 
REMARK    5  A    between atoms: C14_23  and  C10_12 
REMARK    6  A    between atoms: C11_18  and  C17_19 
REMARK       I    between atoms: C17_19  and  N_25 
REMARK    7  A    between atoms: N_25  and  CA_26 
REMARK    8  A    between atoms: CA_26  and  C_27 
REMARK    9  A    between atoms: CA_26  and  CB_29 
REMARK   10  A    between atoms: CB_29  and  CG_30 
REMARK   11  A    between atoms: CG_30  and  CD_31 
ROOT
ATOM      1  C16 NHR d   1      18.375   5.017  26.723  0.00  0.00    -0.067 A 
ATOM      2  C11 NHR d   1      18.938   6.232  27.174  0.00  0.00     0.032 A 
ATOM      3  C12 NHR d   1      18.991   7.327  26.242  0.00  0.00    -0.067 A 
ATOM      4  C13 NHR d   1      18.480   7.192  24.916  0.00  0.00    -0.075 A 
ATOM      5  C14 NHR d   1      17.922   5.932  24.480  0.00  0.00    -0.043 A 
ATOM      6  C15 NHR d   1      17.867   4.871  25.428  0.00  0.00    -0.075 A 
ATOM      7  H10 NHR d   1      18.336   4.172  27.401  0.00  0.00     0.085 H 
ATOM      8  H11 NHR d   1      19.426   8.270  26.552  0.00  0.00     0.085 H 
ATOM      9  H12 NHR d   1      18.511   8.035  24.235  0.00  0.00     0.084 H 
ATOM     10  H13 NHR d   1      17.420   3.927  25.139  0.00  0.00     0.084 H 
ENDROOT
BRANCH   5  11
ATOM     11  C10 NHR d   1      17.389   5.715  22.972  0.00  0.00     0.059 C 
ATOM     12  H8  NHR d   1      18.228   6.070  22.356  0.00  0.00     0.064 H 
BRANCH  11  13
ATOM     13  C9  NHR d   1      17.245   4.162  22.549  0.00  0.00    -0.025 C 
ATOM     14  H6  NHR d   1      16.824   4.117  21.534  0.00  0.00     0.042 H 
ATOM     15  H7  NHR d   1      16.557   3.673  23.254  0.00  0.00     0.042 H 
BRANCH  13  16
ATOM     16  C6  NHR d   1      18.561   3.400  22.557  0.00  0.00    -0.056 A 
ATOM     17  C7  NHR d   1      18.744   2.320  23.457  0.00  0.00    -0.075 A 
ATOM     18  C8  NHR d   1      19.977   1.648  23.532  0.00  0.00    -0.053 A 
ATOM     19  H5  NHR d   1      17.924   2.009  24.094  0.00  0.00     0.084 H 
ATOM     20  C8A NHR d   1      21.048   2.052  22.709  0.00  0.00     0.091 A 
ATOM     21  H4  NHR d   1      20.104   0.821  24.221  0.00  0.00     0.087 H 
ATOM     22  N1  NHR d   1      22.342   1.378  22.785  0.00  0.00    -0.064 NA
ATOM     23  C4A NHR d   1      20.852   3.152  21.767  0.00  0.00     0.062 A 
ATOM     24  C2  NHR d   1      23.344   1.736  22.022  0.00  0.00     0.701 A 
ATOM     25  N3  NHR d   1      23.217   2.823  21.053  0.00  0.00    -0.154 N 
ATOM     26  C4  NHR d   1      22.050   3.534  20.893  0.00  0.00     0.272 A 
ATOM     27  H3  NHR d   1      24.006   3.058  20.486  0.00  0.00     0.187 HD
ATOM     28  O4  NHR d   1      22.017   4.439  20.061  0.00  0.00    -0.267 OA
ATOM     29  C5  NHR d   1      19.613   3.811  21.711  0.00  0.00    -0.059 A 
ATOM     30  H9  NHR d   1      19.465   4.633  21.020  0.00  0.00     0.086 H 
BRANCH  24  31
ATOM     31  NA2 NHR d   1      24.530   1.080  22.124  0.00  0.00    -0.233 N 
ATOM     32  H1  NHR d   1      24.637   0.312  22.802  0.00  0.00     0.174 HD
ATOM     33  H2  NHR d   1      25.322   1.351  21.524  0.00  0.00     0.174 HD
ENDBRANCH  24  31
ENDBRANCH  13  16
ENDBRANCH  11  13
BRANCH  11  34
ATOM     34  CA1 NHR d   1      16.241   6.609  22.532  0.00  0.00     0.181 C 
ATOM     35  OA1 NHR d   1      16.287   6.938  21.341  0.00  0.00    -0.647 OA
ATOM     36  OA2 NHR d   1      15.819   7.485  23.271  0.00  0.00    -0.647 OA
ENDBRANCH  11  34
ENDBRANCH   5  11
BRANCH   2  37
ATOM     37  C17 NHR d   1      19.510   6.310  28.605  0.00  0.00     0.252 C 
ATOM     38  O17 NHR d   1      20.175   7.294  28.981  0.00  0.00    -0.268 OA
ATOM     39  N   NHR d   1      19.286   5.261  29.467  0.00  0.00    -0.342 N 
ATOM     40  H14 NHR d   1      18.753   4.505  29.088  0.00  0.00     0.163 HD
BRANCH  39  41
ATOM     41  CA  NHR d   1      19.722   5.084  30.887  0.00  0.00     0.097 C 
ATOM     42  H15 NHR d   1      19.515   4.025  31.099  0.00  0.00     0.089 H 
BRANCH  41  43
ATOM     43  C   NHR d   1      18.989   5.860  32.065  0.00  0.00     0.196 C 
ATOM     44  O   NHR d   1      18.491   5.283  33.068  0.00  0.00    -0.646 OA
ATOM     45  OT  NHR d   1      18.931   7.215  31.911  0.00  0.00    -0.646 OA
ENDBRANCH  41  43
BRANCH  41  46
ATOM     46  CB  NHR d   1      21.275   5.252  31.000  0.00  0.00    -0.028 C 
ATOM     47  H16 NHR d   1      21.454   5.997  31.789  0.00  0.00     0.037 H 
ATOM     48  H17 NHR d   1      21.620   5.651  30.035  0.00  0.00     0.037 H 
BRANCH  46  49
ATOM     49  CG  NHR d   1      22.195   4.012  31.331  0.00  0.00     0.018 C 
ATOM     50  H18 NHR d   1      22.646   4.171  32.321  0.00  0.00     0.049 H 
ATOM     51  H19 NHR d   1      22.988   3.958  30.571  0.00  0.00     0.049 H 
BRANCH  49  52
ATOM     52  CD  NHR d   1      21.457   2.675  31.350  0.00  0.00     0.172 C 
ATOM     53  OE1 NHR d   1      20.913   2.176  30.366  0.00  0.00    -0.648 OA
ATOM     54  OE2 NHR d   1      21.506   2.064  32.579  0.00  0.00    -0.648 OA
ENDBRANCH  49  52
ENDBRANCH  46  49
ENDBRANCH  41  46
ENDBRANCH  39  41
ENDBRANCH   2  37
TORSDOF 11
