REMARK  10 active torsions:
REMARK  status: ('A' for Active; 'I' for Inactive)
REMARK    1  A    between atoms: C1_18  and  N9_17 
REMARK    2  A    between atoms: C2_22  and  C1_18 
REMARK    3  A    between atoms: C8_21  and  N10_19 
REMARK    4  A    between atoms: C8_21  and  C5_25 
REMARK    5  A    between atoms: N21_32  and  C23_42 
REMARK    6  A    between atoms: C12_39  and  C13_36 
REMARK    7  A    between atoms: C15_38  and  C16_40 
REMARK    8  A    between atoms: C23_42  and  C24_43 
REMARK    9  A    between atoms: C24_43  and  C31_53 
REMARK   10  A    between atoms: C24_43  and  C25_47 
ROOT
ATOM      1  C17 IH2 d   1      19.773 -14.691  20.114  0.00  0.00     0.040 C 
ATOM      2  N18 IH2 d   1      19.005 -14.879  21.224  0.00  0.00    -0.231 N 
ATOM      3  C20 IH2 d   1      18.748 -16.082  21.782  0.00  0.00     0.347 A 
ATOM      4  O20 IH2 d   1      19.186 -17.212  21.633  0.00  0.00    -0.245 OA
ATOM      5  N21 IH2 d   1      17.836 -15.846  22.680  0.00  0.00    -0.248 N 
ATOM      6  C22 IH2 d   1      17.499 -14.517  22.633  0.00  0.00     0.348 A 
ATOM      7  O22 IH2 d   1      16.708 -14.056  23.309  0.00  0.00    -0.245 OA
ATOM      8  N19 IH2 d   1      18.250 -13.937  21.767  0.00  0.00    -0.219 N 
ATOM      9  C13 IH2 d   1      17.825 -12.806  20.910  0.00  0.00     0.118 C 
ATOM     10  C14 IH2 d   1      18.836 -12.424  20.059  0.00  0.00    -0.068 C 
ATOM     11  C15 IH2 d   1      19.562 -13.292  19.461  0.00  0.00    -0.065 C 
ATOM     12  H18 IH2 d   1      19.518 -15.465  19.375  0.00  0.00     0.074 H 
ATOM     13  H19 IH2 d   1      20.831 -14.790  20.398  0.00  0.00     0.074 H 
ATOM     14  H20 IH2 d   1      17.774 -11.969  21.622  0.00  0.00     0.095 H 
ATOM     15  H21 IH2 d   1      19.022 -11.364  19.891  0.00  0.00     0.081 H 
ENDROOT
BRANCH   9  16
ATOM     16  C12 IH2 d   1      16.340 -12.815  20.323  0.00  0.00     0.180 C 
ATOM     17  N9  IH2 d   1      15.625 -11.694  20.206  0.00  0.00    -0.370 N 
ATOM     18  H1  IH2 d   1      16.032 -10.865  20.590  0.00  0.00     0.161 HD
ATOM     19  O12 IH2 d   1      15.734 -14.072  20.091  0.00  0.00    -0.175 OA
BRANCH  17  20
ATOM     20  C1  IH2 d   1      14.186 -11.531  19.518  0.00  0.00    -0.002 C 
ATOM     21  H2  IH2 d   1      14.065 -12.301  18.742  0.00  0.00     0.064 H 
ATOM     22  H3  IH2 d   1      14.113 -10.534  19.060  0.00  0.00     0.064 H 
BRANCH  20  23
ATOM     23  C2  IH2 d   1      13.185 -11.674  20.464  0.00  0.00    -0.039 C 
ATOM     24  H8  IH2 d   1      12.264 -12.050  19.995  0.00  0.00     0.042 H 
ATOM     25  C3  IH2 d   1      12.900 -10.296  21.090  0.00  0.00    -0.059 C 
ATOM     26  H16 IH2 d   1      12.311  -9.681  20.393  0.00  0.00     0.033 H 
ATOM     27  C4  IH2 d   1      12.172 -10.515  22.270  0.00  0.00    -0.055 C 
ATOM     28  H17 IH2 d   1      13.846  -9.785  21.321  0.00  0.00     0.033 H 
ATOM     29  H14 IH2 d   1      12.725  -9.978  23.055  0.00  0.00     0.034 H 
ATOM     30  H15 IH2 d   1      11.200 -10.026  22.105  0.00  0.00     0.034 H 
ATOM     31  C5  IH2 d   1      11.854 -11.817  22.847  0.00  0.00     0.001 C 
ATOM     32  H13 IH2 d   1      12.644 -11.699  23.604  0.00  0.00     0.051 H 
ATOM     33  C6  IH2 d   1      12.546 -13.047  22.285  0.00  0.00    -0.055 C 
ATOM     34  H11 IH2 d   1      12.859 -13.687  23.123  0.00  0.00     0.034 H 
ATOM     35  H12 IH2 d   1      11.831 -13.594  21.653  0.00  0.00     0.034 H 
ATOM     36  C7  IH2 d   1      13.712 -12.726  21.490  0.00  0.00    -0.059 C 
ATOM     37  H9  IH2 d   1      14.508 -12.297  22.117  0.00  0.00     0.033 H 
ATOM     38  H10 IH2 d   1      14.093 -13.620  20.974  0.00  0.00     0.033 H 
BRANCH  31  39
ATOM     39  C8  IH2 d   1      10.899 -11.917  23.841  0.00  0.00     0.072 C 
ATOM     40  N11 IH2 d   1      10.602 -10.730  24.419  0.00  0.00    -0.389 N 
ATOM     41  H6  IH2 d   1      11.132  -9.885  24.162  0.00  0.00     0.157 HD
ATOM     42  H7  IH2 d   1       9.846 -10.671  25.116  0.00  0.00     0.157 HD
BRANCH  39  43
ATOM     43  N10 IH2 d   1      10.218 -12.983  24.176  0.00  0.00    -0.389 N 
ATOM     44  H4  IH2 d   1       9.528 -12.935  24.939  0.00  0.00     0.157 HD
ATOM     45  H5  IH2 d   1      10.372 -13.870  23.676  0.00  0.00     0.157 HD
ENDBRANCH  39  43
ENDBRANCH  31  39
ENDBRANCH  20  23
ENDBRANCH  17  20
ENDBRANCH   9  16
BRANCH  11  46
ATOM     46  C16 IH2 d   1      20.554 -12.778  18.604  0.00  0.00    -0.053 C 
ATOM     47  H22 IH2 d   1      20.244 -11.789  18.235  0.00  0.00     0.033 H 
ATOM     48  H23 IH2 d   1      20.692 -13.460  17.752  0.00  0.00     0.033 H 
ATOM     49  H24 IH2 d   1      21.501 -12.683  19.155  0.00  0.00     0.033 H 
ENDBRANCH  11  46
BRANCH   5  50
ATOM     50  C23 IH2 d   1      17.395 -16.876  23.528  0.00  0.00     0.020 C 
ATOM     51  H25 IH2 d   1      17.713 -17.857  23.146  0.00  0.00     0.066 H 
ATOM     52  H26 IH2 d   1      16.299 -16.858  23.625  0.00  0.00     0.066 H 
BRANCH  50  53
ATOM     53  C24 IH2 d   1      18.083 -16.567  24.916  0.00  0.00     0.013 C 
ATOM     54  H27 IH2 d   1      17.415 -15.760  25.252  0.00  0.00     0.057 H 
BRANCH  53  55
ATOM     55  C31 IH2 d   1      17.795 -17.599  25.933  0.00  0.00    -0.048 A 
ATOM     56  C32 IH2 d   1      16.911 -17.294  27.085  0.00  0.00    -0.076 A 
ATOM     57  C33 IH2 d   1      16.887 -18.109  28.200  0.00  0.00    -0.082 A 
ATOM     58  H36 IH2 d   1      16.274 -16.418  27.051  0.00  0.00     0.084 H 
ATOM     59  C34 IH2 d   1      17.703 -19.243  28.147  0.00  0.00    -0.083 A 
ATOM     60  H37 IH2 d   1      16.273 -17.883  29.064  0.00  0.00     0.083 H 
ATOM     61  C35 IH2 d   1      18.560 -19.623  26.991  0.00  0.00    -0.082 A 
ATOM     62  H33 IH2 d   1      17.712 -19.895  29.013  0.00  0.00     0.083 H 
ATOM     63  C36 IH2 d   1      18.577 -18.799  25.918  0.00  0.00    -0.076 A 
ATOM     64  H34 IH2 d   1      19.152 -20.531  27.008  0.00  0.00     0.083 H 
ATOM     65  H35 IH2 d   1      19.179 -19.046  25.051  0.00  0.00     0.084 H 
ENDBRANCH  53  55
BRANCH  53  66
ATOM     66  C25 IH2 d   1      19.472 -15.804  25.109  0.00  0.00    -0.048 A 
ATOM     67  C26 IH2 d   1      20.537 -16.448  24.720  0.00  0.00    -0.076 A 
ATOM     68  C27 IH2 d   1      21.885 -15.862  24.949  0.00  0.00    -0.082 A 
ATOM     69  H31 IH2 d   1      20.440 -17.410  24.230  0.00  0.00     0.084 H 
ATOM     70  C28 IH2 d   1      22.198 -14.601  25.662  0.00  0.00    -0.083 A 
ATOM     71  H32 IH2 d   1      22.728 -16.416  24.552  0.00  0.00     0.083 H 
ATOM     72  C29 IH2 d   1      21.155 -13.953  26.043  0.00  0.00    -0.082 A 
ATOM     73  H28 IH2 d   1      23.210 -14.258  25.845  0.00  0.00     0.083 H 
ATOM     74  C30 IH2 d   1      19.811 -14.535  25.781  0.00  0.00    -0.076 A 
ATOM     75  H29 IH2 d   1      21.253 -12.998  26.547  0.00  0.00     0.083 H 
ATOM     76  H30 IH2 d   1      18.969 -13.949  26.130  0.00  0.00     0.084 H 
ENDBRANCH  53  66
ENDBRANCH  50  53
ENDBRANCH   5  50
TORSDOF 10
