REMARK  9 active torsions:
REMARK  status: ('A' for Active; 'I' for Inactive)
REMARK    1  A    between atoms: C5_12  and  C1_1 
REMARK    2  A    between atoms: C3_3  and  NB_6 
REMARK    3  A    between atoms: N10_7  and  C8_9 
REMARK       I    between atoms: C11_26  and  N10_7 
REMARK    4  A    between atoms: N20_14  and  C22_29 
REMARK    5  A    between atoms: C14_22  and  C15_25 
REMARK    6  A    between atoms: C12_24  and  C11_26 
REMARK    7  A    between atoms: C22_29  and  C23_28 
REMARK    8  A    between atoms: C23_28  and  C24_30 
REMARK    9  A    between atoms: C23_28  and  C30_36 
ROOT
ATOM      1  N20 IH3 d   1      33.076  49.052  -2.208  0.00  0.00    -0.248 N 
ATOM      2  C19 IH3 d   1      33.751  50.219  -1.862  0.00  0.00     0.347 A 
ATOM      3  O19 IH3 d   1      35.005  50.312  -1.728  0.00  0.00    -0.245 OA
ATOM      4  N17 IH3 d   1      32.757  51.170  -1.610  0.00  0.00    -0.231 N 
ATOM      5  N18 IH3 d   1      31.486  50.567  -1.893  0.00  0.00    -0.218 N 
ATOM      6  C21 IH3 d   1      31.717  49.264  -2.303  0.00  0.00     0.348 A 
ATOM      7  O21 IH3 d   1      30.853  48.416  -2.598  0.00  0.00    -0.245 OA
ATOM      8  C16 IH3 d   1      32.911  52.516  -1.258  0.00  0.00     0.040 C 
ATOM      9  C14 IH3 d   1      31.555  53.247  -1.227  0.00  0.00    -0.065 C 
ATOM     10  C13 IH3 d   1      30.357  52.645  -1.496  0.00  0.00    -0.067 C 
ATOM     11  C12 IH3 d   1      30.338  51.293  -2.231  0.00  0.00     0.131 C 
ATOM     12  H16 IH3 d   1      33.565  53.006  -1.994  0.00  0.00     0.074 H 
ATOM     13  H17 IH3 d   1      33.372  52.575  -0.261  0.00  0.00     0.074 H 
ATOM     14  H18 IH3 d   1      29.424  53.118  -1.193  0.00  0.00     0.081 H 
ATOM     15  H19 IH3 d   1      29.480  50.718  -1.853  0.00  0.00     0.097 H 
ENDROOT
BRANCH  11  16
ATOM     16  C11 IH3 d   1      30.104  51.494  -3.653  0.00  0.00     0.246 C 
ATOM     17  N10 IH3 d   1      29.062  50.846  -4.202  0.00  0.00    -0.354 N 
ATOM     18  H5  IH3 d   1      28.395  50.327  -3.667  0.00  0.00     0.162 HD
ATOM     19  O11 IH3 d   1      30.907  52.159  -4.314  0.00  0.00    -0.271 OA
BRANCH  17  20
ATOM     20  C8  IH3 d   1      29.009  50.955  -5.439  0.00  0.00     0.012 C 
ATOM     21  C7  IH3 d   1      27.585  51.606  -5.760  0.00  0.00    -0.045 C 
ATOM     22  C6  IH3 d   1      26.350  50.783  -5.097  0.00  0.00    -0.055 C 
ATOM     23  H6  IH3 d   1      27.447  51.628  -6.851  0.00  0.00     0.036 H 
ATOM     24  H7  IH3 d   1      27.572  52.634  -5.368  0.00  0.00     0.036 H 
ATOM     25  C5  IH3 d   1      26.589  49.325  -4.769  0.00  0.00    -0.012 C 
ATOM     26  H14 IH3 d   1      25.505  50.830  -5.800  0.00  0.00     0.034 H 
ATOM     27  H15 IH3 d   1      26.077  51.292  -4.161  0.00  0.00     0.034 H 
ATOM     28  C4  IH3 d   1      27.604  48.700  -5.817  0.00  0.00    -0.055 C 
ATOM     29  H13 IH3 d   1      27.011  49.245  -3.756  0.00  0.00     0.049 H 
ATOM     30  C9  IH3 d   1      28.978  49.454  -5.854  0.00  0.00    -0.045 C 
ATOM     31  H11 IH3 d   1      27.786  47.650  -5.546  0.00  0.00     0.034 H 
ATOM     32  H12 IH3 d   1      27.150  48.747  -6.818  0.00  0.00     0.034 H 
ATOM     33  H9  IH3 d   1      29.663  48.916  -5.182  0.00  0.00     0.036 H 
ATOM     34  H10 IH3 d   1      29.355  49.394  -6.886  0.00  0.00     0.036 H 
ATOM     35  H8  IH3 d   1      29.843  51.520  -5.881  0.00  0.00     0.072 H 
BRANCH  25  36
ATOM     36  C1  IH3 d   1      25.345  48.591  -4.832  0.00  0.00     0.049 A 
ATOM     37  NC  IH3 d   1      24.507  48.316  -3.752  0.00  0.00    -0.192 N 
ATOM     38  C3  IH3 d   1      23.447  47.607  -4.192  0.00  0.00     0.698 A 
ATOM     39  H1  IH3 d   1      24.671  48.607  -2.777  0.00  0.00     0.184 HD
ATOM     40  NA  IH3 d   1      23.597  47.430  -5.507  0.00  0.00    -0.075 NA
ATOM     41  C2  IH3 d   1      24.742  48.016  -5.925  0.00  0.00     0.043 A 
ATOM     42  H2  IH3 d   1      25.119  48.030  -6.947  0.00  0.00     0.118 H 
BRANCH  38  43
ATOM     43  NB  IH3 d   1      22.440  47.161  -3.460  0.00  0.00    -0.233 N 
ATOM     44  H3  IH3 d   1      21.679  46.627  -3.902  0.00  0.00     0.174 HD
ATOM     45  H4  IH3 d   1      22.417  47.348  -2.447  0.00  0.00     0.174 HD
ENDBRANCH  38  43
ENDBRANCH  25  36
ENDBRANCH  17  20
ENDBRANCH  11  16
BRANCH   9  46
ATOM     46  C15 IH3 d   1      31.519  54.761  -0.868  0.00  0.00    -0.053 C 
ATOM     47  H20 IH3 d   1      30.479  55.119  -0.893  0.00  0.00     0.033 H 
ATOM     48  H21 IH3 d   1      32.118  55.325  -1.597  0.00  0.00     0.033 H 
ATOM     49  H22 IH3 d   1      31.934  54.909   0.140  0.00  0.00     0.033 H 
ENDBRANCH   9  46
BRANCH   1  50
ATOM     50  C22 IH3 d   1      33.859  47.582  -2.643  0.00  0.00     0.020 C 
ATOM     51  H24 IH3 d   1      34.951  47.705  -2.588  0.00  0.00     0.066 H 
ATOM     52  H25 IH3 d   1      33.574  47.290  -3.664  0.00  0.00     0.066 H 
BRANCH  50  53
ATOM     53  C23 IH3 d   1      33.409  46.544  -1.668  0.00  0.00     0.013 C 
ATOM     54  H23 IH3 d   1      32.326  46.407  -1.801  0.00  0.00     0.057 H 
BRANCH  53  55
ATOM     55  C24 IH3 d   1      33.617  47.011  -0.225  0.00  0.00    -0.048 A 
ATOM     56  C25 IH3 d   1      32.469  46.998   0.633  0.00  0.00    -0.076 A 
ATOM     57  C26 IH3 d   1      32.591  47.467   2.017  0.00  0.00    -0.082 A 
ATOM     58  H26 IH3 d   1      31.515  46.643   0.261  0.00  0.00     0.084 H 
ATOM     59  C27 IH3 d   1      33.863  47.973   2.597  0.00  0.00    -0.083 A 
ATOM     60  H27 IH3 d   1      31.710  47.444   2.648  0.00  0.00     0.083 H 
ATOM     61  C28 IH3 d   1      35.048  48.004   1.742  0.00  0.00    -0.082 A 
ATOM     62  H28 IH3 d   1      33.910  48.310   3.626  0.00  0.00     0.083 H 
ATOM     63  C29 IH3 d   1      34.926  47.526   0.340  0.00  0.00    -0.076 A 
ATOM     64  H29 IH3 d   1      35.996  48.368   2.122  0.00  0.00     0.083 H 
ATOM     65  H30 IH3 d   1      35.801  47.546  -0.299  0.00  0.00     0.084 H 
ENDBRANCH  53  55
BRANCH  53  66
ATOM     66  C30 IH3 d   1      34.078  45.204  -2.016  0.00  0.00    -0.048 A 
ATOM     67  C31 IH3 d   1      33.228  44.103  -2.444  0.00  0.00    -0.076 A 
ATOM     68  C32 IH3 d   1      33.904  42.689  -2.766  0.00  0.00    -0.082 A 
ATOM     69  H31 IH3 d   1      32.157  44.238  -2.543  0.00  0.00     0.084 H 
ATOM     70  C33 IH3 d   1      35.328  42.415  -2.651  0.00  0.00    -0.083 A 
ATOM     71  H32 IH3 d   1      33.258  41.882  -3.091  0.00  0.00     0.083 H 
ATOM     72  C34 IH3 d   1      36.170  43.507  -2.252  0.00  0.00    -0.082 A 
ATOM     73  H33 IH3 d   1      35.735  41.431  -2.857  0.00  0.00     0.083 H 
ATOM     74  C35 IH3 d   1      35.590  44.866  -1.927  0.00  0.00    -0.076 A 
ATOM     75  H34 IH3 d   1      37.241  43.355  -2.182  0.00  0.00     0.083 H 
ATOM     76  H35 IH3 d   1      36.270  45.650  -1.614  0.00  0.00     0.084 H 
ENDBRANCH  53  66
ENDBRANCH  50  53
ENDBRANCH   1  50
TORSDOF 9
