REMARK  6 active torsions:
REMARK  status: ('A' for Active; 'I' for Inactive)
REMARK    1  A    between atoms: C8_10  and  C9_11 
REMARK       I    between atoms: C9_11  and  N2_13 
REMARK    2  A    between atoms: N2_13  and  C10_14 
REMARK    3  A    between atoms: C10_14  and  C11_15 
REMARK    4  A    between atoms: C10_14  and  C17_24 
REMARK       I    between atoms: C11_15  and  N3_17 
REMARK    5  A    between atoms: C14_20  and  O3_21 
REMARK    6  A    between atoms: C17_24  and  C18_25 
ROOT
ATOM      1  C10 CHI d   1      18.742  12.910  57.908  0.00  0.00     0.083 C 
ATOM      2  H7  CHI d   1      18.271  13.895  57.773  0.00  0.00     0.081 H 
ENDROOT
BRANCH   1   3
ATOM      3  N2  CHI d   1      18.478  12.082  56.683  0.00  0.00    -0.346 N 
ATOM      4  C9  CHI d   1      18.849  12.548  55.436  0.00  0.00     0.268 C 
ATOM      5  O1  CHI d   1      19.355  13.632  55.253  0.00  0.00    -0.266 OA
ATOM      6  H6  CHI d   1      18.032  11.191  56.770  0.00  0.00     0.163 HD
BRANCH   4   7
ATOM      7  C8  CHI d   1      18.659  11.793  54.170  0.00  0.00     0.102 A 
ATOM      8  N1  CHI d   1      18.997  12.126  52.952  0.00  0.00    -0.351 N 
ATOM      9  C4  CHI d   1      18.716  11.157  52.092  0.00  0.00     0.043 A 
ATOM     10  H3  CHI d   1      19.427  13.026  52.694  0.00  0.00     0.166 HD
ATOM     11  C3  CHI d   1      18.996  11.208  50.635  0.00  0.00    -0.055 A 
ATOM     12  C5  CHI d   1      18.110  10.113  52.696  0.00  0.00    -0.005 A 
ATOM     13  C2  CHI d   1      18.584  10.027  49.905  0.00  0.00    -0.060 A 
ATOM     14  H2  CHI d   1      19.469  12.058  50.157  0.00  0.00     0.087 H 
ATOM     15  C1  CHI d   1      17.962   8.986  50.559  0.00  0.00     0.035 A 
ATOM     16  H1  CHI d   1      18.766   9.962  48.838  0.00  0.00     0.086 H 
ATOM     17 CL1  CHI d   1      17.496   7.685  49.605  0.00  0.00    -0.084 Cl
ATOM     18  C6  CHI d   1      17.668   8.962  51.994  0.00  0.00    -0.050 A 
ATOM     19  H4  CHI d   1      17.157   8.137  52.477  0.00  0.00     0.087 H 
ATOM     20  C7  CHI d   1      18.015  10.430  54.104  0.00  0.00    -0.040 A 
ATOM     21  H5  CHI d   1      17.588   9.836  54.911  0.00  0.00     0.088 H 
ENDBRANCH   4   7
ENDBRANCH   1   3
BRANCH   1  22
ATOM     22  C11 CHI d   1      20.262  13.089  58.133  0.00  0.00     0.376 C 
ATOM     23  O2  CHI d   1      21.001  11.968  58.317  0.00  0.00    -0.186 OA
ATOM     24  N3  CHI d   1      20.890  14.286  58.174  0.00  0.00     0.134 N 
ATOM     25  C12 CHI d   1      19.924  15.397  58.474  0.00  0.00     0.120 C 
ATOM     26  C16 CHI d   1      22.016  14.197  59.175  0.00  0.00     0.120 C 
ATOM     27  C13 CHI d   1      20.669  16.752  58.552  0.00  0.00    -0.016 C 
ATOM     28  H8  CHI d   1      19.431  15.198  59.437  0.00  0.00     0.080 H 
ATOM     29  H9  CHI d   1      19.167  15.445  57.677  0.00  0.00     0.080 H 
ATOM     30  C14 CHI d   1      21.785  16.690  59.643  0.00  0.00     0.039 C 
ATOM     31  H10 CHI d   1      19.953  17.546  58.809  0.00  0.00     0.039 H 
ATOM     32  H11 CHI d   1      21.126  16.972  57.576  0.00  0.00     0.039 H 
ATOM     33  C15 CHI d   1      22.775  15.555  59.310  0.00  0.00    -0.016 C 
ATOM     34  H12 CHI d   1      21.311  16.478  60.612  0.00  0.00     0.083 H 
ATOM     35  H14 CHI d   1      23.520  15.476  60.115  0.00  0.00     0.039 H 
ATOM     36  H15 CHI d   1      23.283  15.783  58.361  0.00  0.00     0.039 H 
ATOM     37  H16 CHI d   1      22.725  13.423  58.846  0.00  0.00     0.080 H 
ATOM     38  H17 CHI d   1      21.601  13.921  60.156  0.00  0.00     0.080 H 
BRANCH  30  39
ATOM     39  O3  CHI d   1      22.508  17.930  59.751  0.00  0.00    -0.395 OA
ATOM     40  H13 CHI d   1      22.919  18.129  58.918  0.00  0.00     0.210 HD
ENDBRANCH  30  39
ENDBRANCH   1  22
BRANCH   1  41
ATOM     41  C17 CHI d   1      18.155  12.217  59.229  0.00  0.00    -0.017 C 
ATOM     42  H18 CHI d   1      18.644  11.241  59.362  0.00  0.00     0.043 H 
ATOM     43  H19 CHI d   1      17.073  12.070  59.099  0.00  0.00     0.043 H 
BRANCH  41  44
ATOM     44  C18 CHI d   1      18.393  13.072  60.504  0.00  0.00    -0.056 A 
ATOM     45  C19 CHI d   1      17.586  14.197  60.874  0.00  0.00    -0.074 A 
ATOM     46  C20 CHI d   1      17.887  14.917  62.045  0.00  0.00    -0.045 A 
ATOM     47  H20 CHI d   1      16.747  14.492  60.254  0.00  0.00     0.084 H 
ATOM     48  C21 CHI d   1      19.010  14.519  62.847  0.00  0.00     0.116 A 
ATOM     49  H21 CHI d   1      17.277  15.764  62.339  0.00  0.00     0.088 H 
ATOM     50  F1  CHI d   1      19.328  15.194  63.946  0.00  0.00    -0.206 F 
ATOM     51  C22 CHI d   1      19.801  13.402  62.476  0.00  0.00    -0.045 A 
ATOM     52  C23 CHI d   1      19.495  12.704  61.327  0.00  0.00    -0.074 A 
ATOM     53  H22 CHI d   1      20.640  13.099  63.091  0.00  0.00     0.088 H 
ATOM     54  H23 CHI d   1      20.108  11.856  61.044  0.00  0.00     0.084 H 
ENDBRANCH  41  44
ENDBRANCH   1  41
TORSDOF 6
