REMARK WARNING: 32 MAX_TORS EXCEEDED!!!
REMARK  40 active torsions:
REMARK  status: ('A' for Active; 'I' for Inactive)
REMARK    1  A    between atoms: N_1  and  CN_2 
REMARK    2  A    between atoms: CA_3  and  CB_6 
REMARK    3  A    between atoms: CB_6  and  OG1_7 
REMARK    4  A    between atoms: CB_6  and  CG2_8 
REMARK    5  A    between atoms: CG2_8  and  CD1_9 
REMARK    6  A    between atoms: CG2_8  and  CD2_10 
REMARK    7  A    between atoms: CD2_10  and  CE_11 
REMARK    8  A    between atoms: CZ_12  and  CH_13 
REMARK    9  A    between atoms: CA_15  and  CB_18 
REMARK   10  A    between atoms: CB_18  and  CG_19 
REMARK   11  A    between atoms: N_20  and  CN_24 
REMARK   12  A    between atoms: N_25  and  CN_26 
REMARK   13  A    between atoms: CA_27  and  CB_28 
REMARK   14  A    between atoms: CB_28  and  CG_29 
REMARK   15  A    between atoms: CG_29  and  CD1_30 
REMARK   16  A    between atoms: CG_29  and  CD2_31 
REMARK   17  A    between atoms: CA_35  and  CB_38 
REMARK   18  A    between atoms: CB_38  and  CG1_39 
REMARK   19  A    between atoms: CB_38  and  CG2_40 
REMARK   20  A    between atoms: N_41  and  CN_42 
REMARK   21  A    between atoms: CA_43  and  CB_44 
REMARK   22  A    between atoms: CB_44  and  CG_45 
REMARK   23  A    between atoms: CG_45  and  CD1_46 
REMARK   24  A    between atoms: CG_45  and  CD2_47 
REMARK   25  A    between atoms: CA_51  and  CB_54 
REMARK   26  A    between atoms: CA_56  and  CB_57 
REMARK   27  A    between atoms: N_60  and  CN_61 
REMARK   28  A    between atoms: CA_62  and  CB_63 
REMARK   29  A    between atoms: CB_63  and  CG_64 
REMARK   30  A    between atoms: CG_64  and  CD1_65 
REMARK   31  A    between atoms: CG_64  and  CD2_66 
REMARK   32  A    between atoms: N_69  and  CN_70 
REMARK   33  A    between atoms: CA_71  and  CB_72 
REMARK   34  A    between atoms: CB_72  and  CG_73 
REMARK   35  A    between atoms: CG_73  and  CD1_74 
REMARK   36  A    between atoms: CG_73  and  CD2_75 
REMARK   37  A    between atoms: N_78  and  CN_79 
REMARK   38  A    between atoms: CA_80  and  CB_81 
REMARK   39  A    between atoms: CB_81  and  CG1_82 
REMARK   40  A    between atoms: CB_81  and  CG2_83 
ROOT
ATOM      1  N   BMT d   1      -4.044  -8.498  47.434  0.00  0.00    -0.339 N 
ATOM      2  CA  BMT d   1      -5.281  -7.759  47.198  0.00  0.00     0.116 C 
ATOM      3  C   BMT d   1      -6.215  -7.682  48.405  0.00  0.00     0.243 C 
ATOM      4  O   BMT d   1      -6.025  -8.378  49.409  0.00  0.00    -0.271 OA
ATOM      5  H4  BMT d   1      -4.988  -6.728  46.952  0.00  0.00     0.091 H 
ATOM      6  N   ABA d   1      -7.234  -6.836  48.293  0.00  0.00    -0.346 N 
ATOM      7  CA  ABA d   1      -8.175  -6.635  49.385  0.00  0.00     0.089 C 
ATOM      8  C   ABA d   1      -9.608  -7.008  49.001  0.00  0.00     0.242 C 
ATOM      9  O   ABA d   1     -10.406  -6.128  48.666  0.00  0.00    -0.271 OA
ATOM     10  H18 ABA d   1      -7.357  -6.327  47.441  0.00  0.00     0.163 HD
ATOM     11  H19 ABA d   1      -7.868  -7.270  50.229  0.00  0.00     0.087 H 
ATOM     12  N   SAR d   1      -9.938  -8.300  49.064  0.00  0.00    -0.346 N 
ATOM     13  CA  SAR d   1     -11.282  -8.729  48.703  0.00  0.00     0.071 C 
ATOM     14  C   SAR d   1     -11.249  -9.964  47.809  0.00  0.00     0.238 C 
ATOM     15  O   SAR d   1     -11.690 -11.044  48.210  0.00  0.00    -0.272 OA
ATOM     16  H25 SAR d   1     -11.787  -7.912  48.167  0.00  0.00     0.079 H 
ATOM     17  H26 SAR d   1     -11.841  -8.966  49.620  0.00  0.00     0.079 H 
ATOM     18  N   MLE d   1     -10.723  -9.822  46.595  0.00  0.00    -0.342 N 
ATOM     19  CA  MLE d   1     -10.648 -10.966  45.702  0.00  0.00     0.091 C 
ATOM     20  C   MLE d   1      -9.237 -11.520  45.712  0.00  0.00     0.241 C 
ATOM     21  O   MLE d   1      -8.389 -11.115  44.913  0.00  0.00    -0.271 OA
ATOM     22  N   MLE d   1      -6.319 -14.033  44.938  0.00  0.00    -0.341 N 
ATOM     23  CA  MLE d   1      -6.010 -15.013  43.900  0.00  0.00     0.091 C 
ATOM     24  C   MLE d   1      -4.876 -15.883  44.419  0.00  0.00     0.241 C 
ATOM     25  O   MLE d   1      -4.336 -15.627  45.492  0.00  0.00    -0.271 OA
ATOM     26  N   MLE d   1       1.255 -15.067  44.050  0.00  0.00    -0.341 N 
ATOM     27  CA  MLE d   1       1.829 -14.041  44.911  0.00  0.00     0.091 C 
ATOM     28  C   MLE d   1       1.275 -12.625  44.713  0.00  0.00     0.243 C 
ATOM     29  O   MLE d   1       1.998 -11.733  44.268  0.00  0.00    -0.271 OA
ATOM     30  N   MLE d   1       0.000 -12.413  45.027  0.00  0.00    -0.341 N 
ATOM     31  CA  MLE d   1      -0.566 -11.071  44.898  0.00  0.00     0.091 C 
ATOM     32  C   MLE d   1      -1.008 -10.554  46.273  0.00  0.00     0.243 C 
ATOM     33  O   MLE d   1      -1.164 -11.338  47.215  0.00  0.00    -0.271 OA
ATOM     34  H33 MLE d   1     -11.343 -11.741  46.057  0.00  0.00     0.087 H 
ATOM     35  H55 MLE d   1      -6.897 -15.634  43.706  0.00  0.00     0.087 H 
ATOM     36  H78 MLE d   1       1.613 -14.332  45.950  0.00  0.00     0.087 H 
ATOM     37  H91 MLE d   1       0.206 -10.399  44.495  0.00  0.00     0.087 H 
ATOM     38  N   VAL d   1      -8.982 -12.448  46.622  0.00  0.00    -0.346 N 
ATOM     39  CA  VAL d   1      -7.664 -13.043  46.717  0.00  0.00     0.092 C 
ATOM     40  C   VAL d   1      -7.448 -14.112  45.640  0.00  0.00     0.243 C 
ATOM     41  O   VAL d   1      -8.298 -14.987  45.445  0.00  0.00    -0.271 OA
ATOM     42  H43 VAL d   1      -9.705 -12.740  47.248  0.00  0.00     0.163 HD
ATOM     43  H44 VAL d   1      -6.917 -12.248  46.575  0.00  0.00     0.088 H 
ATOM     44  N   ALA d   1      -4.526 -16.919  43.671  0.00  0.00    -0.346 N 
ATOM     45  CA  ALA d   1      -3.443 -17.797  44.078  0.00  0.00     0.086 C 
ATOM     46  C   ALA d   1      -2.124 -17.186  43.613  0.00  0.00     0.240 C 
ATOM     47  O   ALA d   1      -2.121 -16.183  42.900  0.00  0.00    -0.271 OA
ATOM     48  H65 ALA d   1      -5.013 -17.099  42.816  0.00  0.00     0.163 HD
ATOM     49  H66 ALA d   1      -3.437 -17.890  45.174  0.00  0.00     0.086 H 
ATOM     50  N   DAL d   1      -1.011 -17.786  44.020  0.00  0.00    -0.346 N 
ATOM     51  CA  DAL d   1       0.305 -17.287  43.622  0.00  0.00     0.086 C 
ATOM     52  C   DAL d   1       0.833 -16.215  44.585  0.00  0.00     0.242 C 
ATOM     53  O   DAL d   1       0.831 -16.416  45.801  0.00  0.00    -0.271 OA
ATOM     54  H70 DAL d   1      -1.074 -18.592  44.608  0.00  0.00     0.163 HD
ATOM     55  H71 DAL d   1       0.213 -16.839  42.622  0.00  0.00     0.086 H 
ATOM     56  N   MVA d   1      -1.181  -9.239  46.407  0.00  0.00    -0.341 N 
ATOM     57  CA  MVA d   1      -1.637  -8.693  47.683  0.00  0.00     0.094 C 
ATOM     58  C   MVA d   1      -2.887  -7.849  47.450  0.00  0.00     0.243 C 
ATOM     59  O   MVA d   1      -2.807  -6.632  47.288  0.00  0.00    -0.271 OA
ATOM     60 4H10 MVA d   1      -1.882  -9.530  48.354  0.00  0.00     0.088 H 
ENDROOT
BRANCH   2  61
ATOM     61  CB  BMT d   1      -6.064  -8.329  45.980  0.00  0.00     0.067 C 
ATOM     62  H5  BMT d   1      -6.942  -7.693  45.794  0.00  0.00     0.087 H 
BRANCH  61  63
ATOM     63  OG1 BMT d   1      -6.507  -9.664  46.257  0.00  0.00    -0.393 OA
ATOM     64  H6  BMT d   1      -6.983 -10.001  45.507  0.00  0.00     0.210 HD
ENDBRANCH  61  63
BRANCH  61  65
ATOM     65  CG2 BMT d   1      -5.171  -8.328  44.723  0.00  0.00    -0.027 C 
ATOM     66  H7  BMT d   1      -4.299  -8.975  44.901  0.00  0.00     0.043 H 
BRANCH  65  67
ATOM     67  CD1 BMT d   1      -4.688  -6.919  44.426  0.00  0.00    -0.070 C 
ATOM     68  H8  BMT d   1      -4.053  -6.931  43.528  0.00  0.00     0.028 H 
ATOM     69  H9  BMT d   1      -4.107  -6.543  45.281  0.00  0.00     0.028 H 
ATOM     70  H10 BMT d   1      -5.554  -6.263  44.254  0.00  0.00     0.028 H 
ENDBRANCH  65  67
BRANCH  65  71
ATOM     71  CD2 BMT d   1      -5.965  -8.874  43.527  0.00  0.00    -0.045 C 
ATOM     72  H11 BMT d   1      -6.197  -9.931  43.724  0.00  0.00     0.039 H 
ATOM     73  H12 BMT d   1      -5.331  -8.798  42.632  0.00  0.00     0.039 H 
BRANCH  71  74
ATOM     74  CE  BMT d   1      -7.280  -8.143  43.243  0.00  0.00    -0.106 C 
ATOM     75  CZ  BMT d   1      -8.235  -8.662  42.333  0.00  0.00    -0.110 C 
ATOM     76  H14 BMT d   1      -8.034  -9.593  41.806  0.00  0.00     0.075 H 
ATOM     77  H13 BMT d   1      -7.486  -7.203  43.752  0.00  0.00     0.076 H 
BRANCH  75  78
ATOM     78  CH  BMT d   1      -9.541  -7.919  42.092  0.00  0.00    -0.060 C 
ATOM     79  H15 BMT d   1     -10.148  -8.472  41.360  0.00  0.00     0.032 H 
ATOM     80  H16 BMT d   1      -9.324  -6.913  41.703  0.00  0.00     0.032 H 
ATOM     81  H17 BMT d   1     -10.095  -7.835  43.038  0.00  0.00     0.032 H 
ENDBRANCH  75  78
ENDBRANCH  71  74
ENDBRANCH  65  71
ENDBRANCH  61  65
ENDBRANCH   2  61
BRANCH   1  82
ATOM     82  CN  BMT d   1      -4.073  -9.982  47.677  0.00  0.00    -0.015 C 
ATOM     83  H1  BMT d   1      -5.111 -10.342  47.626  0.00  0.00     0.056 H 
ATOM     84  H2  BMT d   1      -3.659 -10.199  48.673  0.00  0.00     0.056 H 
ATOM     85  H3  BMT d   1      -3.470 -10.491  46.910  0.00  0.00     0.056 H 
ENDBRANCH   1  82
BRANCH  57  86
ATOM     86  CB  MVA d   1      -0.569  -7.810  48.363  0.00  0.00    -0.033 C 
ATOM     87 5H10 MVA d   1      -0.436  -6.892  47.771  0.00  0.00     0.042 H 
BRANCH  86  88
ATOM     88  CG1 MVA d   1      -1.040  -7.430  49.765  0.00  0.00    -0.071 C 
ATOM     89 6H10 MVA d   1      -0.279  -6.801  50.249  0.00  0.00     0.028 H 
ATOM     90 7H10 MVA d   1      -1.194  -8.342  50.360  0.00  0.00     0.028 H 
ATOM     91 8H10 MVA d   1      -1.986  -6.873  49.696  0.00  0.00     0.028 H 
ENDBRANCH  86  88
BRANCH  86  92
ATOM     92  CG2 MVA d   1       0.767  -8.548  48.429  0.00  0.00    -0.071 C 
ATOM     93 9H10 MVA d   1       1.090  -8.813  47.411  0.00  0.00     0.028 H 
ATOM     94 0H11 MVA d   1       0.651  -9.464  49.027  0.00  0.00     0.028 H 
ATOM     95 1H11 MVA d   1       1.522  -7.898  48.896  0.00  0.00     0.028 H 
ENDBRANCH  86  92
ENDBRANCH  57  86
BRANCH   7  96
ATOM     96  CB  ABA d   1      -8.124  -5.169  49.821  0.00  0.00    -0.041 C 
ATOM     97  H20 ABA d   1      -8.589  -5.085  50.814  0.00  0.00     0.036 H 
ATOM     98  H21 ABA d   1      -8.696  -4.571  49.097  0.00  0.00     0.036 H 
BRANCH  96  99
ATOM     99  CG  ABA d   1      -6.717  -4.609  49.901  0.00  0.00    -0.074 C 
ATOM    100  H22 ABA d   1      -6.759  -3.557  50.219  0.00  0.00     0.027 H 
ATOM    101  H23 ABA d   1      -6.239  -4.675  48.912  0.00  0.00     0.027 H 
ATOM    102  H24 ABA d   1      -6.132  -5.189  50.630  0.00  0.00     0.027 H 
ENDBRANCH  96  99
ENDBRANCH   7  96
BRANCH  56 103
ATOM    103  CN  MVA d   1      -0.809  -8.306  45.294  0.00  0.00    -0.015 C 
ATOM    104 1H10 MVA d   1      -0.492  -8.889  44.417  0.00  0.00     0.056 H 
ATOM    105 2H10 MVA d   1       0.017  -7.657  45.620  0.00  0.00     0.056 H 
ATOM    106 3H10 MVA d   1      -1.679  -7.688  45.028  0.00  0.00     0.056 H 
ENDBRANCH  56 103
BRANCH  12 107
ATOM    107  CN  SAR d   1      -8.915  -9.332  49.453  0.00  0.00    -0.015 C 
ATOM    108  H27 SAR d   1      -7.964  -8.834  49.692  0.00  0.00     0.056 H 
ATOM    109  H28 SAR d   1      -8.763 -10.031  48.617  0.00  0.00     0.056 H 
ATOM    110  H29 SAR d   1      -9.270  -9.886  50.334  0.00  0.00     0.056 H 
ENDBRANCH  12 107
BRANCH  31 111
ATOM    111  CB  MLE d   1      -1.764 -11.080  43.941  0.00  0.00    -0.035 C 
ATOM    112  H92 MLE d   1      -2.178 -10.061  43.924  0.00  0.00     0.037 H 
ATOM    113  H93 MLE d   1      -2.511 -11.773  44.356  0.00  0.00     0.037 H 
BRANCH 111 114
ATOM    114  CG  MLE d   1      -1.512 -11.497  42.484  0.00  0.00    -0.059 C 
ATOM    115  H94 MLE d   1      -1.107 -12.520  42.468  0.00  0.00     0.038 H 
BRANCH 114 116
ATOM    116  CD1 MLE d   1      -2.828 -11.470  41.710  0.00  0.00    -0.073 C 
ATOM    117  H95 MLE d   1      -2.646 -11.769  40.667  0.00  0.00     0.028 H 
ATOM    118  H96 MLE d   1      -3.246 -10.453  41.732  0.00  0.00     0.028 H 
ATOM    119  H97 MLE d   1      -3.540 -12.169  42.173  0.00  0.00     0.028 H 
ENDBRANCH 114 116
BRANCH 114 120
ATOM    120  CD2 MLE d   1      -0.506 -10.557  41.839  0.00  0.00    -0.073 C 
ATOM    121  H98 MLE d   1       0.437 -10.585  42.405  0.00  0.00     0.028 H 
ATOM    122  H99 MLE d   1      -0.906  -9.532  41.844  0.00  0.00     0.028 H 
ATOM    123 0H10 MLE d   1      -0.321 -10.874  40.802  0.00  0.00     0.028 H 
ENDBRANCH 114 120
ENDBRANCH 111 114
ENDBRANCH  31 111
BRANCH  30 124
ATOM    124  CN  MLE d   1      -0.894 -13.572  45.373  0.00  0.00    -0.015 C 
ATOM    125  H88 MLE d   1      -0.296 -14.493  45.426  0.00  0.00     0.056 H 
ATOM    126  H89 MLE d   1      -1.668 -13.682  44.599  0.00  0.00     0.056 H 
ATOM    127  H90 MLE d   1      -1.372 -13.389  46.347  0.00  0.00     0.056 H 
ENDBRANCH  30 124
BRANCH  18 128
ATOM    128  CN  MLE d   1     -10.190  -8.492  46.149  0.00  0.00    -0.015 C 
ATOM    129  H30 MLE d   1     -10.332  -7.752  46.951  0.00  0.00     0.056 H 
ATOM    130  H31 MLE d   1     -10.729  -8.164  45.248  0.00  0.00     0.056 H 
ATOM    131  H32 MLE d   1      -9.118  -8.584  45.921  0.00  0.00     0.056 H 
ENDBRANCH  18 128
BRANCH  27 132
ATOM    132  CB  MLE d   1       3.354 -14.015  44.721  0.00  0.00    -0.035 C 
ATOM    133  H79 MLE d   1       3.765 -13.332  45.479  0.00  0.00     0.037 H 
ATOM    134  H80 MLE d   1       3.550 -13.609  43.718  0.00  0.00     0.037 H 
BRANCH 132 135
ATOM    135  CG  MLE d   1       4.125 -15.339  44.835  0.00  0.00    -0.059 C 
ATOM    136  H81 MLE d   1       3.689 -16.067  44.135  0.00  0.00     0.038 H 
BRANCH 135 137
ATOM    137  CD1 MLE d   1       5.594 -15.123  44.470  0.00  0.00    -0.073 C 
ATOM    138  H82 MLE d   1       6.137 -16.076  44.555  0.00  0.00     0.028 H 
ATOM    139  H83 MLE d   1       6.038 -14.386  45.156  0.00  0.00     0.028 H 
ATOM    140  H84 MLE d   1       5.664 -14.752  43.437  0.00  0.00     0.028 H 
ENDBRANCH 135 137
BRANCH 135 141
ATOM    141  CD2 MLE d   1       4.006 -15.885  46.247  0.00  0.00    -0.073 C 
ATOM    142  H85 MLE d   1       2.945 -16.035  46.494  0.00  0.00     0.028 H 
ATOM    143  H86 MLE d   1       4.450 -15.170  46.955  0.00  0.00     0.028 H 
ATOM    144  H87 MLE d   1       4.537 -16.846  46.315  0.00  0.00     0.028 H 
ENDBRANCH 135 141
ENDBRANCH 132 135
ENDBRANCH  27 132
BRANCH  19 145
ATOM    145  CB  MLE d   1     -11.033 -10.573  44.271  0.00  0.00    -0.035 C 
ATOM    146  H34 MLE d   1     -10.322  -9.810  43.921  0.00  0.00     0.037 H 
ATOM    147  H35 MLE d   1     -12.046 -10.146  44.293  0.00  0.00     0.037 H 
BRANCH 145 148
ATOM    148  CG  MLE d   1     -11.024 -11.734  43.265  0.00  0.00    -0.059 C 
ATOM    149  H36 MLE d   1     -10.009 -12.155  43.216  0.00  0.00     0.038 H 
BRANCH 148 150
ATOM    150  CD1 MLE d   1     -11.979 -12.810  43.751  0.00  0.00    -0.073 C 
ATOM    151  H37 MLE d   1     -11.981 -13.648  43.038  0.00  0.00     0.028 H 
ATOM    152  H38 MLE d   1     -12.993 -12.392  43.829  0.00  0.00     0.028 H 
ATOM    153  H39 MLE d   1     -11.654 -13.170  44.738  0.00  0.00     0.028 H 
ENDBRANCH 148 150
BRANCH 148 154
ATOM    154  CD2 MLE d   1     -11.415 -11.245  41.863  0.00  0.00    -0.073 C 
ATOM    155  H40 MLE d   1     -10.709 -10.468  41.536  0.00  0.00     0.028 H 
ATOM    156  H41 MLE d   1     -12.432 -10.828  41.891  0.00  0.00     0.028 H 
ATOM    157  H42 MLE d   1     -11.384 -12.089  41.158  0.00  0.00     0.028 H 
ENDBRANCH 148 154
ENDBRANCH 145 148
ENDBRANCH  19 145
BRANCH  26 158
ATOM    158  CN  MLE d   1       0.984 -14.755  42.603  0.00  0.00    -0.015 C 
ATOM    159  H75 MLE d   1       0.554 -15.640  42.111  0.00  0.00     0.056 H 
ATOM    160  H76 MLE d   1       1.925 -14.480  42.105  0.00  0.00     0.056 H 
ATOM    161  H77 MLE d   1       0.274 -13.917  42.535  0.00  0.00     0.056 H 
ENDBRANCH  26 158
BRANCH  51 162
ATOM    162  CB  DAL d   1       1.302 -18.429  43.554  0.00  0.00    -0.049 C 
ATOM    163  H72 DAL d   1       2.286 -18.039  43.254  0.00  0.00     0.030 H 
ATOM    164  H73 DAL d   1       0.961 -19.170  42.816  0.00  0.00     0.030 H 
ATOM    165  H74 DAL d   1       1.382 -18.905  44.542  0.00  0.00     0.030 H 
ENDBRANCH  51 162
BRANCH  39 166
ATOM    166  CB  VAL d   1      -7.455 -13.675  48.099  0.00  0.00    -0.033 C 
ATOM    167  H45 VAL d   1      -8.178 -14.494  48.231  0.00  0.00     0.042 H 
BRANCH 166 168
ATOM    168  CG1 VAL d   1      -6.051 -14.241  48.200  0.00  0.00    -0.071 C 
ATOM    169  H46 VAL d   1      -5.908 -14.692  49.193  0.00  0.00     0.028 H 
ATOM    170  H47 VAL d   1      -5.319 -13.433  48.056  0.00  0.00     0.028 H 
ATOM    171  H48 VAL d   1      -5.908 -15.008  47.425  0.00  0.00     0.028 H 
ENDBRANCH 166 168
BRANCH 166 172
ATOM    172  CG2 VAL d   1      -7.690 -12.634  49.183  0.00  0.00    -0.071 C 
ATOM    173  H49 VAL d   1      -8.711 -12.236  49.094  0.00  0.00     0.028 H 
ATOM    174  H50 VAL d   1      -6.966 -11.814  49.068  0.00  0.00     0.028 H 
ATOM    175  H51 VAL d   1      -7.563 -13.099  50.172  0.00  0.00     0.028 H 
ENDBRANCH 166 172
ENDBRANCH  39 166
BRANCH  22 176
ATOM    176  CN  MLE d   1      -5.359 -12.907  45.187  0.00  0.00    -0.015 C 
ATOM    177  H52 MLE d   1      -5.745 -12.268  45.995  0.00  0.00     0.056 H 
ATOM    178  H53 MLE d   1      -5.248 -12.310  44.270  0.00  0.00     0.056 H 
ATOM    179  H54 MLE d   1      -4.381 -13.317  45.478  0.00  0.00     0.056 H 
ENDBRANCH  22 176
BRANCH  45 180
ATOM    180  CB  ALA d   1      -3.634 -19.170  43.463  0.00  0.00    -0.049 C 
ATOM    181  H67 ALA d   1      -2.811 -19.829  43.775  0.00  0.00     0.030 H 
ATOM    182  H68 ALA d   1      -3.639 -19.083  42.366  0.00  0.00     0.030 H 
ATOM    183  H69 ALA d   1      -4.591 -19.593  43.801  0.00  0.00     0.030 H 
ENDBRANCH  45 180
BRANCH  23 184
ATOM    184  CB  MLE d   1      -5.585 -14.322  42.589  0.00  0.00    -0.035 C 
ATOM    185  H56 MLE d   1      -5.303 -15.104  41.869  0.00  0.00     0.037 H 
ATOM    186  H57 MLE d   1      -4.710 -13.691  42.806  0.00  0.00     0.037 H 
BRANCH 184 187
ATOM    187  CG  MLE d   1      -6.660 -13.435  41.932  0.00  0.00    -0.059 C 
ATOM    188  H58 MLE d   1      -6.884 -12.592  42.603  0.00  0.00     0.038 H 
BRANCH 187 189
ATOM    189  CD1 MLE d   1      -6.162 -12.888  40.607  0.00  0.00    -0.073 C 
ATOM    190  H59 MLE d   1      -6.942 -12.258  40.154  0.00  0.00     0.028 H 
ATOM    191  H60 MLE d   1      -5.926 -13.723  39.931  0.00  0.00     0.028 H 
ATOM    192  H61 MLE d   1      -5.257 -12.286  40.776  0.00  0.00     0.028 H 
ENDBRANCH 187 189
BRANCH 187 193
ATOM    193  CD2 MLE d   1      -7.933 -14.244  41.710  0.00  0.00    -0.073 C 
ATOM    194  H62 MLE d   1      -8.290 -14.638  42.673  0.00  0.00     0.028 H 
ATOM    195  H63 MLE d   1      -7.722 -15.080  41.027  0.00  0.00     0.028 H 
ATOM    196  H64 MLE d   1      -8.706 -13.597  41.270  0.00  0.00     0.028 H 
ENDBRANCH 187 193
ENDBRANCH 184 187
ENDBRANCH  23 184
TORSDOF 40
