REMARK  2 active torsions:
REMARK  status: ('A' for Active; 'I' for Inactive)
REMARK    1  A    between atoms: C1_1  and  C_7 
REMARK    2  A    between atoms: C_7  and  N1_8 
ROOT
ATOM      1  C1  BAM d   1       8.774   0.772  25.131  0.00  0.00     0.007 A 
ATOM      2  C2  BAM d   1       8.659   1.942  25.911  0.00  0.00    -0.069 A 
ATOM      3  C3  BAM d   1       9.001   3.191  25.397  0.00  0.00    -0.082 A 
ATOM      4  C4  BAM d   1       9.463   3.299  24.093  0.00  0.00    -0.083 A 
ATOM      5  C5  BAM d   1       9.589   2.172  23.303  0.00  0.00    -0.082 A 
ATOM      6  C6  BAM d   1       9.249   0.935  23.817  0.00  0.00    -0.069 A 
ATOM      7  H1  BAM d   1       8.297   1.868  26.930  0.00  0.00     0.085 H 
ATOM      8  H2  BAM d   1       8.906   4.077  26.015  0.00  0.00     0.083 H 
ATOM      9  H3  BAM d   1       9.726   4.271  23.692  0.00  0.00     0.083 H 
ATOM     10  H4  BAM d   1       9.953   2.258  22.285  0.00  0.00     0.083 H 
ATOM     11  H5  BAM d   1       9.352   0.060  23.186  0.00  0.00     0.085 H 
ENDROOT
BRANCH   1  12
ATOM     12  C   BAM d   1       8.427  -0.495  25.637  0.00  0.00     0.102 C 
ATOM     13  N2  BAM d   1       8.718  -1.555  24.931  0.00  0.00    -0.385 N 
ATOM     14  H8  BAM d   1       9.192  -1.454  24.022  0.00  0.00     0.157 HD
ATOM     15  H9  BAM d   1       8.473  -2.491  25.283  0.00  0.00     0.157 HD
BRANCH  12  16
ATOM     16  N1  BAM d   1       7.821  -0.609  26.800  0.00  0.00    -0.385 N 
ATOM     17  H6  BAM d   1       7.571  -1.541  27.162  0.00  0.00     0.157 HD
ATOM     18  H7  BAM d   1       7.596   0.233  27.349  0.00  0.00     0.157 HD
ENDBRANCH  12  16
ENDBRANCH   1  12
TORSDOF 2
