REMARK  17 active torsions:
REMARK  status: ('A' for Active; 'I' for Inactive)
REMARK    1  A    between atoms: N1_1  and  C31_39 
REMARK    2  A    between atoms: C2_3  and  C3_4 
REMARK       I    between atoms: C3_4  and  N2_6 
REMARK    3  A    between atoms: N2_6  and  C4_7 
REMARK    4  A    between atoms: C4_7  and  C7_10 
REMARK    5  A    between atoms: C4_7  and  C6_9 
REMARK    6  A    between atoms: C4_7  and  C5_8 
REMARK    7  A    between atoms: N3_11  and  C10_14 
REMARK    8  A    between atoms: C10_14  and  C11_15 
REMARK    9  A    between atoms: C11_15  and  C12_17 
REMARK   10  A    between atoms: C11_15  and  O2_16 
REMARK   11  A    between atoms: C12_17  and  C13_18 
REMARK   12  A    between atoms: C13_18  and  C21_26 
REMARK   13  A    between atoms: C13_18  and  C14_19 
REMARK   14  A    between atoms: C14_19  and  C15_20 
REMARK       I    between atoms: C21_26  and  N4_28 
REMARK   15  A    between atoms: N4_28  and  C22_29 
REMARK   16  A    between atoms: C23_30  and  O4_31 
REMARK   17  A    between atoms: C31_39  and  C32_40 
ROOT
ATOM      1  C10 MK1 d   1      13.255  26.174   4.680  0.00  0.00     0.108 C 
ATOM      2  H20 MK1 d   1      13.093  27.017   5.368  0.00  0.00     0.080 H 
ATOM      3  H21 MK1 d   1      13.282  26.545   3.645  0.00  0.00     0.080 H 
ENDROOT
BRANCH   1   4
ATOM      4  N3  MK1 d   1      12.099  25.250   4.806  0.00  0.00    -0.053 N 
ATOM      5  C2  MK1 d   1      10.938  26.073   5.155  0.00  0.00     0.203 C 
ATOM      6  C1  MK1 d   1       9.677  25.359   4.701  0.00  0.00     0.119 C 
ATOM      7  H4  MK1 d   1      11.013  27.035   4.626  0.00  0.00     0.102 H 
ATOM      8  N1  MK1 d   1       9.699  25.245   3.210  0.00  0.00    -0.063 N 
ATOM      9  H2  MK1 d   1       9.639  24.355   5.148  0.00  0.00     0.080 H 
ATOM     10  H3  MK1 d   1       8.793  25.934   5.015  0.00  0.00     0.080 H 
ATOM     11  C9  MK1 d   1      10.850  24.532   2.735  0.00  0.00     0.106 C 
ATOM     12  H1  MK1 d   1       9.747  26.188   2.856  0.00  0.00     0.280 HD
ATOM     13  C8  MK1 d   1      12.123  25.090   3.323  0.00  0.00     0.107 C 
ATOM     14  H18 MK1 d   1      10.895  24.615   1.639  0.00  0.00     0.078 H 
ATOM     15  H19 MK1 d   1      10.758  23.473   3.019  0.00  0.00     0.078 H 
ATOM     16  H16 MK1 d   1      12.948  24.411   3.064  0.00  0.00     0.078 H 
ATOM     17  H17 MK1 d   1      12.306  26.077   2.873  0.00  0.00     0.078 H 
ATOM     18  H15 MK1 d   1      12.207  24.424   5.373  0.00  0.00     0.281 HD
BRANCH   5  19
ATOM     19  C3  MK1 d   1      10.894  26.343   6.620  0.00  0.00     0.251 C 
ATOM     20  N2  MK1 d   1      10.323  27.499   7.059  0.00  0.00    -0.351 N 
ATOM     21  H5  MK1 d   1       9.884  28.128   6.417  0.00  0.00     0.163 HD
ATOM     22  O1  MK1 d   1      11.386  25.544   7.405  0.00  0.00    -0.271 OA
BRANCH  20  23
ATOM     23  C4  MK1 d   1      10.366  27.807   8.521  0.00  0.00     0.022 C 
BRANCH  23  24
ATOM     24  C7  MK1 d   1      10.148  29.365   8.707  0.00  0.00    -0.054 C 
ATOM     25  H12 MK1 d   1      10.176  29.614   9.778  0.00  0.00     0.030 H 
ATOM     26  H13 MK1 d   1       9.171  29.651   8.290  0.00  0.00     0.030 H 
ATOM     27  H14 MK1 d   1      10.945  29.912   8.182  0.00  0.00     0.030 H 
ENDBRANCH  23  24
BRANCH  23  28
ATOM     28  C6  MK1 d   1       9.324  26.870   9.230  0.00  0.00    -0.054 C 
ATOM     29  H9  MK1 d   1       9.328  27.070  10.312  0.00  0.00     0.030 H 
ATOM     30  H10 MK1 d   1       9.594  25.819   9.050  0.00  0.00     0.030 H 
ATOM     31  H11 MK1 d   1       8.320  27.065   8.825  0.00  0.00     0.030 H 
ENDBRANCH  23  28
BRANCH  23  32
ATOM     32  C5  MK1 d   1      11.719  27.591   9.205  0.00  0.00    -0.054 C 
ATOM     33  H6  MK1 d   1      11.636  27.847  10.272  0.00  0.00     0.030 H 
ATOM     34  H7  MK1 d   1      12.476  28.234   8.732  0.00  0.00     0.030 H 
ATOM     35  H8  MK1 d   1      12.017  26.537   9.103  0.00  0.00     0.030 H 
ENDBRANCH  23  32
ENDBRANCH  20  23
ENDBRANCH   5  19
BRANCH   8  36
ATOM     36  C31 MK1 d   1       8.506  24.594   2.586  0.00  0.00     0.108 C 
ATOM     37  H44 MK1 d   1       8.798  24.214   1.596  0.00  0.00     0.083 H 
ATOM     38  H45 MK1 d   1       7.719  25.354   2.470  0.00  0.00     0.083 H 
BRANCH  36  39
ATOM     39  C32 MK1 d   1       7.926  23.413   3.409  0.00  0.00    -0.015 A 
ATOM     40  C36 MK1 d   1       8.354  22.067   3.173  0.00  0.00    -0.072 A 
ATOM     41  C35 MK1 d   1       7.764  20.961   3.865  0.00  0.00    -0.066 A 
ATOM     42  H49 MK1 d   1       9.143  21.881   2.454  0.00  0.00     0.084 H 
ATOM     43  C34 MK1 d   1       6.753  21.281   4.810  0.00  0.00     0.002 A 
ATOM     44  H48 MK1 d   1       8.071  19.938   3.678  0.00  0.00     0.085 H 
ATOM     45  N5  MK1 d   1       6.389  22.562   5.062  0.00  0.00    -0.273 NA
ATOM     46  H47 MK1 d   1       6.259  20.478   5.345  0.00  0.00     0.114 H 
ATOM     47  C33 MK1 d   1       6.923  23.613   4.396  0.00  0.00     0.009 A 
ATOM     48  H46 MK1 d   1       6.582  24.618   4.618  0.00  0.00     0.115 H 
ENDBRANCH  36  39
ENDBRANCH   8  36
ENDBRANCH   1   4
BRANCH   1  49
ATOM     49  C11 MK1 d   1      14.614  25.562   4.997  0.00  0.00     0.059 C 
ATOM     50  H22 MK1 d   1      14.681  24.556   4.557  0.00  0.00     0.085 H 
BRANCH  49  51
ATOM     51  C12 MK1 d   1      14.800  25.469   6.473  0.00  0.00    -0.028 C 
ATOM     52  H24 MK1 d   1      13.938  24.917   6.877  0.00  0.00     0.038 H 
ATOM     53  H25 MK1 d   1      14.795  26.495   6.868  0.00  0.00     0.038 H 
BRANCH  51  54
ATOM     54  C13 MK1 d   1      16.071  24.782   7.001  0.00  0.00     0.029 C 
ATOM     55  H26 MK1 d   1      16.945  25.237   6.512  0.00  0.00     0.055 H 
BRANCH  54  56
ATOM     56  C21 MK1 d   1      16.083  23.175   6.687  0.00  0.00     0.222 C 
ATOM     57  N4  MK1 d   1      17.148  22.710   6.106  0.00  0.00    -0.350 N 
ATOM     58  H34 MK1 d   1      17.749  23.311   5.580  0.00  0.00     0.163 HD
ATOM     59  O3  MK1 d   1      15.190  22.415   7.073  0.00  0.00    -0.273 OA
BRANCH  57  60
ATOM     60  C22 MK1 d   1      17.446  21.276   6.243  0.00  0.00     0.063 C 
ATOM     61  C30 MK1 d   1      17.332  20.607   4.974  0.00  0.00    -0.027 A 
ATOM     62  C25 MK1 d   1      18.277  19.552   4.918  0.00  0.00    -0.047 A 
ATOM     63  C29 MK1 d   1      16.496  21.039   3.952  0.00  0.00    -0.074 A 
ATOM     64  C24 MK1 d   1      19.173  19.450   6.196  0.00  0.00    -0.014 C 
ATOM     65  C26 MK1 d   1      18.441  18.861   3.740  0.00  0.00    -0.076 A 
ATOM     66  C23 MK1 d   1      18.940  20.968   6.518  0.00  0.00     0.063 C 
ATOM     67  H38 MK1 d   1      18.778  18.767   6.963  0.00  0.00     0.044 H 
ATOM     68  H39 MK1 d   1      20.222  19.196   5.984  0.00  0.00     0.044 H 
ATOM     69  H36 MK1 d   1      19.201  21.185   7.564  0.00  0.00     0.087 H 
ATOM     70  C27 MK1 d   1      17.626  19.336   2.686  0.00  0.00    -0.082 A 
ATOM     71  H40 MK1 d   1      19.130  18.031   3.630  0.00  0.00     0.084 H 
ATOM     72  C28 MK1 d   1      16.686  20.401   2.763  0.00  0.00    -0.082 A 
ATOM     73  H41 MK1 d   1      17.727  18.841   1.727  0.00  0.00     0.083 H 
ATOM     74  H42 MK1 d   1      16.127  20.702   1.885  0.00  0.00     0.083 H 
ATOM     75  H43 MK1 d   1      15.755  21.818   4.089  0.00  0.00     0.084 H 
ATOM     76  H35 MK1 d   1      16.790  20.839   7.010  0.00  0.00     0.084 H 
BRANCH  66  77
ATOM     77  O4  MK1 d   1      19.684  21.740   5.670  0.00  0.00    -0.393 OA
ATOM     78  H37 MK1 d   1      19.539  22.657   5.869  0.00  0.00     0.210 HD
ENDBRANCH  66  77
ENDBRANCH  57  60
ENDBRANCH  54  56
BRANCH  54  79
ATOM     79  C14 MK1 d   1      16.165  25.019   8.519  0.00  0.00    -0.029 C 
ATOM     80  H27 MK1 d   1      15.220  24.731   9.002  0.00  0.00     0.041 H 
ATOM     81  H28 MK1 d   1      16.371  26.081   8.720  0.00  0.00     0.041 H 
BRANCH  79  82
ATOM     82  C15 MK1 d   1      17.300  24.162   9.052  0.00  0.00    -0.057 C 
ATOM     83  C20 MK1 d   1      16.988  23.270  10.087  0.00  0.00    -0.077 C 
ATOM     84  C19 MK1 d   1      18.040  22.599  10.733  0.00  0.00    -0.082 C 
ATOM     85  H33 MK1 d   1      15.959  23.102  10.382  0.00  0.00     0.084 H 
ATOM     86  C18 MK1 d   1      19.364  22.896  10.345  0.00  0.00    -0.083 C 
ATOM     87  H32 MK1 d   1      17.840  21.871  11.511  0.00  0.00     0.083 H 
ATOM     88  C17 MK1 d   1      19.648  23.572   9.156  0.00  0.00    -0.082 C 
ATOM     89  H31 MK1 d   1      20.183  22.591  10.987  0.00  0.00     0.083 H 
ATOM     90  C16 MK1 d   1      18.613  24.230   8.504  0.00  0.00    -0.077 C 
ATOM     91  H30 MK1 d   1      20.654  23.583   8.751  0.00  0.00     0.083 H 
ATOM     92  H29 MK1 d   1      18.801  24.786   7.593  0.00  0.00     0.084 H 
ENDBRANCH  79  82
ENDBRANCH  54  79
ENDBRANCH  51  54
ENDBRANCH  49  51
BRANCH  49  93
ATOM     93  O2  MK1 d   1      15.546  26.346   4.471  0.00  0.00    -0.394 OA
ATOM     94  H23 MK1 d   1      15.420  26.399   3.531  0.00  0.00     0.210 HD
ENDBRANCH  49  93
ENDBRANCH   1  49
TORSDOF 17
