REMARK  12 active torsions:
REMARK  status: ('A' for Active; 'I' for Inactive)
REMARK    1  A    between atoms: C7_11  and  C7M_12 
REMARK    2  A    between atoms: C8_13  and  C8M_14 
REMARK    3  A    between atoms: N10_17  and  C1_19 
REMARK    4  A    between atoms: C1_19  and  C2_20 
REMARK    5  A    between atoms: C2_20  and  O2_21 
REMARK    6  A    between atoms: C2_20  and  C3_22 
REMARK    7  A    between atoms: C3_22  and  O3_23 
REMARK    8  A    between atoms: C3_22  and  C4_24 
REMARK    9  A    between atoms: C4_24  and  O4_25 
REMARK   10  A    between atoms: C4_24  and  C5_26 
REMARK   11  A    between atoms: C5_26  and  O5_27 
REMARK   12  A    between atoms: O5_27  and  P_28 
ROOT
ATOM      1  N1  NON d   1       7.365   0.105   0.952  0.00  0.00    -0.304 N 
ATOM      2  C2  NON d   1       7.828   1.339   0.677  0.00  0.00     0.259 A 
ATOM      3  O2  NON d   1       8.520   1.728  -0.401  0.00  0.00    -0.151 OA
ATOM      4  N3  NON d   1       7.405   2.221   1.595  0.00  0.00    -0.296 N 
ATOM      5  C4  NON d   1       6.664   1.899   2.667  0.00  0.00     0.212 A 
ATOM      6  O4  NON d   1       6.115   2.578   3.768  0.00  0.00    -0.169 OA
ATOM      7  C4A NON d   1       6.262   0.501   2.953  0.00  0.00     0.132 A 
ATOM      8  N5  NON d   1       5.525   0.238   4.096  0.00  0.00    -0.348 N 
ATOM      9  C5A NON d   1       5.131  -1.123   4.236  0.00  0.00     0.060 A 
ATOM     10  C6  NON d   1       4.326  -1.387   5.393  0.00  0.00    -0.049 A 
ATOM     11  C7  NON d   1       3.842  -2.666   5.612  0.00  0.00    -0.054 A 
ATOM     12  C8  NON d   1       4.212  -3.686   4.708  0.00  0.00    -0.054 A 
ATOM     13  C9  NON d   1       5.034  -3.394   3.592  0.00  0.00    -0.049 A 
ATOM     14  C9A NON d   1       5.523  -2.099   3.287  0.00  0.00     0.063 A 
ATOM     15  N10 NON d   1       6.338  -1.794   2.190  0.00  0.00    -0.327 N 
ATOM     16  C10 NON d   1       6.657  -0.376   2.010  0.00  0.00     0.143 A 
ATOM     17  H1  NON d   1       7.579  -0.580   0.255  0.00  0.00     0.171 HD
ATOM     18  H2  NON d   1       7.658   3.181   1.473  0.00  0.00     0.171 HD
ATOM     19  H3  NON d   1       5.283   0.964   4.785  0.00  0.00     0.166 HD
ATOM     20  H4  NON d   1       4.098  -0.590   6.092  0.00  0.00     0.087 H 
ATOM     21  H11 NON d   1       5.305  -4.210   2.932  0.00  0.00     0.087 H 
ENDROOT
BRANCH  15  22
ATOM     22  C1  NON d   1       6.848  -2.557   1.159  0.00  0.00     0.028 C 
ATOM     23  H12 NON d   1       7.344  -1.896   0.433  0.00  0.00     0.069 H 
ATOM     24  H13 NON d   1       6.023  -3.091   0.664  0.00  0.00     0.069 H 
BRANCH  22  25
ATOM     25  C2  NON d   1       7.860  -3.575   1.680  0.00  0.00     0.078 C 
ATOM     26  H14 NON d   1       7.399  -4.176   2.478  0.00  0.00     0.089 H 
BRANCH  25  27
ATOM     27  O2  NON d   1       9.046  -2.935   2.175  0.00  0.00    -0.391 OA
ATOM     28  H15 NON d   1       8.815  -2.350   2.887  0.00  0.00     0.210 HD
ENDBRANCH  25  27
BRANCH  25  29
ATOM     29  C3  NON d   1       8.297  -4.483   0.500  0.00  0.00     0.088 C 
ATOM     30  H16 NON d   1       7.890  -4.065  -0.432  0.00  0.00     0.091 H 
BRANCH  29  31
ATOM     31  O3  NON d   1       7.748  -5.785   0.730  0.00  0.00    -0.390 OA
ATOM     32  H17 NON d   1       8.001  -6.364   0.020  0.00  0.00     0.210 HD
ENDBRANCH  29  31
BRANCH  29  33
ATOM     33  C4  NON d   1       9.737  -4.627   0.351  0.00  0.00     0.084 C 
ATOM     34  H18 NON d   1      10.210  -3.634   0.342  0.00  0.00     0.090 H 
BRANCH  33  35
ATOM     35  O4  NON d   1      10.194  -5.475  -0.741  0.00  0.00    -0.391 OA
ATOM     36  H19 NON d   1      11.144  -5.498  -0.746  0.00  0.00     0.210 HD
ENDBRANCH  33  35
BRANCH  33  37
ATOM     37  C5  NON d   1      10.243  -5.526   1.397  0.00  0.00     0.059 C 
ATOM     38  H20 NON d   1       9.700  -6.482   1.442  0.00  0.00     0.079 H 
ATOM     39  H21 NON d   1      10.254  -5.062   2.394  0.00  0.00     0.079 H 
BRANCH  37  40
ATOM     40  O5  NON d   1      11.560  -5.652   0.819  0.00  0.00    -0.280 OA
BRANCH  40  41
ATOM     41  P   NON d   1      12.513  -6.775   1.530  0.00  0.00     0.422 P 
ATOM     42  O1P NON d   1      12.504  -6.796   3.158  0.00  0.00    -0.617 OA
ATOM     43  O2P NON d   1      14.101  -6.504   1.081  0.00  0.00    -0.617 OA
ATOM     44  O3P NON d   1      12.236  -8.517   1.254  0.00  0.00    -0.617 OA
ENDBRANCH  40  41
ENDBRANCH  37  40
ENDBRANCH  33  37
ENDBRANCH  29  33
ENDBRANCH  25  29
ENDBRANCH  22  25
ENDBRANCH  15  22
BRANCH  12  45
ATOM     45  C8M NON d   1       3.704  -4.990   5.083  0.00  0.00    -0.051 C 
ATOM     46  H8  NON d   1       4.026  -5.736   4.342  0.00  0.00     0.033 H 
ATOM     47  H9  NON d   1       2.605  -4.959   5.119  0.00  0.00     0.033 H 
ATOM     48  H10 NON d   1       4.095  -5.265   6.074  0.00  0.00     0.033 H 
ENDBRANCH  12  45
BRANCH  11  49
ATOM     49  C7M NON d   1       2.994  -3.048   6.713  0.00  0.00    -0.051 C 
ATOM     50  H5  NON d   1       2.783  -2.166   7.336  0.00  0.00     0.033 H 
ATOM     51  H6  NON d   1       3.502  -3.812   7.319  0.00  0.00     0.033 H 
ATOM     52  H7  NON d   1       2.050  -3.457   6.324  0.00  0.00     0.033 H 
ENDBRANCH  11  49
TORSDOF 12
