REMARK  12 active torsions:
REMARK  status: ('A' for Active; 'I' for Inactive)
REMARK    1  A    between atoms: C7_11  and  C7M_12 
REMARK    2  A    between atoms: C8_13  and  C8M_14 
REMARK    3  A    between atoms: N10_17  and  C1_19 
REMARK    4  A    between atoms: C1_19  and  C2_20 
REMARK    5  A    between atoms: C2_20  and  O2_21 
REMARK    6  A    between atoms: C2_20  and  C3_22 
REMARK    7  A    between atoms: C3_22  and  O3_23 
REMARK    8  A    between atoms: C3_22  and  C4_24 
REMARK    9  A    between atoms: C4_24  and  O4_25 
REMARK   10  A    between atoms: C4_24  and  C5_26 
REMARK   11  A    between atoms: C5_26  and  O5_27 
REMARK   12  A    between atoms: O5_27  and  P_28 
ROOT
ATOM      1  N1  FMN d   1       7.449  -0.185   1.286  0.00  0.00    -0.186 NA
ATOM      2  C2  FMN d   1       7.724   1.169   1.082  0.00  0.00     0.281 A 
ATOM      3  O2  FMN d   1       8.366   1.512  -0.035  0.00  0.00    -0.149 OA
ATOM      4  N3  FMN d   1       7.276   2.155   1.922  0.00  0.00    -0.295 N 
ATOM      5  C4  FMN d   1       6.610   1.857   3.075  0.00  0.00     0.214 A 
ATOM      6  O4  FMN d   1       6.169   2.716   4.027  0.00  0.00    -0.169 OA
ATOM      7  C4A FMN d   1       6.345   0.452   3.292  0.00  0.00     0.157 A 
ATOM      8  N5  FMN d   1       5.684   0.203   4.465  0.00  0.00    -0.238 NA
ATOM      9  C5A FMN d   1       5.304  -1.148   4.589  0.00  0.00     0.085 A 
ATOM     10  C6  FMN d   1       4.462  -1.424   5.697  0.00  0.00    -0.047 A 
ATOM     11  C7  FMN d   1       4.070  -2.756   5.832  0.00  0.00    -0.054 A 
ATOM     12  C8  FMN d   1       4.463  -3.764   4.951  0.00  0.00    -0.054 A 
ATOM     13  C9  FMN d   1       5.301  -3.472   3.867  0.00  0.00    -0.048 A 
ATOM     14  C9A FMN d   1       5.737  -2.115   3.719  0.00  0.00     0.065 A 
ATOM     15  N10 FMN d   1       6.551  -1.907   2.636  0.00  0.00    -0.325 N 
ATOM     16  C10 FMN d   1       6.802  -0.542   2.435  0.00  0.00     0.168 A 
ATOM     17  H1  FMN d   1       7.441   3.112   1.685  0.00  0.00     0.171 HD
ATOM     18  H2  FMN d   1       4.145  -0.653   6.391  0.00  0.00     0.088 H 
ATOM     19  H9  FMN d   1       5.607  -4.242   3.168  0.00  0.00     0.087 H 
ENDROOT
BRANCH  15  20
ATOM     20  C1  FMN d   1       6.974  -2.856   1.704  0.00  0.00     0.028 C 
ATOM     21  H10 FMN d   1       7.191  -2.346   0.754  0.00  0.00     0.069 H 
ATOM     22  H11 FMN d   1       6.165  -3.586   1.552  0.00  0.00     0.069 H 
BRANCH  20  23
ATOM     23  C2  FMN d   1       8.240  -3.608   2.163  0.00  0.00     0.078 C 
ATOM     24  H12 FMN d   1       8.054  -4.169   3.091  0.00  0.00     0.089 H 
BRANCH  23  25
ATOM     25  O2  FMN d   1       9.297  -2.667   2.331  0.00  0.00    -0.391 OA
ATOM     26  H13 FMN d   1       9.047  -2.026   2.986  0.00  0.00     0.210 HD
ENDBRANCH  23  25
BRANCH  23  27
ATOM     27  C3  FMN d   1       8.673  -4.567   0.978  0.00  0.00     0.088 C 
ATOM     28  H14 FMN d   1       8.442  -4.077   0.020  0.00  0.00     0.091 H 
BRANCH  27  29
ATOM     29  O3  FMN d   1       7.793  -5.693   1.183  0.00  0.00    -0.390 OA
ATOM     30  H15 FMN d   1       7.962  -6.350   0.518  0.00  0.00     0.210 HD
ENDBRANCH  27  29
BRANCH  27  31
ATOM     31  C4  FMN d   1      10.083  -4.973   0.921  0.00  0.00     0.084 C 
ATOM     32  H16 FMN d   1      10.646  -4.031   0.841  0.00  0.00     0.090 H 
BRANCH  31  33
ATOM     33  O4  FMN d   1      10.426  -5.739  -0.258  0.00  0.00    -0.391 OA
ATOM     34  H17 FMN d   1      10.251  -5.219  -1.034  0.00  0.00     0.210 HD
ENDBRANCH  31  33
BRANCH  31  35
ATOM     35  C5  FMN d   1      10.591  -5.634   2.131  0.00  0.00     0.059 C 
ATOM     36  H18 FMN d   1      10.069  -6.587   2.302  0.00  0.00     0.079 H 
ATOM     37  H19 FMN d   1      10.467  -4.985   3.010  0.00  0.00     0.079 H 
BRANCH  35  38
ATOM     38  O5  FMN d   1      11.992  -5.861   1.857  0.00  0.00    -0.280 OA
BRANCH  38  39
ATOM     39  P   FMN d   1      12.893  -6.808   2.910  0.00  0.00     0.422 P 
ATOM     40  O1P FMN d   1      12.635  -6.544   4.504  0.00  0.00    -0.617 OA
ATOM     41  O2P FMN d   1      14.497  -6.670   2.465  0.00  0.00    -0.617 OA
ATOM     42  O3P FMN d   1      12.527  -8.408   2.499  0.00  0.00    -0.617 OA
ENDBRANCH  38  39
ENDBRANCH  35  38
ENDBRANCH  31  35
ENDBRANCH  27  31
ENDBRANCH  23  27
ENDBRANCH  20  23
ENDBRANCH  15  20
BRANCH  12  43
ATOM     43  C8M FMN d   1       4.019  -5.125   5.100  0.00  0.00    -0.051 C 
ATOM     44  H6  FMN d   1       4.451  -5.742   4.298  0.00  0.00     0.033 H 
ATOM     45  H7  FMN d   1       2.921  -5.161   5.039  0.00  0.00     0.033 H 
ATOM     46  H8  FMN d   1       4.345  -5.512   6.076  0.00  0.00     0.033 H 
ENDBRANCH  12  43
BRANCH  11  47
ATOM     47  C7M FMN d   1       3.191  -3.087   6.916  0.00  0.00    -0.051 C 
ATOM     48  H3  FMN d   1       2.983  -2.184   7.508  0.00  0.00     0.033 H 
ATOM     49  H4  FMN d   1       3.667  -3.844   7.556  0.00  0.00     0.033 H 
ATOM     50  H5  FMN d   1       2.248  -3.487   6.515  0.00  0.00     0.033 H 
ENDBRANCH  11  47
TORSDOF 12
