REMARK  6 active torsions:
REMARK  status: ('A' for Active; 'I' for Inactive)
REMARK    1  A    between atoms: C1_1  and  N1_2 
REMARK    2  A    between atoms: C14_5  and  C8_8 
REMARK    3  A    between atoms: C13_6  and  O3_28 
REMARK    4  A    between atoms: C2_11  and  C21_21 
REMARK    5  A    between atoms: C5_16  and  O5_17 
REMARK    6  A    between atoms: C7_19  and  O7_20 
ROOT
ATOM      1  C8  CPB d   1      39.535  37.513  31.138  0.00  0.00     0.017 A 
ATOM      2  C9  CPB d   1      38.699  36.415  30.815  0.00  0.00     0.102 A 
ATOM      3  O1  CPB d   1      38.886  35.731  29.589  0.00  0.00    -0.308 OA
ATOM      4  C2  CPB d   1      38.158  34.660  29.178  0.00  0.00     0.091 A 
ATOM      5  C3  CPB d   1      37.154  34.170  29.949  0.00  0.00    -0.000 A 
ATOM      6  C4  CPB d   1      36.848  34.784  31.261  0.00  0.00     0.190 A 
ATOM      7  O4  CPB d   1      35.961  34.338  31.954  0.00  0.00    -0.287 OA
ATOM      8  C10 CPB d   1      37.684  35.978  31.716  0.00  0.00     0.082 A 
ATOM      9  C5  CPB d   1      37.486  36.645  32.965  0.00  0.00     0.085 A 
ATOM     10  C6  CPB d   1      38.312  37.746  33.285  0.00  0.00    -0.017 A 
ATOM     11  C7  CPB d   1      39.336  38.183  32.392  0.00  0.00     0.077 A 
ATOM     12  H13 CPB d   1      36.570  33.320  29.600  0.00  0.00     0.094 H 
ATOM     13  H15 CPB d   1      38.166  38.267  34.224  0.00  0.00     0.092 H 
ENDROOT
BRANCH   1  14
ATOM     14  C14 CPB d   1      40.612  37.886  30.084  0.00  0.00     0.005 C 
ATOM     15  C15 CPB d   1      40.180  39.225  29.425  0.00  0.00    -0.033 C 
ATOM     16  C16 CPB d   1      41.224  39.649  28.351  0.00  0.00     0.084 C 
ATOM     17  H7  CPB d   1      39.197  39.096  28.948  0.00  0.00     0.036 H 
ATOM     18  H8  CPB d   1      40.113  40.006  30.197  0.00  0.00     0.036 H 
ATOM     19  N1  CPB d   1      42.623  39.651  28.879  0.00  0.00    -0.072 N 
ATOM     20  H5  CPB d   1      41.167  38.946  27.507  0.00  0.00     0.076 H 
ATOM     21  H6  CPB d   1      40.978  40.662  28.001  0.00  0.00     0.076 H 
ATOM     22  C12 CPB d   1      43.026  38.318  29.419  0.00  0.00     0.107 C 
ATOM     23  H4  CPB d   1      42.654  40.314  29.637  0.00  0.00     0.279 HD
ATOM     24  C13 CPB d   1      42.098  37.935  30.603  0.00  0.00     0.066 C 
ATOM     25  H11 CPB d   1      44.067  38.365  29.770  0.00  0.00     0.080 H 
ATOM     26  H12 CPB d   1      42.940  37.560  28.626  0.00  0.00     0.080 H 
ATOM     27  H10 CPB d   1      42.359  36.940  30.991  0.00  0.00     0.086 H 
ATOM     28  H9  CPB d   1      40.585  37.106  29.308  0.00  0.00     0.051 H 
BRANCH  19  29
ATOM     29  C1  CPB d   1      43.608  40.077  27.864  0.00  0.00     0.066 C 
ATOM     30  H1  CPB d   1      43.318  41.059  27.461  0.00  0.00     0.068 H 
ATOM     31  H2  CPB d   1      43.636  39.340  27.048  0.00  0.00     0.068 H 
ATOM     32  H3  CPB d   1      44.603  40.150  28.327  0.00  0.00     0.068 H 
ENDBRANCH  19  29
BRANCH  24  33
ATOM     33  O3  CPB d   1      42.380  38.918  31.609  0.00  0.00    -0.393 OA
ATOM     34  H21 CPB d   1      41.844  38.749  32.375  0.00  0.00     0.210 HD
ENDBRANCH  24  33
ENDBRANCH   1  14
BRANCH  11  35
ATOM     35  O7  CPB d   1      40.133  39.262  32.739  0.00  0.00    -0.360 OA
ATOM     36  H16 CPB d   1      40.761  39.426  32.045  0.00  0.00     0.217 HD
ENDBRANCH  11  35
BRANCH   4  37
ATOM     37  C21 CPB d   1      38.497  34.018  27.817  0.00  0.00     0.020 A 
ATOM     38  C22 CPB d   1      38.923  34.806  26.674  0.00  0.00     0.047 A 
ATOM     39 CL1  CPB d   1      39.080  36.531  26.737  0.00  0.00    -0.083 Cl
ATOM     40  C23 CPB d   1      39.231  34.187  25.441  0.00  0.00    -0.061 A 
ATOM     41  C24 CPB d   1      39.133  32.775  25.297  0.00  0.00    -0.081 A 
ATOM     42  H17 CPB d   1      39.544  34.793  24.599  0.00  0.00     0.086 H 
ATOM     43  C25 CPB d   1      38.709  31.977  26.417  0.00  0.00    -0.082 A 
ATOM     44  H18 CPB d   1      39.376  32.304  24.351  0.00  0.00     0.083 H 
ATOM     45  C26 CPB d   1      38.400  32.592  27.664  0.00  0.00    -0.069 A 
ATOM     46  H19 CPB d   1      38.624  30.901  26.311  0.00  0.00     0.083 H 
ATOM     47  H20 CPB d   1      38.090  31.980  28.503  0.00  0.00     0.085 H 
ENDBRANCH   4  37
BRANCH   9  48
ATOM     48  O5  CPB d   1      36.501  36.243  33.884  0.00  0.00    -0.360 OA
ATOM     49  H14 CPB d   1      35.645  36.303  33.476  0.00  0.00     0.217 HD
ENDBRANCH   9  48
TORSDOF 6
