REMARK  11 active torsions:
REMARK  status: ('A' for Active; 'I' for Inactive)
REMARK    1  A    between atoms: C7_7  and  C1_1 
REMARK    2  A    between atoms: C18_17  and  C8_8 
REMARK    3  A    between atoms: C9_9  and  C14_13 
REMARK    4  A    between atoms: C11_10  and  C15_14 
REMARK    5  A    between atoms: C12_11  and  C13_12 
REMARK    6  A    between atoms: C17_16  and  C16_15 
REMARK    7  A    between atoms: N10_21  and  C17_16 
REMARK    8  A    between atoms: O8_27  and  C18_17 
REMARK    9  A    between atoms: C19_18  and  C20_19 
REMARK   10  A    between atoms: C19_18  and  C21_20 
REMARK   11  A    between atoms: C19_18  and  O8_27 
ROOT
ATOM      1  C7  BIN d   1      27.813   1.696  51.278  0.00  0.00     0.041 C 
ATOM      2  C8  BIN d   1      26.924   0.242  51.262  0.00  0.00     0.053 C 
ATOM      3  C9  BIN d   1      29.922   0.326  50.551  0.00  0.00     0.126 C 
ATOM      4  C11 BIN d   1      27.580  -1.008  51.040  0.00  0.00     0.021 C 
ATOM      5  C12 BIN d   1      29.247   1.642  50.702  0.00  0.00     0.065 C 
ATOM      6  N10 BIN d   1      29.124  -0.932  50.980  0.00  0.00    -0.344 N 
ATOM      7  H5  BIN d   1      27.239   2.427  50.690  0.00  0.00     0.063 H 
ENDROOT
BRANCH   2   8
ATOM      8  C18 BIN d   1      25.313   0.407  51.454  0.00  0.00     0.292 C 
ATOM      9  O8A BIN d   1      24.606  -0.476  51.931  0.00  0.00    -0.259 OA
BRANCH   8  10
ATOM     10  O8  BIN d   1      24.866   1.638  51.120  0.00  0.00    -0.313 OA
BRANCH  10  11
ATOM     11  C19 BIN d   1      23.325   2.049  51.284  0.00  0.00     0.041 C 
ATOM     12  H14 BIN d   1      22.641   1.210  51.090  0.00  0.00     0.083 H 
BRANCH  11  13
ATOM     13  C20 BIN d   1      23.183   2.515  52.787  0.00  0.00    -0.052 C 
ATOM     14  H15 BIN d   1      22.143   2.816  52.981  0.00  0.00     0.030 H 
ATOM     15  H16 BIN d   1      23.852   3.368  52.971  0.00  0.00     0.030 H 
ATOM     16  H17 BIN d   1      23.455   1.685  53.456  0.00  0.00     0.030 H 
ENDBRANCH  11  13
BRANCH  11  17
ATOM     17  C21 BIN d   1      23.154   3.119  50.224  0.00  0.00    -0.052 C 
ATOM     18  H18 BIN d   1      23.275   2.670  49.227  0.00  0.00     0.030 H 
ATOM     19  H19 BIN d   1      23.913   3.902  50.368  0.00  0.00     0.030 H 
ATOM     20  H20 BIN d   1      22.150   3.561  50.307  0.00  0.00     0.030 H 
ENDBRANCH  11  17
ENDBRANCH  10  11
ENDBRANCH   8  10
ENDBRANCH   2   8
BRANCH   1  21
ATOM     21  C1  BIN d   1      27.984   2.251  52.803  0.00  0.00    -0.023 A 
ATOM     22  C2  BIN d   1      27.374   3.640  53.204  0.00  0.00     0.041 A 
ATOM     23  C3  BIN d   1      27.518   4.185  54.580  0.00  0.00    -0.061 A 
ATOM     24 CL2  BIN d   1      26.525   4.589  52.116  0.00  0.00    -0.084 Cl
ATOM     25  C4  BIN d   1      28.281   3.346  55.578  0.00  0.00    -0.081 A 
ATOM     26  H1  BIN d   1      27.093   5.144  54.855  0.00  0.00     0.086 H 
ATOM     27  C5  BIN d   1      28.843   2.118  55.284  0.00  0.00    -0.082 A 
ATOM     28  H2  BIN d   1      28.395   3.730  56.585  0.00  0.00     0.083 H 
ATOM     29  C6  BIN d   1      28.716   1.558  53.924  0.00  0.00    -0.074 A 
ATOM     30  H3  BIN d   1      29.376   1.567  56.050  0.00  0.00     0.083 H 
ATOM     31  H4  BIN d   1      29.174   0.597  53.720  0.00  0.00     0.084 H 
ENDBRANCH   1  21
BRANCH   4  32
ATOM     32  C15 BIN d   1      26.955  -2.385  50.909  0.00  0.00    -0.037 C 
ATOM     33  H6  BIN d   1      25.860  -2.298  50.968  0.00  0.00     0.035 H 
ATOM     34  H7  BIN d   1      27.316  -3.030  51.724  0.00  0.00     0.035 H 
ATOM     35  H8  BIN d   1      27.236  -2.825  49.941  0.00  0.00     0.035 H 
ENDBRANCH   4  32
BRANCH   5  36
ATOM     36  C13 BIN d   1      29.912   3.006  50.317  0.00  0.00     0.208 C 
ATOM     37  O3A BIN d   1      29.151   3.974  50.027  0.00  0.00    -0.644 OA
ATOM     38  O3B BIN d   1      31.117   3.240  50.240  0.00  0.00    -0.644 OA
ENDBRANCH   5  36
BRANCH   6  39
ATOM     39  C17 BIN d   1      29.911  -2.078  51.587  0.00  0.00    -0.003 C 
ATOM     40  H12 BIN d   1      29.384  -2.999  51.297  0.00  0.00     0.064 H 
ATOM     41  H13 BIN d   1      30.901  -2.057  51.108  0.00  0.00     0.064 H 
BRANCH  39  42
ATOM     42  C16 BIN d   1      30.165  -2.188  53.078  0.00  0.00    -0.061 C 
ATOM     43  H9  BIN d   1      30.753  -3.094  53.284  0.00  0.00     0.029 H 
ATOM     44  H10 BIN d   1      29.204  -2.246  53.610  0.00  0.00     0.029 H 
ATOM     45  H11 BIN d   1      30.722  -1.304  53.421  0.00  0.00     0.029 H 
ENDBRANCH  39  42
ENDBRANCH   6  39
BRANCH   3  46
ATOM     46  C14 BIN d   1      31.267   0.226  50.034  0.00  0.00     0.227 C 
ATOM     47  O4A BIN d   1      32.151   0.565  50.899  0.00  0.00    -0.643 OA
ATOM     48  O4B BIN d   1      31.415  -0.168  48.928  0.00  0.00    -0.643 OA
ENDBRANCH   3  46
TORSDOF 11
