REMARK  7 active torsions:
REMARK  status: ('A' for Active; 'I' for Inactive)
REMARK    1  A    between atoms: C1_17  and  P1_1 
REMARK    2  A    between atoms: C4_16  and  C2_5 
REMARK    3  A    between atoms: C2_5  and  C1_17 
REMARK    4  A    between atoms: S1_15  and  C3_6 
REMARK    5  A    between atoms: C3_6  and  C4_16 
REMARK    6  A    between atoms: C8_8  and  S1_15 
REMARK    7  A    between atoms: C7_9  and  OH_10 
ROOT
ATOM      1  C3  HF1 d   1      48.339  27.940  14.741  0.00  0.00    -0.019 C 
ATOM      2  H3  HF1 d   1      47.431  28.502  15.006  0.00  0.00     0.049 H 
ATOM      3  H4  HF1 d   1      48.071  27.100  14.084  0.00  0.00     0.049 H 
ENDROOT
BRANCH   1   4
ATOM      4  S1  HF1 d   1      49.087  27.293  16.243  0.00  0.00    -0.127 SA
BRANCH   4   5
ATOM      5  C8  HF1 d   1      50.347  26.126  15.716  0.00  0.00     0.036 A 
ATOM      6  C9  HF1 d   1      49.965  24.763  15.632  0.00  0.00    -0.027 A 
ATOM      7  C10 HF1 d   1      50.885  23.796  15.239  0.00  0.00     0.117 A 
ATOM      8  H5  HF1 d   1      48.950  24.473  15.876  0.00  0.00     0.090 H 
ATOM      9  C5  HF1 d   1      52.226  24.172  14.911  0.00  0.00    -0.043 A 
ATOM     10  F   HF1 d   1      50.500  22.476  15.166  0.00  0.00    -0.206 F 
ATOM     11  C6  HF1 d   1      52.629  25.532  14.987  0.00  0.00    -0.047 A 
ATOM     12  H8  HF1 d   1      52.938  23.415  14.603  0.00  0.00     0.088 H 
ATOM     13  C7  HF1 d   1      51.705  26.519  15.385  0.00  0.00     0.082 A 
ATOM     14  H7  HF1 d   1      53.647  25.811  14.739  0.00  0.00     0.087 H 
BRANCH  13  15
ATOM     15  OH  HF1 d   1      52.137  27.875  15.457  0.00  0.00    -0.359 OA
ATOM     16  H6  HF1 d   1      53.051  27.929  15.204  0.00  0.00     0.217 HD
ENDBRANCH  13  15
ENDBRANCH   4   5
ENDBRANCH   1   4
BRANCH   1  17
ATOM     17  C4  HF1 d   1      49.298  28.868  13.996  0.00  0.00    -0.056 C 
ATOM     18  H9  HF1 d   1      49.576  29.699  14.661  0.00  0.00     0.034 H 
ATOM     19  H10 HF1 d   1      50.199  28.300  13.722  0.00  0.00     0.034 H 
BRANCH  17  20
ATOM     20  C2  HF1 d   1      48.667  29.448  12.714  0.00  0.00    -0.053 C 
ATOM     21  H1  HF1 d   1      49.172  30.404  12.511  0.00  0.00     0.034 H 
ATOM     22  H2  HF1 d   1      47.605  29.633  12.933  0.00  0.00     0.034 H 
BRANCH  20  23
ATOM     23  C1  HF1 d   1      48.721  28.631  11.421  0.00  0.00     0.039 C 
ATOM     24  H11 HF1 d   1      49.663  28.063  11.405  0.00  0.00     0.053 H 
ATOM     25  H12 HF1 d   1      47.871  27.933  11.412  0.00  0.00     0.053 H 
BRANCH  23  26
ATOM     26  P1  HF1 d   1      48.638  29.680   9.896  0.00  0.00     0.259 P 
ATOM     27  O3  HF1 d   1      47.412  30.405   9.870  0.00  0.00    -0.640 OA
ATOM     28  O1  HF1 d   1      48.722  28.861   8.760  0.00  0.00    -0.640 OA
ATOM     29  O2  HF1 d   1      49.706  30.585   9.937  0.00  0.00    -0.640 OA
ENDBRANCH  23  26
ENDBRANCH  20  23
ENDBRANCH  17  20
ENDBRANCH   1  17
TORSDOF 7
