REMARK  11 active torsions:
REMARK  status: ('A' for Active; 'I' for Inactive)
REMARK    1  A    between atoms: C_1  and  C1_2 
REMARK    2  A    between atoms: S_8  and  C_1 
REMARK    3  A    between atoms: N_11  and  S_8 
REMARK    4  A    between atoms: CA_12  and  N_11 
REMARK    5  A    between atoms: CA_19  and  N_18 
REMARK    6  A    between atoms: C_20  and  CA_19 
REMARK       I    between atoms: N_24  and  C_20 
REMARK    7  A    between atoms: CA_25  and  N_24 
REMARK    8  A    between atoms: CA_25  and  C_26 
REMARK    9  A    between atoms: CB_28  and  CA_25 
REMARK   10  A    between atoms: C_26  and  O_27 
REMARK   11  A    between atoms: CG_32  and  CB_28 
REMARK       I    between atoms: NE_30  and  CZ_29 
REMARK       I    between atoms: CZ_29  and  NH1_34 
ROOT
ATOM      1  CA  0KV d   1      18.020 -12.371  21.156  0.00  0.00     0.071 C 
ATOM      2  H16 0KV d   1      18.615 -11.774  20.449  0.00  0.00     0.079 H 
ATOM      3  H17 0KV d   1      17.829 -11.781  22.064  0.00  0.00     0.079 H 
ENDROOT
BRANCH   1   4
ATOM      4  N   0KV d   1      18.659 -13.655  21.461  0.00  0.00    -0.342 N 
ATOM      5  C   0KV d   1      17.939 -14.315  22.340  0.00  0.00     0.243 C 
ATOM      6  CA  0KV d   1      18.540 -15.644  22.878  0.00  0.00     0.097 C 
ATOM      7  O   0KV d   1      16.963 -13.936  22.987  0.00  0.00    -0.271 OA
ATOM      8  CB  0KV d   1      19.160 -16.412  21.751  0.00  0.00    -0.036 C 
ATOM      9  H9  0KV d   1      19.364 -15.382  23.558  0.00  0.00     0.088 H 
ATOM     10  CG  0KV d   1      20.219 -15.576  21.075  0.00  0.00    -0.048 C 
ATOM     11  H10 0KV d   1      18.382 -16.675  21.019  0.00  0.00     0.036 H 
ATOM     12  H11 0KV d   1      19.619 -17.331  22.146  0.00  0.00     0.036 H 
ATOM     13  CD  0KV d   1      19.834 -14.158  20.728  0.00  0.00    -0.002 C 
ATOM     14  H12 0KV d   1      20.501 -16.084  20.141  0.00  0.00     0.035 H 
ATOM     15  H13 0KV d   1      21.090 -15.532  21.746  0.00  0.00     0.035 H 
ATOM     16  H14 0KV d   1      19.614 -14.114  19.651  0.00  0.00     0.064 H 
ATOM     17  H15 0KV d   1      20.688 -13.503  20.955  0.00  0.00     0.064 H 
BRANCH   6  18
ATOM     18  N   0KV d   1      17.590 -16.324  23.663  0.00  0.00    -0.305 N 
ATOM     19  H8  0KV d   1      16.647 -15.992  23.649  0.00  0.00     0.173 HD
BRANCH  18  20
ATOM     20  S   0KV d   1      17.937 -17.644  24.612  0.00  0.00     0.231 S 
ATOM     21  O1S 0KV d   1      16.677 -18.196  24.969  0.00  0.00    -0.206 OA
ATOM     22  O2S 0KV d   1      18.904 -18.295  23.788  0.00  0.00    -0.206 OA
BRANCH  20  23
ATOM     23  C   0KV d   1      18.628 -17.100  26.164  0.00  0.00     0.070 C 
ATOM     24  H1  0KV d   1      17.860 -16.513  26.690  0.00  0.00     0.066 H 
ATOM     25  H2  0KV d   1      18.877 -17.993  26.756  0.00  0.00     0.066 H 
BRANCH  23  26
ATOM     26  C1  0KV d   1      19.858 -16.260  26.060  0.00  0.00    -0.043 C 
ATOM     27  C2  0KV d   1      19.706 -14.891  26.207  0.00  0.00    -0.076 C 
ATOM     28  C3  0KV d   1      20.844 -14.081  26.040  0.00  0.00    -0.082 C 
ATOM     29  H3  0KV d   1      18.741 -14.458  26.443  0.00  0.00     0.084 H 
ATOM     30  C4  0KV d   1      21.984 -14.575  25.425  0.00  0.00    -0.083 C 
ATOM     31  H4  0KV d   1      20.829 -13.057  26.397  0.00  0.00     0.083 H 
ATOM     32  C5  0KV d   1      22.046 -15.936  25.120  0.00  0.00    -0.082 C 
ATOM     33  H5  0KV d   1      22.811 -13.917  25.186  0.00  0.00     0.083 H 
ATOM     34  C6  0KV d   1      21.070 -16.786  25.638  0.00  0.00    -0.076 C 
ATOM     35  H6  0KV d   1      22.839 -16.325  24.491  0.00  0.00     0.083 H 
ATOM     36  H7  0KV d   1      21.257 -17.851  25.710  0.00  0.00     0.084 H 
ENDBRANCH  23  26
ENDBRANCH  20  23
ENDBRANCH  18  20
ENDBRANCH   6  18
ENDBRANCH   1   4
BRANCH   1  37
ATOM     37  C   0KV d   1      16.693 -12.893  20.509  0.00  0.00     0.235 C 
ATOM     38  O   0KV d   1      16.831 -13.737  19.570  0.00  0.00    -0.272 OA
ATOM     39  N   0KV d   1      15.981 -11.661  20.540  0.00  0.00    -0.353 N 
ATOM     40  H22 0KV d   1      16.273 -10.911  21.133  0.00  0.00     0.163 HD
BRANCH  39  41
ATOM     41  CA  0KV d   1      14.779 -11.525  19.656  0.00  0.00     0.033 C 
ATOM     42  H23 0KV d   1      14.533 -12.573  19.429  0.00  0.00     0.075 H 
BRANCH  41  43
ATOM     43  C   0KV d   1      14.902 -10.901  18.260  0.00  0.00     0.035 C 
ATOM     44  H24 0KV d   1      14.803  -9.816  18.408  0.00  0.00     0.077 H 
ATOM     45  H25 0KV d   1      14.039 -11.274  17.689  0.00  0.00     0.077 H 
BRANCH  43  46
ATOM     46  O   0KV d   1      15.891 -11.053  17.518  0.00  0.00    -0.399 OA
ATOM     47  H26 0KV d   1      16.666 -10.717  17.953  0.00  0.00     0.209 HD
ENDBRANCH  43  46
ENDBRANCH  41  43
BRANCH  41  48
ATOM     48  CB  0KV d   1      13.536 -11.001  20.413  0.00  0.00    -0.039 C 
ATOM     49  H27 0KV d   1      12.668 -10.938  19.740  0.00  0.00     0.036 H 
ATOM     50  H28 0KV d   1      13.734 -10.011  20.849  0.00  0.00     0.036 H 
BRANCH  48  51
ATOM     51  CG  0KV d   1      13.293 -12.050  21.523  0.00  0.00    -0.036 C 
ATOM     52  C1  0KV d   1      12.524 -13.306  21.025  0.00  0.00    -0.059 C 
ATOM     53  C2  0KV d   1      12.345 -14.411  22.129  0.00  0.00    -0.049 C 
ATOM     54  H29 0KV d   1      11.527 -12.991  20.683  0.00  0.00     0.033 H 
ATOM     55  H30 0KV d   1      13.080 -13.743  20.182  0.00  0.00     0.033 H 
ATOM     56  C3  0KV d   1      12.694 -13.855  23.541  0.00  0.00     0.012 C 
ATOM     57  H18 0KV d   1      11.300 -14.755  22.127  0.00  0.00     0.035 H 
ATOM     58  H19 0KV d   1      13.010 -15.257  21.902  0.00  0.00     0.035 H 
ATOM     59  NE  0KV d   1      12.164 -12.448  23.740  0.00  0.00    -0.218 N 
ATOM     60  H20 0KV d   1      13.788 -13.843  23.659  0.00  0.00     0.065 H 
ATOM     61  H21 0KV d   1      12.250 -14.513  24.302  0.00  0.00     0.065 H 
ATOM     62  CZ  0KV d   1      11.163 -12.068  24.723  0.00  0.00     0.667 C 
ATOM     63  CD  0KV d   1      12.827 -11.425  22.856  0.00  0.00     0.015 C 
ATOM     64  NH1 0KV d   1      10.465 -12.997  25.301  0.00  0.00    -0.235 N 
ATOM     65  NH2 0KV d   1      10.914 -10.808  24.930  0.00  0.00    -0.235 N 
ATOM     66  H34 0KV d   1       9.752 -12.745  26.000  0.00  0.00     0.174 HD
ATOM     67  H35 0KV d   1      10.625 -13.986  25.061  0.00  0.00     0.174 HD
ATOM     68  H36 0KV d   1      11.481 -10.087  24.461  0.00  0.00     0.174 HD
ATOM     69  H37 0KV d   1      10.150 -10.531  25.563  0.00  0.00     0.174 HD
ATOM     70  H32 0KV d   1      13.700 -11.010  23.381  0.00  0.00     0.065 H 
ATOM     71  H33 0KV d   1      12.110 -10.618  22.642  0.00  0.00     0.065 H 
ATOM     72  H31 0KV d   1      14.296 -12.437  21.756  0.00  0.00     0.042 H 
ENDBRANCH  48  51
ENDBRANCH  41  48
ENDBRANCH  39  41
ENDBRANCH   1  37
TORSDOF 11
