REMARK  8 active torsions:
REMARK  status: ('A' for Active; 'I' for Inactive)
REMARK    1  A    between atoms: C1_13  and  N1_1 
REMARK    2  A    between atoms: S_15  and  C4_4 
REMARK    3  A    between atoms: C8_7  and  C9_26 
REMARK    4  A    between atoms: C8_7  and  C20_25 
REMARK    5  A    between atoms: N_24  and  C8_7 
REMARK    6  A    between atoms: C11_9  and  C16_21 
REMARK    7  A    between atoms: N_24  and  S_15 
REMARK    8  A    between atoms: C20_25  and  C28_36 
ROOT
ATOM      1  C2  DPS d   1      16.240   8.621  20.269  0.00  0.00    -0.056 A 
ATOM      2  C3  DPS d   1      15.782   7.766  21.249  0.00  0.00    -0.058 A 
ATOM      3  C4  DPS d   1      15.375   6.487  20.909  0.00  0.00     0.079 A 
ATOM      4  C5  DPS d   1      15.300   6.083  19.589  0.00  0.00    -0.058 A 
ATOM      5  C1  DPS d   1      16.310   8.196  18.935  0.00  0.00     0.030 A 
ATOM      6  C6  DPS d   1      15.783   6.941  18.610  0.00  0.00    -0.056 A 
ATOM      7  H1  DPS d   1      16.547   9.627  20.531  0.00  0.00     0.087 H 
ATOM      8  H2  DPS d   1      15.741   8.094  22.281  0.00  0.00     0.086 H 
ATOM      9  H3  DPS d   1      14.875   5.121  19.325  0.00  0.00     0.086 H 
ATOM     10  H9  DPS d   1      15.751   6.632  17.571  0.00  0.00     0.087 H 
ENDROOT
BRANCH   3  11
ATOM     11  S   DPS d   1      15.017   5.350  22.194  0.00  0.00     0.259 S 
ATOM     12  O1  DPS d   1      15.778   5.756  23.343  0.00  0.00    -0.201 OA
ATOM     13  O2  DPS d   1      15.178   4.047  21.673  0.00  0.00    -0.201 OA
BRANCH  11  14
ATOM     14  N   DPS d   1      13.406   5.488  22.701  0.00  0.00    -0.300 N 
ATOM     15  H21 DPS d   1      13.178   5.911  23.578  0.00  0.00     0.173 HD
BRANCH  14  16
ATOM     16  C8  DPS d   1      12.368   4.977  21.830  0.00  0.00     0.107 C 
ATOM     17  H5  DPS d   1      12.803   4.165  21.229  0.00  0.00     0.091 H 
BRANCH  16  18
ATOM     18  C9  DPS d   1      11.886   6.048  20.865  0.00  0.00     0.197 C 
ATOM     19  O4  DPS d   1      11.567   5.764  19.759  0.00  0.00    -0.646 OA
ATOM     20  O3  DPS d   1      11.832   7.299  21.382  0.00  0.00    -0.646 OA
ENDBRANCH  16  18
BRANCH  16  21
ATOM     21  C20 DPS d   1      11.225   4.378  22.660  0.00  0.00    -0.010 C 
ATOM     22  H22 DPS d   1      10.923   5.100  23.433  0.00  0.00     0.044 H 
ATOM     23  H23 DPS d   1      11.574   3.451  23.139  0.00  0.00     0.044 H 
BRANCH  21  24
ATOM     24  C28 DPS d   1      10.032   4.064  21.780  0.00  0.00    -0.028 A 
ATOM     25  C27 DPS d   1       9.799   2.881  21.068  0.00  0.00    -0.015 A 
ATOM     26  N7  DPS d   1       8.612   2.983  20.413  0.00  0.00    -0.365 N 
ATOM     27  H28 DPS d   1      10.462   2.018  21.043  0.00  0.00     0.112 H 
ATOM     28  C23 DPS d   1       8.034   4.235  20.657  0.00  0.00     0.042 A 
ATOM     29  H4  DPS d   1       8.198   2.247  19.823  0.00  0.00     0.165 HD
ATOM     30  C24 DPS d   1       8.896   4.935  21.539  0.00  0.00    -0.002 A 
ATOM     31  C22 DPS d   1       6.865   4.835  20.256  0.00  0.00    -0.056 A 
ATOM     32  C25 DPS d   1       8.599   6.219  21.938  0.00  0.00    -0.070 A 
ATOM     33  C26 DPS d   1       7.423   6.833  21.515  0.00  0.00    -0.082 A 
ATOM     34  H26 DPS d   1       9.284   6.755  22.585  0.00  0.00     0.084 H 
ATOM     35  C21 DPS d   1       6.564   6.145  20.661  0.00  0.00    -0.081 A 
ATOM     36  H27 DPS d   1       7.179   7.836  21.847  0.00  0.00     0.083 H 
ATOM     37  H24 DPS d   1       5.658   6.624  20.307  0.00  0.00     0.083 H 
ATOM     38  H25 DPS d   1       6.171   4.294  19.623  0.00  0.00     0.086 H 
ENDBRANCH  21  24
ENDBRANCH  16  21
ENDBRANCH  14  16
ENDBRANCH  11  14
ENDBRANCH   3  11
BRANCH   5  39
ATOM     39  N1  DPS d   1      16.989   9.006  17.952  0.00  0.00    -0.381 N 
ATOM     40  C18 DPS d   1      16.854   8.712  16.510  0.00  0.00    -0.004 C 
ATOM     41  C7  DPS d   1      17.967   9.309  15.652  0.00  0.00    -0.043 C 
ATOM     42  H16 DPS d   1      15.893   9.118  16.162  0.00  0.00     0.064 H 
ATOM     43  H17 DPS d   1      16.861   7.620  16.377  0.00  0.00     0.064 H 
ATOM     44  C11 DPS d   1      18.168  10.781  15.997  0.00  0.00    -0.026 C 
ATOM     45  H10 DPS d   1      18.902   8.761  15.838  0.00  0.00     0.036 H 
ATOM     46  H11 DPS d   1      17.695   9.219  14.590  0.00  0.00     0.036 H 
ATOM     47  C13 DPS d   1      18.583  10.932  17.458  0.00  0.00    -0.043 C 
ATOM     48  H7  DPS d   1      17.192  11.277  15.886  0.00  0.00     0.047 H 
ATOM     49  C15 DPS d   1      17.566  10.293  18.387  0.00  0.00    -0.004 C 
ATOM     50  H12 DPS d   1      19.559  10.446  17.606  0.00  0.00     0.036 H 
ATOM     51  H13 DPS d   1      18.666  12.002  17.698  0.00  0.00     0.036 H 
ATOM     52  H14 DPS d   1      18.058  10.127  19.357  0.00  0.00     0.064 H 
ATOM     53  H15 DPS d   1      16.737  11.005  18.514  0.00  0.00     0.064 H 
BRANCH  44  54
ATOM     54  C16 DPS d   1      19.111  11.466  15.047  0.00  0.00    -0.054 A 
ATOM     55  C17 DPS d   1      18.644  11.836  13.782  0.00  0.00    -0.076 A 
ATOM     56  C19 DPS d   1      19.450  12.571  12.912  0.00  0.00    -0.082 A 
ATOM     57  H19 DPS d   1      17.645  11.549  13.474  0.00  0.00     0.084 H 
ATOM     58  C10 DPS d   1      20.740  12.932  13.294  0.00  0.00    -0.083 A 
ATOM     59  H20 DPS d   1      19.072  12.861  11.938  0.00  0.00     0.083 H 
ATOM     60  C12 DPS d   1      21.221  12.532  14.534  0.00  0.00    -0.082 A 
ATOM     61  H6  DPS d   1      21.363  13.520  12.630  0.00  0.00     0.083 H 
ATOM     62  C14 DPS d   1      20.415  11.800  15.405  0.00  0.00    -0.076 A 
ATOM     63  H8  DPS d   1      22.232  12.791  14.827  0.00  0.00     0.083 H 
ATOM     64  H18 DPS d   1      20.806  11.489  16.367  0.00  0.00     0.084 H 
ENDBRANCH  44  54
ENDBRANCH   5  39
TORSDOF 8
