REMARK  10 active torsions:
REMARK  status: ('A' for Active; 'I' for Inactive)
REMARK    1  A    between atoms: C1_1  and  C16_16 
REMARK    2  A    between atoms: C1_1  and  C17_17 
REMARK    3  A    between atoms: C5_5  and  C18_18 
REMARK    4  A    between atoms: C6_6  and  C7_7 
REMARK    5  A    between atoms: C8_8  and  C9_9 
REMARK    6  A    between atoms: C9_9  and  C19_19 
REMARK    7  A    between atoms: C10_10  and  C11_11 
REMARK    8  A    between atoms: C12_12  and  C13_13 
REMARK    9  A    between atoms: C13_13  and  C20_20 
REMARK   10  A    between atoms: C14_14  and  C15_15 
ROOT
ATOM      1  C7  REA d   1       4.867   4.741  -9.787  0.00  0.00    -0.075 C 
ATOM      2  C8  REA d   1       5.009   5.685  -8.849  0.00  0.00    -0.077 C 
ATOM      3  H7  REA d   1       3.935   4.770 -10.350  0.00  0.00     0.084 H 
ATOM      4  H8  REA d   1       5.940   5.679  -8.284  0.00  0.00     0.084 H 
ENDROOT
BRANCH   1   5
ATOM      5  C6  REA d   1       5.809   3.664 -10.159  0.00  0.00    -0.048 C 
ATOM      6  C1  REA d   1       5.092   2.427 -10.794  0.00  0.00    -0.020 C 
ATOM      7  C2  REA d   1       6.079   1.239 -10.879  0.00  0.00    -0.054 C 
ATOM      8  C3  REA d   1       7.457   1.588 -11.340  0.00  0.00    -0.061 C 
ATOM      9  H1  REA d   1       5.663   0.500 -11.580  0.00  0.00     0.034 H 
ATOM     10  H2  REA d   1       6.159   0.790  -9.878  0.00  0.00     0.034 H 
ATOM     11  C4  REA d   1       8.109   2.616 -10.479  0.00  0.00    -0.044 C 
ATOM     12  H3  REA d   1       7.396   1.976 -12.367  0.00  0.00     0.033 H 
ATOM     13  H4  REA d   1       8.073   0.677 -11.328  0.00  0.00     0.033 H 
ATOM     14  C5  REA d   1       7.171   3.770 -10.104  0.00  0.00    -0.077 C 
ATOM     15  H5  REA d   1       8.973   3.029 -11.020  0.00  0.00     0.039 H 
ATOM     16  H6  REA d   1       8.454   2.131  -9.554  0.00  0.00     0.039 H 
BRANCH   6  17
ATOM     17  C16 REA d   1       3.907   2.000  -9.919  0.00  0.00    -0.065 C 
ATOM     18  H13 REA d   1       3.189   2.830  -9.843  0.00  0.00     0.028 H 
ATOM     19  H14 REA d   1       4.269   1.736  -8.915  0.00  0.00     0.028 H 
ATOM     20  H15 REA d   1       3.412   1.128 -10.372  0.00  0.00     0.028 H 
ENDBRANCH   6  17
BRANCH   6  21
ATOM     21  C17 REA d   1       4.582   2.798 -12.213  0.00  0.00    -0.065 C 
ATOM     22  H16 REA d   1       5.433   3.104 -12.840  0.00  0.00     0.028 H 
ATOM     23  H17 REA d   1       3.864   3.628 -12.139  0.00  0.00     0.028 H 
ATOM     24  H18 REA d   1       4.089   1.925 -12.665  0.00  0.00     0.028 H 
ENDBRANCH   6  21
BRANCH  14  25
ATOM     25  C18 REA d   1       7.980   4.939  -9.536  0.00  0.00    -0.054 C 
ATOM     26  H19 REA d   1       7.299   5.761  -9.270  0.00  0.00     0.033 H 
ATOM     27  H20 REA d   1       8.699   5.288 -10.291  0.00  0.00     0.033 H 
ATOM     28  H21 REA d   1       8.523   4.608  -8.638  0.00  0.00     0.033 H 
ENDBRANCH  14  25
ENDBRANCH   1   5
BRANCH   2  29
ATOM     29  C9  REA d   1       4.049   6.712  -8.512  0.00  0.00    -0.062 C 
ATOM     30  C10 REA d   1       4.383   7.602  -7.555  0.00  0.00    -0.077 C 
ATOM     31  H9  REA d   1       5.365   7.513  -7.093  0.00  0.00     0.084 H 
BRANCH  30  32
ATOM     32  C11 REA d   1       3.513   8.670  -7.105  0.00  0.00    -0.082 C 
ATOM     33  C12 REA d   1       3.962   9.509  -6.167  0.00  0.00    -0.077 C 
ATOM     34  H11 REA d   1       4.973   9.371  -5.785  0.00  0.00     0.084 H 
ATOM     35  H10 REA d   1       2.514   8.786  -7.523  0.00  0.00     0.083 H 
BRANCH  33  36
ATOM     36  C13 REA d   1       3.164  10.592  -5.637  0.00  0.00    -0.056 C 
ATOM     37  C14 REA d   1       3.703  11.399  -4.689  0.00  0.00    -0.004 C 
ATOM     38  H12 REA d   1       4.726  11.172  -4.391  0.00  0.00     0.094 H 
BRANCH  37  39
ATOM     39  C15 REA d   1       3.071  12.543  -4.016  0.00  0.00     0.199 C 
ATOM     40  O1  REA d   1       2.524  13.433  -4.704  0.00  0.00    -0.644 OA
ATOM     41  O2  REA d   1       3.090  12.602  -2.766  0.00  0.00    -0.644 OA
ENDBRANCH  37  39
BRANCH  36  42
ATOM     42  C20 REA d   1       1.730  10.778  -6.162  0.00  0.00    -0.051 C 
ATOM     43  H25 REA d   1       1.515  10.011  -6.921  0.00  0.00     0.033 H 
ATOM     44  H26 REA d   1       1.631  11.777  -6.612  0.00  0.00     0.033 H 
ATOM     45  H27 REA d   1       1.019  10.679  -5.329  0.00  0.00     0.033 H 
ENDBRANCH  36  42
ENDBRANCH  33  36
ENDBRANCH  30  32
BRANCH  29  46
ATOM     46  C19 REA d   1       2.716   6.801  -9.266  0.00  0.00    -0.051 C 
ATOM     47  H22 REA d   1       2.652   5.981  -9.996  0.00  0.00     0.033 H 
ATOM     48  H23 REA d   1       2.656   7.765  -9.792  0.00  0.00     0.033 H 
ATOM     49  H24 REA d   1       1.884   6.721  -8.551  0.00  0.00     0.033 H 
ENDBRANCH  29  46
ENDBRANCH   2  29
TORSDOF 10
