REMARK  2 active torsions:
REMARK  status: ('A' for Active; 'I' for Inactive)
REMARK    1  A    between atoms: C1_1  and  C_7 
REMARK    2  A    between atoms: C_7  and  N1_8 
ROOT
ATOM      1  C1  BEN d   1      12.112  28.631  26.215  0.00  0.00     0.007 A 
ATOM      2  C2  BEN d   1      11.407  27.948  27.343  0.00  0.00    -0.069 A 
ATOM      3  C3  BEN d   1      11.257  28.592  28.655  0.00  0.00    -0.082 A 
ATOM      4  C4  BEN d   1      11.744  29.965  28.850  0.00  0.00    -0.083 A 
ATOM      5  C5  BEN d   1      12.390  30.687  27.757  0.00  0.00    -0.082 A 
ATOM      6  C6  BEN d   1      12.616  30.016  26.474  0.00  0.00    -0.069 A 
ATOM      7  H1  BEN d   1      10.998  26.956  27.189  0.00  0.00     0.085 H 
ATOM      8  H2  BEN d   1      10.790  28.058  29.474  0.00  0.00     0.083 H 
ATOM      9  H3  BEN d   1      11.623  30.446  29.814  0.00  0.00     0.083 H 
ATOM     10  H4  BEN d   1      12.701  31.716  27.895  0.00  0.00     0.083 H 
ATOM     11  H5  BEN d   1      13.161  30.535  25.694  0.00  0.00     0.085 H 
ENDROOT
BRANCH   1  12
ATOM     12  C   BEN d   1      12.353  27.968  24.949  0.00  0.00     0.102 C 
ATOM     13  N2  BEN d   1      12.192  26.640  24.749  0.00  0.00    -0.385 N 
ATOM     14  H8  BEN d   1      11.882  26.036  25.524  0.00  0.00     0.157 HD
ATOM     15  H9  BEN d   1      12.379  26.232  23.822  0.00  0.00     0.157 HD
BRANCH  12  16
ATOM     16  N1  BEN d   1      12.763  28.600  23.825  0.00  0.00    -0.385 N 
ATOM     17  H6  BEN d   1      12.915  28.064  22.959  0.00  0.00     0.157 HD
ATOM     18  H7  BEN d   1      12.924  29.617  23.836  0.00  0.00     0.157 HD
ENDBRANCH  12  16
ENDBRANCH   1  12
TORSDOF 2
