REMARK  6 active torsions:
REMARK  status: ('A' for Active; 'I' for Inactive)
REMARK    1  A    between atoms: C1_1  and  C2_4 
REMARK    2  A    between atoms: C2_4  and  C3_5 
REMARK    3  A    between atoms: C3_5  and  C4_6 
REMARK    4  A    between atoms: C4_6  and  C5_7 
REMARK    5  A    between atoms: C5_7  and  C6_8 
REMARK    6  A    between atoms: C6_8  and  N6_9 
ROOT
ATOM      1  C4  ACA d   1      33.916   2.928 -31.090  0.00  0.00    -0.063 C 
ATOM      2  H5  ACA d   1      33.507   3.276 -32.050  0.00  0.00     0.033 H 
ATOM      3  H6  ACA d   1      33.489   3.526 -30.271  0.00  0.00     0.033 H 
ENDROOT
BRANCH   1   4
ATOM      4  C3  ACA d   1      35.464   3.068 -31.094  0.00  0.00    -0.056 C 
ATOM      5  H3  ACA d   1      35.925   2.100 -31.340  0.00  0.00     0.033 H 
ATOM      6  H4  ACA d   1      35.768   3.819 -31.838  0.00  0.00     0.033 H 
BRANCH   4   7
ATOM      7  C2  ACA d   1      35.907   3.512 -29.701  0.00  0.00     0.016 C 
ATOM      8  H1  ACA d   1      35.119   4.088 -29.193  0.00  0.00     0.049 H 
ATOM      9  H2  ACA d   1      36.194   2.653 -29.077  0.00  0.00     0.049 H 
BRANCH   7  10
ATOM     10  C1  ACA d   1      37.158   4.421 -30.046  0.00  0.00     0.172 C 
ATOM     11  O1  ACA d   1      38.145   3.684 -30.269  0.00  0.00    -0.648 OA
ATOM     12  O2  ACA d   1      36.919   5.669 -30.014  0.00  0.00    -0.648 OA
ENDBRANCH   7  10
ENDBRANCH   4   7
ENDBRANCH   1   4
BRANCH   1  13
ATOM     13  C5  ACA d   1      33.578   1.456 -30.887  0.00  0.00    -0.043 C 
ATOM     14  H7  ACA d   1      33.519   1.265 -29.805  0.00  0.00     0.035 H 
ATOM     15  H8  ACA d   1      34.391   0.856 -31.321  0.00  0.00     0.035 H 
BRANCH  13  16
ATOM     16  C6  ACA d   1      32.320   1.024 -31.494  0.00  0.00     0.080 C 
ATOM     17  H9  ACA d   1      31.599   1.851 -31.410  0.00  0.00     0.075 H 
ATOM     18  H10 ACA d   1      31.950   0.155 -30.930  0.00  0.00     0.075 H 
BRANCH  16  19
ATOM     19  N6  ACA d   1      32.413   0.640 -32.918  0.00  0.00    -0.079 N 
ATOM     20  H11 ACA d   1      31.504   0.358 -33.250  0.00  0.00     0.274 HD
ATOM     21  H12 ACA d   1      33.060  -0.127 -33.018  0.00  0.00     0.274 HD
ATOM     22  H13 ACA d   1      32.739   1.427 -33.458  0.00  0.00     0.274 HD
ENDBRANCH  16  19
ENDBRANCH  13  16
ENDBRANCH   1  13
TORSDOF 6
