REMARK  12 active torsions:
REMARK  status: ('A' for Active; 'I' for Inactive)
REMARK    1  A    between atoms: C2_2  and  NA2_3 
REMARK    2  A    between atoms: C9_13  and  C6_9 
REMARK    3  A    between atoms: N10_14  and  C9_13 
REMARK    4  A    between atoms: C14_18  and  N10_14 
REMARK    5  A    between atoms: N10_14  and  CP1_33 
REMARK    6  A    between atoms: C11_15  and  C_21 
REMARK       I    between atoms: C_21  and  N_23 
REMARK    7  A    between atoms: N_23  and  CA_24 
REMARK    8  A    between atoms: CA_24  and  CB_25 
REMARK    9  A    between atoms: CA_24  and  CT_30 
REMARK   10  A    between atoms: CB_25  and  CG_26 
REMARK   11  A    between atoms: CG_26  and  CD_27 
REMARK   12  A    between atoms: CP1_33  and  CP2_34 
ROOT
ATOM      1  CP2 CB3 d   1     111.586 -20.286  48.676  0.00  0.00    -0.098 C 
ATOM      2  CP3 CB3 d   1     111.243 -19.265  48.146  0.00  0.00    -0.152 C 
ATOM      3  H21 CB3 d   1     110.941 -18.367  47.680  0.00  0.00     0.166 H 
ENDROOT
BRANCH   1   4
ATOM      4  CP1 CB3 d   1     111.996 -21.588  49.219  0.00  0.00     0.050 C 
ATOM      5  H19 CB3 d   1     111.182 -22.308  49.047  0.00  0.00     0.083 H 
ATOM      6  H20 CB3 d   1     112.898 -21.919  48.683  0.00  0.00     0.083 H 
BRANCH   4   7
ATOM      7  N10 CB3 d   1     112.298 -21.561  50.672  0.00  0.00    -0.366 N 
BRANCH   7   8
ATOM      8  C9  CB3 d   1     111.741 -22.762  51.374  0.00  0.00     0.020 C 
ATOM      9  H7  CB3 d   1     111.201 -23.355  50.622  0.00  0.00     0.071 H 
ATOM     10  H8  CB3 d   1     112.596 -23.341  51.753  0.00  0.00     0.071 H 
BRANCH   8  11
ATOM     11  C6  CB3 d   1     110.810 -22.553  52.519  0.00  0.00    -0.039 A 
ATOM     12  C5  CB3 d   1     110.249 -21.256  52.871  0.00  0.00    -0.059 A 
ATOM     13  C4A CB3 d   1     109.554 -21.038  54.120  0.00  0.00     0.048 A 
ATOM     14  H4  CB3 d   1     110.356 -20.430  52.177  0.00  0.00     0.086 H 
ATOM     15  C4  CB3 d   1     108.946 -19.789  54.553  0.00  0.00     0.231 A 
ATOM     16  C8A CB3 d   1     109.420 -22.162  55.060  0.00  0.00     0.064 A 
ATOM     17  N3  CB3 d   1     108.372 -19.683  55.812  0.00  0.00    -0.037 NA
ATOM     18  O4  CB3 d   1     108.867 -18.661  53.742  0.00  0.00    -0.169 OA
ATOM     19  C2  CB3 d   1     108.303 -20.744  56.686  0.00  0.00     0.701 A 
ATOM     20  N1  CB3 d   1     108.785 -21.973  56.276  0.00  0.00    -0.189 N 
ATOM     21  H1  CB3 d   1     108.667 -22.783  56.902  0.00  0.00     0.184 HD
ATOM     22  C8  CB3 d   1     109.965 -23.457  54.699  0.00  0.00    -0.055 A 
ATOM     23  C7  CB3 d   1     110.648 -23.652  53.438  0.00  0.00    -0.073 A 
ATOM     24  H6  CB3 d   1     109.859 -24.291  55.384  0.00  0.00     0.087 H 
ATOM     25  H5  CB3 d   1     111.040 -24.630  53.183  0.00  0.00     0.084 H 
BRANCH  19  26
ATOM     26  NA2 CB3 d   1     107.800 -20.576  57.911  0.00  0.00    -0.233 N 
ATOM     27  H2  CB3 d   1     107.445 -19.653  58.200  0.00  0.00     0.174 HD
ATOM     28  H3  CB3 d   1     107.767 -21.369  58.567  0.00  0.00     0.174 HD
ENDBRANCH  19  26
ENDBRANCH   8  11
ENDBRANCH   7   8
BRANCH   7  29
ATOM     29  C14 CB3 d   1     113.226 -20.670  51.169  0.00  0.00     0.031 A 
ATOM     30  C13 CB3 d   1     114.135 -21.102  52.210  0.00  0.00    -0.056 A 
ATOM     31  C12 CB3 d   1     115.167 -20.244  52.712  0.00  0.00    -0.066 A 
ATOM     32  H10 CB3 d   1     114.032 -22.100  52.620  0.00  0.00     0.086 H 
ATOM     33  C11 CB3 d   1     115.320 -18.930  52.175  0.00  0.00     0.032 A 
ATOM     34  H9  CB3 d   1     115.829 -20.591  53.497  0.00  0.00     0.085 H 
ATOM     35  C16 CB3 d   1     114.380 -18.444  51.192  0.00  0.00    -0.066 A 
ATOM     36  C15 CB3 d   1     113.341 -19.307  50.693  0.00  0.00    -0.056 A 
ATOM     37  H12 CB3 d   1     114.457 -17.426  50.828  0.00  0.00     0.085 H 
ATOM     38  H11 CB3 d   1     112.640 -18.934  49.956  0.00  0.00     0.086 H 
BRANCH  33  39
ATOM     39  C   CB3 d   1     116.506 -18.190  52.525  0.00  0.00     0.252 C 
ATOM     40  O   CB3 d   1     117.155 -18.434  53.542  0.00  0.00    -0.268 OA
ATOM     41  N   CB3 d   1     116.868 -17.221  51.680  0.00  0.00    -0.342 N 
ATOM     42  H13 CB3 d   1     116.314 -17.152  50.850  0.00  0.00     0.163 HD
BRANCH  41  43
ATOM     43  CA  CB3 d   1     117.966 -16.233  51.786  0.00  0.00     0.097 C 
ATOM     44  H14 CB3 d   1     118.835 -16.728  51.328  0.00  0.00     0.089 H 
BRANCH  43  45
ATOM     45  CB  CB3 d   1     118.453 -15.799  53.171  0.00  0.00    -0.028 C 
ATOM     46  H15 CB3 d   1     117.572 -15.658  53.814  0.00  0.00     0.037 H 
ATOM     47  H16 CB3 d   1     118.984 -14.842  53.062  0.00  0.00     0.037 H 
BRANCH  45  48
ATOM     48  CG  CB3 d   1     119.391 -16.784  53.863  0.00  0.00     0.018 C 
ATOM     49  H17 CB3 d   1     118.853 -17.730  54.020  0.00  0.00     0.049 H 
ATOM     50  H18 CB3 d   1     119.686 -16.364  54.836  0.00  0.00     0.049 H 
BRANCH  48  51
ATOM     51  CD  CB3 d   1     120.650 -17.069  53.054  0.00  0.00     0.172 C 
ATOM     52  OE1 CB3 d   1     121.309 -16.104  52.594  0.00  0.00    -0.648 OA
ATOM     53  OE2 CB3 d   1     120.988 -18.262  52.889  0.00  0.00    -0.648 OA
ENDBRANCH  48  51
ENDBRANCH  45  48
ENDBRANCH  43  45
BRANCH  43  54
ATOM     54  CT  CB3 d   1     117.653 -15.014  50.918  0.00  0.00     0.196 C 
ATOM     55  O1  CB3 d   1     116.960 -15.192  49.891  0.00  0.00    -0.646 OA
ATOM     56  O2  CB3 d   1     118.100 -13.899  51.268  0.00  0.00    -0.646 OA
ENDBRANCH  43  54
ENDBRANCH  41  43
ENDBRANCH  33  39
ENDBRANCH   7  29
ENDBRANCH   4   7
ENDBRANCH   1   4
TORSDOF 12
