REMARK  6 active torsions:
REMARK  status: ('A' for Active; 'I' for Inactive)
REMARK    1  A    between atoms: C2_17  and  S10_25 
REMARK    2  A    between atoms: N14_29  and  C5_20 
REMARK    3  A    between atoms: C7_22  and  C15_30 
REMARK    4  A    between atoms: S10_25  and  N13_28 
REMARK    5  A    between atoms: C18_33  and  N14_29 
REMARK    6  A    between atoms: C18_33  and  C19_34 
ROOT
ATOM      1  H1  ETS d   1      -3.245   1.514  15.418  0.00  0.00     0.087 H 
ATOM      2  H2  ETS d   1      -1.707   3.632  14.498  0.00  0.00     0.092 H 
ATOM      3  H3  ETS d   1      -1.708   5.650  13.006  0.00  0.00     0.038 H 
ATOM      4  H4  ETS d   1      -2.415   5.942  14.631  0.00  0.00     0.038 H 
ATOM      5  H5  ETS d   1      -4.115   5.403  12.164  0.00  0.00     0.064 H 
ATOM      6  S1  ETS d   1      -6.186   3.641  15.700  0.00  0.00    -0.064 SA
ATOM      7  C2  ETS d   1      -5.259   2.249  15.949  0.00  0.00     0.121 A 
ATOM      8  C3  ETS d   1      -3.992   2.304  15.364  0.00  0.00    -0.043 A 
ATOM      9  C4  ETS d   1      -3.820   3.548  14.684  0.00  0.00     0.003 A 
ATOM     10  C5  ETS d   1      -2.600   3.918  13.922  0.00  0.00     0.130 C 
ATOM     11  C6  ETS d   1      -2.563   5.438  13.665  0.00  0.00    -0.018 C 
ATOM     12  C7  ETS d   1      -3.802   6.015  13.023  0.00  0.00     0.048 C 
ATOM     13  S8  ETS d   1      -5.060   6.012  14.281  0.00  0.00     0.186 S 
ATOM     14  C9  ETS d   1      -4.969   4.368  14.788  0.00  0.00     0.110 A 
ATOM     15  O16 ETS d   1      -6.331   6.223  13.641  0.00  0.00    -0.222 OA
ATOM     16  O17 ETS d   1      -4.697   6.810  15.422  0.00  0.00    -0.222 OA
ENDROOT
BRANCH  10  17
ATOM     17  N14 ETS d   1      -2.621   3.175  12.649  0.00  0.00    -0.067 N 
ATOM     18  H8  ETS d   1      -3.344   3.567  12.066  0.00  0.00     0.277 HD
ATOM     19  H9  ETS d   1      -2.836   2.211  12.849  0.00  0.00     0.277 HD
BRANCH  17  20
ATOM     20  C18 ETS d   1      -1.355   3.220  11.906  0.00  0.00     0.079 C 
ATOM     21  H13 ETS d   1      -0.513   3.012  12.582  0.00  0.00     0.075 H 
ATOM     22  H14 ETS d   1      -1.221   4.211  11.447  0.00  0.00     0.075 H 
BRANCH  20  23
ATOM     23  C19 ETS d   1      -1.435   2.145  10.820  0.00  0.00    -0.053 C 
ATOM     24  H15 ETS d   1      -0.503   2.143  10.236  0.00  0.00     0.029 H 
ATOM     25  H16 ETS d   1      -2.284   2.359  10.154  0.00  0.00     0.029 H 
ATOM     26  H17 ETS d   1      -1.576   1.160  11.289  0.00  0.00     0.029 H 
ENDBRANCH  20  23
ENDBRANCH  17  20
ENDBRANCH  10  17
BRANCH  12  27
ATOM     27  C15 ETS d   1      -3.516   7.456  12.563  0.00  0.00    -0.060 C 
ATOM     28  H10 ETS d   1      -2.737   7.445  11.786  0.00  0.00     0.029 H 
ATOM     29  H11 ETS d   1      -3.170   8.053  13.420  0.00  0.00     0.029 H 
ATOM     30  H12 ETS d   1      -4.436   7.900  12.154  0.00  0.00     0.029 H 
ENDBRANCH  12  27
BRANCH   7  31
ATOM     31  S10 ETS d   1      -5.885   0.941  16.891  0.00  0.00     0.263 S 
ATOM     32  O11 ETS d   1      -7.310   0.987  16.729  0.00  0.00    -0.200 OA
ATOM     33  O12 ETS d   1      -5.349   1.041  18.220  0.00  0.00    -0.200 OA
BRANCH  31  34
ATOM     34  N13 ETS d   1      -5.327  -0.520  16.192  0.00  0.00    -0.324 N 
ATOM     35  H6  ETS d   1      -5.584  -1.398  16.596  0.00  0.00     0.169 HD
ATOM     36  H7  ETS d   1      -4.745  -0.495  15.380  0.00  0.00     0.169 HD
ENDBRANCH  31  34
ENDBRANCH   7  31
TORSDOF 6
