REMARK  4 active torsions:
REMARK  status: ('A' for Active; 'I' for Inactive)
REMARK    1  A    between atoms: C2_2  and  S10_10 
REMARK    2  A    between atoms: C5_5  and  N14_14 
REMARK    3  A    between atoms: C7_7  and  C15_15 
REMARK    4  A    between atoms: S10_10  and  N13_13 
ROOT
ATOM      1  S1  PTS d   1      -6.170   3.652  15.475  0.00  0.00    -0.064 SA
ATOM      2  C2  PTS d   1      -5.326   2.202  15.686  0.00  0.00     0.121 A 
ATOM      3  C3  PTS d   1      -3.999   2.288  15.211  0.00  0.00    -0.043 A 
ATOM      4  C4  PTS d   1      -3.730   3.568  14.627  0.00  0.00     0.003 A 
ATOM      5  C5  PTS d   1      -2.418   3.951  13.990  0.00  0.00     0.128 C 
ATOM      6  C6  PTS d   1      -2.316   5.487  13.736  0.00  0.00    -0.019 C 
ATOM      7  C7  PTS d   1      -3.554   6.063  13.053  0.00  0.00     0.048 C 
ATOM      8  S8  PTS d   1      -4.895   6.015  14.214  0.00  0.00     0.186 S 
ATOM      9  C9  PTS d   1      -4.882   4.390  14.657  0.00  0.00     0.110 A 
ATOM     10  O16 PTS d   1      -6.097   6.350  13.488  0.00  0.00    -0.222 OA
ATOM     11  O17 PTS d   1      -4.514   6.831  15.330  0.00  0.00    -0.222 OA
ATOM     12  H1  PTS d   1      -3.271   1.481  15.280  0.00  0.00     0.087 H 
ATOM     13  H2  PTS d   1      -1.607   3.647  14.668  0.00  0.00     0.091 H 
ATOM     14  H3  PTS d   1      -1.442   5.679  13.097  0.00  0.00     0.038 H 
ATOM     15  H4  PTS d   1      -2.182   5.994  14.703  0.00  0.00     0.038 H 
ATOM     16  H5  PTS d   1      -3.785   5.469  12.156  0.00  0.00     0.064 H 
ENDROOT
BRANCH   2  17
ATOM     17  S10 PTS d   1      -5.889   0.921  16.712  0.00  0.00     0.263 S 
ATOM     18  O12 PTS d   1      -5.305   1.054  18.013  0.00  0.00    -0.200 OA
ATOM     19  O11 PTS d   1      -7.313   0.792  16.657  0.00  0.00    -0.200 OA
BRANCH  17  20
ATOM     20  N13 PTS d   1      -5.285  -0.582  16.093  0.00  0.00    -0.324 N 
ATOM     21  H6  PTS d   1      -5.507  -1.439  16.557  0.00  0.00     0.169 HD
ATOM     22  H7  PTS d   1      -4.714  -0.591  15.272  0.00  0.00     0.169 HD
ENDBRANCH  17  20
ENDBRANCH   2  17
BRANCH   5  23
ATOM     23  N14 PTS d   1      -2.235   3.271  12.677  0.00  0.00    -0.071 N 
ATOM     24  H8  PTS d   1      -2.295   2.273  12.804  0.00  0.00     0.275 HD
ATOM     25  H9  PTS d   1      -1.331   3.507  12.299  0.00  0.00     0.275 HD
ATOM     26  H10 PTS d   1      -2.955   3.572  12.039  0.00  0.00     0.275 HD
ENDBRANCH   5  23
BRANCH   7  27
ATOM     27  C15 PTS d   1      -3.412   7.537  12.681  0.00  0.00    -0.060 C 
ATOM     28  H11 PTS d   1      -2.593   7.655  11.957  0.00  0.00     0.029 H 
ATOM     29  H12 PTS d   1      -3.190   8.123  13.585  0.00  0.00     0.029 H 
ATOM     30  H13 PTS d   1      -4.351   7.894  12.234  0.00  0.00     0.029 H 
ENDBRANCH   7  27
TORSDOF 4
