REMARK  14 active torsions:
REMARK  status: ('A' for Active; 'I' for Inactive)
REMARK    1  A    between atoms: N1_1  and  C2_2 
REMARK    2  A    between atoms: C7_6  and  C8_8 
REMARK    3  A    between atoms: C8_8  and  O9_9 
REMARK    4  A    between atoms: O9_9  and  C10_10 
REMARK       I    between atoms: C10_10  and  N12_12 
REMARK    5  A    between atoms: N12_12  and  C13_13 
REMARK    6  A    between atoms: C13_13  and  C14_14 
REMARK    7  A    between atoms: C13_13  and  C21_21 
REMARK    8  A    between atoms: C14_14  and  C15_15 
REMARK    9  A    between atoms: C20_20  and  O23_23 
REMARK       I    between atoms: C21_21  and  N28_28 
REMARK   10  A    between atoms: O23_23  and  P24_24 
REMARK   11  A    between atoms: N28_28  and  C29_29 
REMARK   12  A    between atoms: C29_29  and  C35_35 
REMARK       I    between atoms: C35_35  and  N37_37 
REMARK   13  A    between atoms: N37_37  and  C38_38 
REMARK   14  A    between atoms: C43_43  and  C44_44 
REMARK       I    between atoms: C44_44  and  N45_45 
ROOT
ATOM      1  C21 C78 d   1      32.286  -8.851  29.804  0.00  0.00     0.241 C 
ATOM      2  O22 C78 d   1      32.798  -8.984  30.950  0.00  0.00    -0.271 OA
ATOM      3  N28 C78 d   1      32.979  -8.540  28.700  0.00  0.00    -0.341 N 
ATOM      4  H17 C78 d   1      32.492  -8.463  27.830  0.00  0.00     0.163 HD
ENDROOT
BRANCH   1   5
ATOM      5  C13 C78 d   1      30.802  -9.079  29.582  0.00  0.00     0.095 C 
ATOM      6  H10 C78 d   1      30.608  -9.352  28.534  0.00  0.00     0.088 H 
BRANCH   5   7
ATOM      7  N12 C78 d   1      30.433 -10.154  30.460  0.00  0.00    -0.323 N 
ATOM      8  C10 C78 d   1      30.163 -11.355  29.967  0.00  0.00     0.361 C 
ATOM      9  O11 C78 d   1      30.127 -11.607  28.750  0.00  0.00    -0.238 OA
ATOM     10  H9  C78 d   1      30.380  -9.996  31.446  0.00  0.00     0.165 HD
BRANCH   8  11
ATOM     11  O9  C78 d   1      29.852 -12.314  30.945  0.00  0.00    -0.299 OA
BRANCH  11  12
ATOM     12  C8  C78 d   1      29.585 -13.636  30.437  0.00  0.00     0.054 C 
ATOM     13  H7  C78 d   1      30.248 -13.830  29.581  0.00  0.00     0.082 H 
ATOM     14  H8  C78 d   1      29.786 -14.370  31.231  0.00  0.00     0.082 H 
BRANCH  12  15
ATOM     15  C7  C78 d   1      28.147 -13.782  29.986  0.00  0.00    -0.032 A 
ATOM     16  C5  C78 d   1      27.691 -14.992  29.529  0.00  0.00    -0.075 A 
ATOM     17  C4  C78 d   1      26.366 -15.305  29.442  0.00  0.00    -0.080 A 
ATOM     18  H5  C78 d   1      28.418 -15.735  29.222  0.00  0.00     0.084 H 
ATOM     19  C3  C78 d   1      25.459 -14.404  29.810  0.00  0.00    -0.058 A 
ATOM     20  H4  C78 d   1      26.056 -16.277  29.077  0.00  0.00     0.083 H 
ATOM     21  C2  C78 d   1      25.870 -13.180  30.267  0.00  0.00     0.026 A 
ATOM     22  H3  C78 d   1      24.402 -14.637  29.749  0.00  0.00     0.086 H 
ATOM     23  C6  C78 d   1      27.212 -12.877  30.357  0.00  0.00    -0.050 A 
ATOM     24  H6  C78 d   1      27.520 -11.906  30.728  0.00  0.00     0.087 H 
BRANCH  21  25
ATOM     25  N1  C78 d   1      24.960 -12.255  30.578  0.00  0.00    -0.399 N 
ATOM     26  H1  C78 d   1      23.956 -12.477  30.512  0.00  0.00     0.156 HD
ATOM     27  H2  C78 d   1      25.261 -11.319  30.884  0.00  0.00     0.156 HD
ENDBRANCH  21  25
ENDBRANCH  12  15
ENDBRANCH  11  12
ENDBRANCH   8  11
ENDBRANCH   5   7
BRANCH   5  28
ATOM     28  C14 C78 d   1      30.027  -7.846  29.934  0.00  0.00    -0.014 C 
ATOM     29  H11 C78 d   1      30.313  -7.026  29.259  0.00  0.00     0.043 H 
ATOM     30  H12 C78 d   1      30.245  -7.558  30.973  0.00  0.00     0.043 H 
BRANCH  28  31
ATOM     31  C15 C78 d   1      28.588  -8.123  29.791  0.00  0.00    -0.056 A 
ATOM     32  C16 C78 d   1      27.976  -8.082  28.541  0.00  0.00    -0.074 A 
ATOM     33  C17 C78 d   1      26.614  -8.533  28.358  0.00  0.00    -0.050 A 
ATOM     34  H13 C78 d   1      28.531  -7.705  27.689  0.00  0.00     0.084 H 
ATOM     35  C20 C78 d   1      25.918  -8.988  29.432  0.00  0.00     0.082 A 
ATOM     36  H14 C78 d   1      26.155  -8.508  27.377  0.00  0.00     0.087 H 
ATOM     37  C19 C78 d   1      26.536  -9.010  30.675  0.00  0.00    -0.050 A 
ATOM     38  C18 C78 d   1      27.853  -8.577  30.851  0.00  0.00    -0.074 A 
ATOM     39  H16 C78 d   1      25.982  -9.373  31.533  0.00  0.00     0.087 H 
ATOM     40  H15 C78 d   1      28.297  -8.601  31.840  0.00  0.00     0.084 H 
BRANCH  35  41
ATOM     41  O23 C78 d   1      24.510  -9.422  29.364  0.00  0.00    -0.240 OA
BRANCH  41  42
ATOM     42  P24 C78 d   1      23.839  -9.861  27.926  0.00  0.00     0.427 P 
ATOM     43  O25 C78 d   1      23.644  -8.609  27.060  0.00  0.00    -0.617 OA
ATOM     44  O26 C78 d   1      22.482 -10.527  28.118  0.00  0.00    -0.617 OA
ATOM     45  O27 C78 d   1      24.790 -10.780  27.247  0.00  0.00    -0.617 OA
ENDBRANCH  41  42
ENDBRANCH  35  41
ENDBRANCH  28  31
ENDBRANCH   5  28
ENDBRANCH   1   5
BRANCH   3  46
ATOM     46  C29 C78 d   1      34.420  -8.310  28.723  0.00  0.00     0.114 C 
ATOM     47  C30 C78 d   1      35.052  -7.730  27.512  0.00  0.00    -0.033 C 
ATOM     48  C31 C78 d   1      34.959  -8.652  26.339  0.00  0.00    -0.062 C 
ATOM     49  H18 C78 d   1      36.113  -7.531  27.725  0.00  0.00     0.037 H 
ATOM     50  H19 C78 d   1      34.545  -6.786  27.264  0.00  0.00     0.037 H 
ATOM     51  C32 C78 d   1      35.391 -10.065  26.747  0.00  0.00    -0.065 C 
ATOM     52  H20 C78 d   1      35.617  -8.288  25.536  0.00  0.00     0.033 H 
ATOM     53  H21 C78 d   1      33.920  -8.679  25.978  0.00  0.00     0.033 H 
ATOM     54  C33 C78 d   1      34.729 -10.529  28.034  0.00  0.00    -0.062 C 
ATOM     55  H22 C78 d   1      36.482 -10.073  26.889  0.00  0.00     0.033 H 
ATOM     56  H23 C78 d   1      35.121 -10.763  25.941  0.00  0.00     0.033 H 
ATOM     57  C34 C78 d   1      34.991  -9.588  29.133  0.00  0.00    -0.033 C 
ATOM     58  H24 C78 d   1      35.126 -11.518  28.306  0.00  0.00     0.033 H 
ATOM     59  H25 C78 d   1      33.643 -10.601  27.874  0.00  0.00     0.033 H 
ATOM     60  H26 C78 d   1      34.511  -9.940  30.058  0.00  0.00     0.037 H 
ATOM     61  H27 C78 d   1      36.074  -9.486  29.297  0.00  0.00     0.037 H 
BRANCH  46  62
ATOM     62  C35 C78 d   1      34.715  -7.326  29.772  0.00  0.00     0.246 C 
ATOM     63  O36 C78 d   1      35.678  -7.620  30.443  0.00  0.00    -0.271 OA
ATOM     64  N37 C78 d   1      33.968  -6.240  29.958  0.00  0.00    -0.350 N 
ATOM     65  H28 C78 d   1      33.182  -6.074  29.363  0.00  0.00     0.163 HD
BRANCH  64  66
ATOM     66  C38 C78 d   1      34.274  -5.308  30.996  0.00  0.00     0.040 C 
ATOM     67  C39 C78 d   1      33.607  -5.938  32.137  0.00  0.00    -0.084 C 
ATOM     68  C40 C78 d   1      33.007  -5.158  33.050  0.00  0.00    -0.105 C 
ATOM     69  H30 C78 d   1      33.598  -7.022  32.243  0.00  0.00     0.079 H 
ATOM     70  C41 C78 d   1      32.952  -3.643  32.982  0.00  0.00    -0.049 C 
ATOM     71  H31 C78 d   1      32.527  -5.646  33.897  0.00  0.00     0.076 H 
ATOM     72  C42 C78 d   1      33.809  -3.071  31.938  0.00  0.00    -0.049 C 
ATOM     73  H32 C78 d   1      33.272  -3.239  33.954  0.00  0.00     0.038 H 
ATOM     74  H33 C78 d   1      31.913  -3.341  32.783  0.00  0.00     0.038 H 
ATOM     75  C43 C78 d   1      33.833  -3.876  30.673  0.00  0.00     0.046 C 
ATOM     76  H34 C78 d   1      34.836  -3.006  32.328  0.00  0.00     0.034 H 
ATOM     77  H35 C78 d   1      33.442  -2.062  31.701  0.00  0.00     0.034 H 
ATOM     78  H36 C78 d   1      34.560  -3.440  29.971  0.00  0.00     0.058 H 
ATOM     79  H29 C78 d   1      35.359  -5.282  31.172  0.00  0.00     0.080 H 
BRANCH  75  80
ATOM     80  C44 C78 d   1      32.446  -3.787  30.056  0.00  0.00     0.221 C 
ATOM     81  N45 C78 d   1      31.945  -2.567  29.983  0.00  0.00    -0.370 N 
ATOM     82  H37 C78 d   1      31.037  -2.422  29.590  0.00  0.00     0.159 HD
ATOM     83  H38 C78 d   1      32.474  -1.788  30.321  0.00  0.00     0.159 HD
ATOM     84  O46 C78 d   1      31.839  -4.788  29.638  0.00  0.00    -0.273 OA
ENDBRANCH  75  80
ENDBRANCH  64  66
ENDBRANCH  46  62
ENDBRANCH   3  46
TORSDOF 14
