REMARK  28 active torsions:
REMARK  status: ('A' for Active; 'I' for Inactive)
REMARK    1  A    between atoms: CA_2  and  C_3 
REMARK       I    between atoms: C_3  and  N_8 
REMARK    2  A    between atoms: CA_9  and  C_10 
REMARK       I    between atoms: C_10  and  N_15 
REMARK    3  A    between atoms: CA_16  and  C_17 
REMARK       I    between atoms: C_17  and  N_22 
REMARK    4  A    between atoms: N_22  and  CA_23 
REMARK    5  A    between atoms: CA_23  and  C_24 
REMARK    6  A    between atoms: CA_23  and  CB_26 
REMARK       I    between atoms: C_24  and  N_28 
REMARK    7  A    between atoms: N_28  and  CA_29 
REMARK    8  A    between atoms: CA_29  and  C_30 
REMARK    9  A    between atoms: CA_29  and  CB_32 
REMARK       I    between atoms: C_30  and  N_37 
REMARK   10  A    between atoms: CB_32  and  CG_33 
REMARK   11  A    between atoms: CG_33  and  CD1_34 
REMARK   12  A    between atoms: CG_33  and  CD2_35 
REMARK   13  A    between atoms: CA_38  and  C_39 
REMARK       I    between atoms: C_39  and  N_44 
REMARK   14  A    between atoms: CA_45  and  C_46 
REMARK       I    between atoms: C_46  and  N_51 
REMARK   15  A    between atoms: N_51  and  CA_52 
REMARK   16  A    between atoms: CA_52  and  C_53 
REMARK   17  A    between atoms: CA_52  and  CB_55 
REMARK       I    between atoms: C_53  and  N_64 
REMARK   18  A    between atoms: CB_55  and  CG_56 
REMARK   19  A    between atoms: CG_56  and  CD_57 
REMARK   20  A    between atoms: CD_57  and  CE_58 
REMARK   21  A    between atoms: CE_58  and  NZ_59 
REMARK   22  A    between atoms: N_64  and  CA_65 
REMARK   23  A    between atoms: CA_65  and  C_66 
REMARK   24  A    between atoms: CA_65  and  CB_67 
REMARK   25  A    between atoms: CB_67  and  CG_68 
REMARK   26  A    between atoms: CG_68  and  CD_69 
REMARK   27  A    between atoms: CD_69  and  CE_70 
REMARK   28  A    between atoms: CE_70  and  NZ_71 
ROOT
ATOM      1  N   PRO d   1     118.993 129.872  11.493  0.00  0.00    -0.337 N 
ATOM      2  CA  PRO d   1     119.147 128.493  11.006  0.00  0.00     0.092 C 
ATOM      3  CB  PRO d   1     118.023 127.746  11.729  0.00  0.00    -0.036 C 
ATOM      4  CG  PRO d   1     116.938 128.835  11.858  0.00  0.00    -0.048 C 
ATOM      5  CD  PRO d   1     117.720 130.066  12.212  0.00  0.00    -0.001 C 
ATOM      6  H40 PRO d   1     120.129 128.092  11.296  0.00  0.00     0.087 H 
ATOM      7  H41 PRO d   1     118.351 127.391  12.717  0.00  0.00     0.036 H 
ATOM      8  H42 PRO d   1     117.664 126.894  11.134  0.00  0.00     0.036 H 
ATOM      9  H43 PRO d   1     116.220 128.583  12.652  0.00  0.00     0.035 H 
ATOM     10  H44 PRO d   1     116.401 128.970  10.908  0.00  0.00     0.035 H 
ATOM     11  H45 PRO d   1     117.205 130.974  11.865  0.00  0.00     0.064 H 
ATOM     12  H46 PRO d   1     117.885 130.130  13.298  0.00  0.00     0.064 H 
ATOM     13  C   LEU d   1     119.945 130.763  11.193  0.00  0.00     0.243 C 
ATOM     14  O   LEU d   1     120.935 130.450  10.538  0.00  0.00    -0.271 OA
ENDROOT
BRANCH  13  15
ATOM     15  CA  LEU d   1     119.773 132.189  11.712  0.00  0.00     0.090 C 
ATOM     16  H30 LEU d   1     118.877 132.273  12.344  0.00  0.00     0.087 H 
BRANCH  15  17
ATOM     17  N   LEU d   1     120.989 132.483  12.488  0.00  0.00    -0.346 N 
ATOM     18  C   ALA d   1     121.143 132.066  13.741  0.00  0.00     0.240 C 
ATOM     19  O   ALA d   1     120.267 131.458  14.366  0.00  0.00    -0.271 OA
ATOM     20  H29 LEU d   1     121.721 133.012  12.060  0.00  0.00     0.163 HD
BRANCH  18  21
ATOM     21  CA  ALA d   1     122.484 132.398  14.408  0.00  0.00     0.086 C 
ATOM     22  H25 ALA d   1     122.955 133.232  13.867  0.00  0.00     0.086 H 
BRANCH  21  23
ATOM     23  N   ALA d   1     122.267 132.794  15.798  0.00  0.00    -0.346 N 
ATOM     24  C   PRO d   1     121.550 133.867  16.104  0.00  0.00     0.241 C 
ATOM     25  O   PRO d   1     121.033 134.599  15.251  0.00  0.00    -0.271 OA
ATOM     26  H24 ALA d   1     122.667 132.245  16.532  0.00  0.00     0.163 HD
BRANCH  24  27
ATOM     27  CA  PRO d   1     121.398 134.169  17.588  0.00  0.00     0.091 C 
ATOM     28  N   PRO d   1     120.691 135.438  17.723  0.00  0.00    -0.337 N 
ATOM     29  C   PRO d   1     121.315 136.597  17.521  0.00  0.00     0.243 C 
ATOM     30  CD  PRO d   1     119.293 135.205  18.118  0.00  0.00    -0.001 C 
ATOM     31  O   PRO d   1     122.505 136.647  17.221  0.00  0.00    -0.271 OA
ATOM     32  CG  PRO d   1     119.128 133.740  17.836  0.00  0.00    -0.048 C 
ATOM     33  H22 PRO d   1     118.601 135.809  17.513  0.00  0.00     0.064 H 
ATOM     34  H23 PRO d   1     119.137 135.427  19.184  0.00  0.00     0.064 H 
ATOM     35  CB  PRO d   1     120.438 133.188  18.241  0.00  0.00    -0.036 C 
ATOM     36  H20 PRO d   1     118.312 133.309  18.435  0.00  0.00     0.035 H 
ATOM     37  H21 PRO d   1     118.933 133.560  16.768  0.00  0.00     0.035 H 
ATOM     38  H18 PRO d   1     120.551 133.184  19.335  0.00  0.00     0.036 H 
ATOM     39  H19 PRO d   1     120.581 132.168  17.854  0.00  0.00     0.036 H 
ATOM     40  H17 PRO d   1     122.378 134.179  18.087  0.00  0.00     0.087 H 
BRANCH  29  41
ATOM     41  CA  PRO d   1     120.487 137.855  17.669  0.00  0.00     0.092 C 
ATOM     42  N   PRO d   1     121.266 139.094  17.645  0.00  0.00    -0.337 N 
ATOM     43  C   PRO d   1     122.183 139.468  18.549  0.00  0.00     0.251 C 
ATOM     44  CD  PRO d   1     120.778 139.981  16.575  0.00  0.00    -0.001 C 
ATOM     45  O   PRO d   1     122.426 138.800  19.552  0.00  0.00    -0.271 OA
ATOM     46  CG  PRO d   1     119.373 139.483  16.369  0.00  0.00    -0.048 C 
ATOM     47  H15 PRO d   1     121.379 139.871  15.660  0.00  0.00     0.064 H 
ATOM     48  H16 PRO d   1     120.786 141.034  16.894  0.00  0.00     0.064 H 
ATOM     49  CB  PRO d   1     119.565 138.021  16.456  0.00  0.00    -0.036 C 
ATOM     50  H13 PRO d   1     118.698 139.847  17.157  0.00  0.00     0.035 H 
ATOM     51  H14 PRO d   1     118.982 139.779  15.385  0.00  0.00     0.035 H 
ATOM     52  H11 PRO d   1     118.606 137.507  16.617  0.00  0.00     0.036 H 
ATOM     53  H12 PRO d   1     120.041 137.632  15.544  0.00  0.00     0.036 H 
ATOM     54  H10 PRO d   1     119.907 137.789  18.601  0.00  0.00     0.087 H 
BRANCH  43  55
ATOM     55  CA  PRO d   1     122.866 140.805  18.316  0.00  0.00     0.178 C 
ATOM     56  N   PRO d   1     123.401 141.389  19.545  0.00  0.00    -0.062 N 
ATOM     57  CD  PRO d   1     124.671 142.100  19.280  0.00  0.00     0.083 C 
ATOM     58  H1  PRO d   1     123.567 140.654  20.215  0.00  0.00     0.278 HD
ATOM     59  H2  PRO d   1     122.730 142.041  19.921  0.00  0.00     0.278 HD
ATOM     60  CG  PRO d   1     124.831 141.961  17.761  0.00  0.00    -0.040 C 
ATOM     61  H8  PRO d   1     125.509 141.625  19.811  0.00  0.00     0.075 H 
ATOM     62  H9  PRO d   1     124.602 143.157  19.576  0.00  0.00     0.075 H 
ATOM     63  CB  PRO d   1     124.113 140.671  17.447  0.00  0.00    -0.028 C 
ATOM     64  H6  PRO d   1     124.364 142.808  17.238  0.00  0.00     0.035 H 
ATOM     65  H7  PRO d   1     125.893 141.898  17.482  0.00  0.00     0.035 H 
ATOM     66  H4  PRO d   1     123.855 140.603  16.380  0.00  0.00     0.036 H 
ATOM     67  H5  PRO d   1     124.713 139.795  17.736  0.00  0.00     0.036 H 
ATOM     68  H3  PRO d   1     122.143 141.490  17.849  0.00  0.00     0.099 H 
ENDBRANCH  43  55
ENDBRANCH  29  41
ENDBRANCH  24  27
ENDBRANCH  21  23
BRANCH  21  69
ATOM     69  CB  ALA d   1     123.418 131.175  14.355  0.00  0.00    -0.049 C 
ATOM     70  H26 ALA d   1     123.578 130.881  13.307  0.00  0.00     0.030 H 
ATOM     71  H27 ALA d   1     122.960 130.339  14.904  0.00  0.00     0.030 H 
ATOM     72  H28 ALA d   1     124.384 131.431  14.816  0.00  0.00     0.030 H 
ENDBRANCH  21  69
ENDBRANCH  18  21
ENDBRANCH  15  17
BRANCH  15  73
ATOM     73  CB  LEU d   1     119.670 133.139  10.527  0.00  0.00    -0.035 C 
ATOM     74  H31 LEU d   1     120.243 132.687   9.704  0.00  0.00     0.037 H 
ATOM     75  H32 LEU d   1     120.147 134.082  10.831  0.00  0.00     0.037 H 
BRANCH  73  76
ATOM     76  CG  LEU d   1     118.308 133.495   9.970  0.00  0.00    -0.059 C 
ATOM     77  H33 LEU d   1     117.851 132.607   9.509  0.00  0.00     0.038 H 
BRANCH  76  78
ATOM     78  CD1 LEU d   1     117.377 134.017  11.096  0.00  0.00    -0.073 C 
ATOM     79  H34 LEU d   1     116.394 134.270  10.671  0.00  0.00     0.028 H 
ATOM     80  H35 LEU d   1     117.821 134.914  11.552  0.00  0.00     0.028 H 
ATOM     81  H36 LEU d   1     117.256 133.237  11.863  0.00  0.00     0.028 H 
ENDBRANCH  76  78
BRANCH  76  82
ATOM     82  CD2 LEU d   1     118.528 134.571   8.912  0.00  0.00    -0.073 C 
ATOM     83  H37 LEU d   1     119.190 134.181   8.124  0.00  0.00     0.028 H 
ATOM     84  H38 LEU d   1     118.992 135.453   9.377  0.00  0.00     0.028 H 
ATOM     85  H39 LEU d   1     117.561 134.855   8.471  0.00  0.00     0.028 H 
ENDBRANCH  76  82
ENDBRANCH  73  76
ENDBRANCH  15  73
ENDBRANCH  13  15
BRANCH   2  86
ATOM     86  C   PRO d   1     118.998 128.380   9.487  0.00  0.00     0.243 C 
ATOM     87  O   PRO d   1     118.363 129.225   8.857  0.00  0.00    -0.271 OA
ATOM     88  N   PRO d   1     119.641 127.372   8.871  0.00  0.00    -0.337 N 
ATOM     89  CA  PRO d   1     119.489 127.253   7.415  0.00  0.00     0.091 C 
ATOM     90  CD  PRO d   1     120.571 126.349   9.384  0.00  0.00    -0.001 C 
ATOM     91  CB  PRO d   1     120.473 126.124   7.058  0.00  0.00    -0.036 C 
ATOM     92  H47 PRO d   1     119.726 128.190   6.890  0.00  0.00     0.087 H 
ATOM     93  CG  PRO d   1     120.530 125.297   8.290  0.00  0.00    -0.048 C 
ATOM     94  H48 PRO d   1     121.465 126.532   6.814  0.00  0.00     0.036 H 
ATOM     95  H49 PRO d   1     120.100 125.534   6.208  0.00  0.00     0.036 H 
ATOM     96  H50 PRO d   1     121.433 124.669   8.307  0.00  0.00     0.035 H 
ATOM     97  H51 PRO d   1     119.638 124.659   8.384  0.00  0.00     0.035 H 
ATOM     98  H52 PRO d   1     120.223 125.939  10.344  0.00  0.00     0.064 H 
ATOM     99  H53 PRO d   1     121.585 126.758   9.506  0.00  0.00     0.064 H 
BRANCH  89 100
ATOM    100  C   PRO d   1     118.062 126.805   7.120  0.00  0.00     0.241 C 
ATOM    101  O   PRO d   1     117.428 126.190   7.974  0.00  0.00    -0.271 OA
ATOM    102  N   LYS d   1     117.542 127.152   5.950  0.00  0.00    -0.346 N 
ATOM    103  H54 LYS d   1     118.060 127.738   5.327  0.00  0.00     0.163 HD
BRANCH 102 104
ATOM    104  CA  LYS d   1     116.214 126.679   5.572  0.00  0.00     0.089 C 
ATOM    105  H55 LYS d   1     115.618 126.486   6.476  0.00  0.00     0.087 H 
BRANCH 104 106
ATOM    106  C   LYS d   1     116.421 125.375   4.796  0.00  0.00     0.240 C 
ATOM    107  O   LYS d   1     117.424 125.204   4.089  0.00  0.00    -0.271 OA
ATOM    108  N   LYS d   1     115.508 124.434   4.977  0.00  0.00    -0.355 N 
ATOM    109  H67 LYS d   1     114.742 124.598   5.599  0.00  0.00     0.162 HD
BRANCH 108 110
ATOM    110  CA  LYS d   1     115.610 123.165   4.279  0.00  0.00     0.009 C 
ATOM    111  H68 LYS d   1     116.655 123.000   3.979  0.00  0.00     0.071 H 
BRANCH 110 112
ATOM    112  C   LYS d   1     114.735 123.205   3.028  0.00  0.00    -0.057 C 
ATOM    113  H69 LYS d   1     114.810 122.245   2.497  0.00  0.00     0.030 H 
ATOM    114  H70 LYS d   1     115.076 124.016   2.368  0.00  0.00     0.030 H 
ATOM    115  H71 LYS d   1     113.689 123.383   3.318  0.00  0.00     0.030 H 
ENDBRANCH 110 112
BRANCH 110 116
ATOM    116  CB  LYS d   1     115.179 122.037   5.205  0.00  0.00    -0.046 C 
ATOM    117  H72 LYS d   1     115.387 121.077   4.710  0.00  0.00     0.035 H 
ATOM    118  H73 LYS d   1     114.098 122.128   5.389  0.00  0.00     0.035 H 
BRANCH 116 119
ATOM    119  CG  LYS d   1     115.904 122.060   6.545  0.00  0.00    -0.062 C 
ATOM    120  H74 LYS d   1     115.558 122.926   7.128  0.00  0.00     0.033 H 
ATOM    121  H75 LYS d   1     116.986 122.145   6.369  0.00  0.00     0.033 H 
BRANCH 119 122
ATOM    122  CD  LYS d   1     115.626 120.792   7.326  0.00  0.00    -0.043 C 
ATOM    123  H76 LYS d   1     115.805 119.925   6.673  0.00  0.00     0.035 H 
ATOM    124  H77 LYS d   1     114.575 120.796   7.650  0.00  0.00     0.035 H 
BRANCH 122 125
ATOM    125  CE  LYS d   1     116.519 120.677   8.553  0.00  0.00     0.080 C 
ATOM    126  H78 LYS d   1     116.268 121.485   9.256  0.00  0.00     0.075 H 
ATOM    127  H79 LYS d   1     117.570 120.775   8.242  0.00  0.00     0.075 H 
BRANCH 125 128
ATOM    128  NZ  LYS d   1     116.335 119.359   9.239  0.00  0.00    -0.079 N 
ATOM    129  H80 LYS d   1     116.938 119.313  10.045  0.00  0.00     0.274 HD
ATOM    130  H81 LYS d   1     116.568 118.613   8.602  0.00  0.00     0.274 HD
ATOM    131  H82 LYS d   1     115.375 119.263   9.531  0.00  0.00     0.274 HD
ENDBRANCH 125 128
ENDBRANCH 122 125
ENDBRANCH 119 122
ENDBRANCH 116 119
ENDBRANCH 110 116
ENDBRANCH 108 110
ENDBRANCH 104 106
BRANCH 104 132
ATOM    132  CB  LYS d   1     115.485 127.704   4.709  0.00  0.00    -0.038 C 
ATOM    133  H56 LYS d   1     114.635 127.207   4.220  0.00  0.00     0.036 H 
ATOM    134  H57 LYS d   1     116.183 128.076   3.944  0.00  0.00     0.036 H 
BRANCH 132 135
ATOM    135  CG  LYS d   1     114.960 128.890   5.499  0.00  0.00    -0.061 C 
ATOM    136  H58 LYS d   1     115.809 129.431   5.942  0.00  0.00     0.033 H 
ATOM    137  H59 LYS d   1     114.300 128.525   6.299  0.00  0.00     0.033 H 
BRANCH 135 138
ATOM    138  CD  LYS d   1     114.188 129.827   4.614  0.00  0.00    -0.043 C 
ATOM    139  H60 LYS d   1     113.440 129.252   4.049  0.00  0.00     0.035 H 
ATOM    140  H61 LYS d   1     114.883 130.313   3.913  0.00  0.00     0.035 H 
BRANCH 138 141
ATOM    141  CE  LYS d   1     113.487 130.883   5.420  0.00  0.00     0.080 C 
ATOM    142  H62 LYS d   1     114.212 131.363   6.094  0.00  0.00     0.075 H 
ATOM    143  H63 LYS d   1     112.689 130.413   6.014  0.00  0.00     0.075 H 
BRANCH 141 144
ATOM    144  NZ  LYS d   1     112.891 131.913   4.534  0.00  0.00    -0.079 N 
ATOM    145  H64 LYS d   1     112.427 132.610   5.095  0.00  0.00     0.274 HD
ATOM    146  H65 LYS d   1     112.223 131.479   3.916  0.00  0.00     0.274 HD
ATOM    147  H66 LYS d   1     113.618 132.349   3.989  0.00  0.00     0.274 HD
ENDBRANCH 141 144
ENDBRANCH 138 141
ENDBRANCH 135 138
ENDBRANCH 132 135
ENDBRANCH 104 132
ENDBRANCH 102 104
ENDBRANCH  89 100
ENDBRANCH   2  86
TORSDOF 28
