REMARK  19 active torsions:
REMARK  status: ('A' for Active; 'I' for Inactive)
REMARK    1  A    between atoms: CA_2  and  C_3 
REMARK       I    between atoms: C_3  and  N_8 
REMARK    2  A    between atoms: CA_9  and  C_10 
REMARK       I    between atoms: C_10  and  N_15 
REMARK    3  A    between atoms: CA_16  and  C_17 
REMARK       I    between atoms: C_17  and  N_22 
REMARK    4  A    between atoms: N_22  and  CA_23 
REMARK    5  A    between atoms: CA_23  and  C_24 
REMARK    6  A    between atoms: CA_23  and  CB_26 
REMARK       I    between atoms: C_24  and  N_29 
REMARK    7  A    between atoms: CB_26  and  CG1_27 
REMARK    8  A    between atoms: CB_26  and  CG2_28 
REMARK    9  A    between atoms: CA_30  and  C_31 
REMARK       I    between atoms: C_31  and  N_36 
REMARK   10  A    between atoms: CA_37  and  C_38 
REMARK       I    between atoms: C_38  and  N_43 
REMARK   11  A    between atoms: N_43  and  CA_44 
REMARK   12  A    between atoms: CA_44  and  C_45 
REMARK   13  A    between atoms: CA_44  and  CB_47 
REMARK       I    between atoms: C_45  and  N_54 
REMARK   14  A    between atoms: CB_47  and  CG_48 
REMARK   15  A    between atoms: CG_48  and  CD_49 
REMARK   16  A    between atoms: CD_49  and  NE_50 
REMARK       I    between atoms: NE_50  and  CZ_51 
REMARK       I    between atoms: CZ_51  and  NH1_52 
REMARK   17  A    between atoms: N_54  and  CA_55 
REMARK   18  A    between atoms: CA_55  and  C_56 
REMARK   19  A    between atoms: CA_55  and  CB_57 
ROOT
ATOM      1  N   PRO d   1     119.080 130.203  11.332  0.00  0.00    -0.337 N 
ATOM      2  CA  PRO d   1     119.272 128.840  10.811  0.00  0.00     0.092 C 
ATOM      3  CB  PRO d   1     118.243 128.027  11.594  0.00  0.00    -0.036 C 
ATOM      4  CG  PRO d   1     117.119 129.021  11.795  0.00  0.00    -0.048 C 
ATOM      5  CD  PRO d   1     117.876 130.283  12.186  0.00  0.00    -0.001 C 
ATOM      6  H33 PRO d   1     120.290 128.499  11.050  0.00  0.00     0.087 H 
ATOM      7  H34 PRO d   1     118.653 127.691  12.558  0.00  0.00     0.036 H 
ATOM      8  H35 PRO d   1     117.903 127.155  11.016  0.00  0.00     0.036 H 
ATOM      9  H36 PRO d   1     116.439 128.698  12.597  0.00  0.00     0.035 H 
ATOM     10  H37 PRO d   1     116.547 129.170  10.867  0.00  0.00     0.035 H 
ATOM     11  H38 PRO d   1     117.288 131.186  11.963  0.00  0.00     0.064 H 
ATOM     12  H39 PRO d   1     118.143 130.273  13.253  0.00  0.00     0.064 H 
ATOM     13  C   VAL d   1     119.834 131.248  10.946  0.00  0.00     0.243 C 
ATOM     14  O   VAL d   1     120.745 131.141  10.114  0.00  0.00    -0.271 OA
ENDROOT
BRANCH  13  15
ATOM     15  CA  VAL d   1     119.526 132.587  11.583  0.00  0.00     0.092 C 
ATOM     16  H25 VAL d   1     118.731 132.492  12.337  0.00  0.00     0.088 H 
BRANCH  15  17
ATOM     17  N   VAL d   1     120.786 132.924  12.213  0.00  0.00    -0.346 N 
ATOM     18  C   PRO d   1     121.098 132.407  13.390  0.00  0.00     0.241 C 
ATOM     19  O   PRO d   1     120.298 131.746  14.060  0.00  0.00    -0.271 OA
ATOM     20  H24 VAL d   1     121.421 133.548  11.758  0.00  0.00     0.163 HD
BRANCH  18  21
ATOM     21  CA  PRO d   1     122.458 132.806  13.964  0.00  0.00     0.091 C 
ATOM     22  N   PRO d   1     122.308 133.078  15.394  0.00  0.00    -0.337 N 
ATOM     23  C   PRO d   1     121.531 134.108  15.771  0.00  0.00     0.243 C 
ATOM     24  CD  PRO d   1     123.198 132.220  16.196  0.00  0.00    -0.001 C 
ATOM     25  O   PRO d   1     121.060 134.902  14.943  0.00  0.00    -0.271 OA
ATOM     26  CG  PRO d   1     123.426 131.057  15.272  0.00  0.00    -0.048 C 
ATOM     27  H22 PRO d   1     122.711 131.900  17.129  0.00  0.00     0.064 H 
ATOM     28  H23 PRO d   1     124.142 132.733  16.433  0.00  0.00     0.064 H 
ATOM     29  CB  PRO d   1     123.468 131.645  13.926  0.00  0.00    -0.036 C 
ATOM     30  H20 PRO d   1     124.378 130.558  15.506  0.00  0.00     0.035 H 
ATOM     31  H21 PRO d   1     122.603 130.332  15.352  0.00  0.00     0.035 H 
ATOM     32  H18 PRO d   1     124.477 132.018  13.699  0.00  0.00     0.036 H 
ATOM     33  H19 PRO d   1     123.174 130.902  13.171  0.00  0.00     0.036 H 
ATOM     34  H17 PRO d   1     122.847 133.682  13.425  0.00  0.00     0.087 H 
BRANCH  23  35
ATOM     35  CA  PRO d   1     121.386 134.350  17.282  0.00  0.00     0.092 C 
ATOM     36  N   PRO d   1     120.847 135.659  17.631  0.00  0.00    -0.337 N 
ATOM     37  C   PRO d   1     121.607 136.739  17.450  0.00  0.00     0.251 C 
ATOM     38  CD  PRO d   1     119.584 135.551  18.379  0.00  0.00    -0.001 C 
ATOM     39  O   PRO d   1     122.737 136.669  16.981  0.00  0.00    -0.271 OA
ATOM     40  CG  PRO d   1     119.126 134.179  18.070  0.00  0.00    -0.048 C 
ATOM     41  H15 PRO d   1     118.855 136.298  18.032  0.00  0.00     0.064 H 
ATOM     42  H16 PRO d   1     119.753 135.677  19.459  0.00  0.00     0.064 H 
ATOM     43  CB  PRO d   1     120.398 133.391  17.956  0.00  0.00    -0.036 C 
ATOM     44  H13 PRO d   1     118.493 133.786  18.880  0.00  0.00     0.035 H 
ATOM     45  H14 PRO d   1     118.566 134.157  17.123  0.00  0.00     0.035 H 
ATOM     46  H11 PRO d   1     120.762 133.094  18.951  0.00  0.00     0.036 H 
ATOM     47  H12 PRO d   1     120.245 132.494  17.339  0.00  0.00     0.036 H 
ATOM     48  H10 PRO d   1     122.383 134.232  17.732  0.00  0.00     0.087 H 
BRANCH  37  49
ATOM     49  CA  PRO d   1     121.006 138.068  17.828  0.00  0.00     0.178 C 
ATOM     50  N   PRO d   1     122.074 139.066  17.857  0.00  0.00    -0.062 N 
ATOM     51  CD  PRO d   1     121.859 140.063  16.800  0.00  0.00     0.083 C 
ATOM     52  H1  PRO d   1     122.961 138.610  17.710  0.00  0.00     0.278 HD
ATOM     53  H2  PRO d   1     122.077 139.526  18.754  0.00  0.00     0.278 HD
ATOM     54  CG  PRO d   1     120.369 139.999  16.630  0.00  0.00    -0.040 C 
ATOM     55  H8  PRO d   1     122.382 139.785  15.873  0.00  0.00     0.075 H 
ATOM     56  H9  PRO d   1     122.185 141.064  17.119  0.00  0.00     0.075 H 
ATOM     57  CB  PRO d   1     120.090 138.573  16.703  0.00  0.00    -0.028 C 
ATOM     58  H6  PRO d   1     119.856 140.544  17.436  0.00  0.00     0.035 H 
ATOM     59  H7  PRO d   1     120.064 140.412  15.657  0.00  0.00     0.035 H 
ATOM     60  H4  PRO d   1     119.033 138.394  16.950  0.00  0.00     0.036 H 
ATOM     61  H5  PRO d   1     120.332 138.079  15.751  0.00  0.00     0.036 H 
ATOM     62  H3  PRO d   1     120.475 137.998  18.789  0.00  0.00     0.099 H 
ENDBRANCH  37  49
ENDBRANCH  23  35
ENDBRANCH  18  21
ENDBRANCH  15  17
BRANCH  15  63
ATOM     63  CB  VAL d   1     119.083 133.618  10.514  0.00  0.00    -0.033 C 
ATOM     64  H26 VAL d   1     119.838 133.656   9.715  0.00  0.00     0.042 H 
BRANCH  63  65
ATOM     65  CG1 VAL d   1     117.751 133.211   9.938  0.00  0.00    -0.071 C 
ATOM     66  H27 VAL d   1     117.440 133.945   9.180  0.00  0.00     0.028 H 
ATOM     67  H28 VAL d   1     117.000 133.173  10.741  0.00  0.00     0.028 H 
ATOM     68  H29 VAL d   1     117.841 132.218   9.473  0.00  0.00     0.028 H 
ENDBRANCH  63  65
BRANCH  63  69
ATOM     69  CG2 VAL d   1     118.925 134.982  11.121  0.00  0.00    -0.071 C 
ATOM     70  H30 VAL d   1     119.885 135.306  11.550  0.00  0.00     0.028 H 
ATOM     71  H31 VAL d   1     118.163 134.945  11.913  0.00  0.00     0.028 H 
ATOM     72  H32 VAL d   1     118.612 135.695  10.344  0.00  0.00     0.028 H 
ENDBRANCH  63  69
ENDBRANCH  15  63
ENDBRANCH  13  15
BRANCH   2  73
ATOM     73  C   PRO d   1     119.065 128.675   9.310  0.00  0.00     0.243 C 
ATOM     74  O   PRO d   1     118.280 129.389   8.697  0.00  0.00    -0.271 OA
ATOM     75  N   PRO d   1     119.776 127.719   8.697  0.00  0.00    -0.337 N 
ATOM     76  CA  PRO d   1     119.584 127.529   7.261  0.00  0.00     0.091 C 
ATOM     77  CD  PRO d   1     120.777 126.768   9.237  0.00  0.00    -0.001 C 
ATOM     78  CB  PRO d   1     120.684 126.492   6.908  0.00  0.00    -0.036 C 
ATOM     79  H40 PRO d   1     119.714 128.465   6.698  0.00  0.00     0.087 H 
ATOM     80  CG  PRO d   1     120.803 125.678   8.180  0.00  0.00    -0.048 C 
ATOM     81  H41 PRO d   1     121.635 126.990   6.667  0.00  0.00     0.036 H 
ATOM     82  H42 PRO d   1     120.376 125.861   6.062  0.00  0.00     0.036 H 
ATOM     83  H43 PRO d   1     121.746 125.112   8.209  0.00  0.00     0.035 H 
ATOM     84  H44 PRO d   1     119.956 124.986   8.295  0.00  0.00     0.035 H 
ATOM     85  H45 PRO d   1     120.460 126.368  10.211  0.00  0.00     0.064 H 
ATOM     86  H46 PRO d   1     121.763 127.245   9.340  0.00  0.00     0.064 H 
BRANCH  76  87
ATOM     87  C   PRO d   1     118.176 126.950   7.021  0.00  0.00     0.241 C 
ATOM     88  O   PRO d   1     117.548 126.402   7.947  0.00  0.00    -0.271 OA
ATOM     89  N   ARG d   1     117.691 127.090   5.792  0.00  0.00    -0.346 N 
ATOM     90  H47 ARG d   1     118.238 127.582   5.115  0.00  0.00     0.163 HD
BRANCH  89  91
ATOM     91  CA  ARG d   1     116.396 126.558   5.388  0.00  0.00     0.089 C 
ATOM     92  H48 ARG d   1     115.746 126.416   6.264  0.00  0.00     0.087 H 
BRANCH  91  93
ATOM     93  C   ARG d   1     116.679 125.220   4.702  0.00  0.00     0.240 C 
ATOM     94  O   ARG d   1     117.802 124.962   4.265  0.00  0.00    -0.271 OA
ATOM     95  N   ARG d   1     115.673 124.360   4.599  0.00  0.00    -0.355 N 
ATOM     96  H60 ARG d   1     114.777 124.600   4.972  0.00  0.00     0.162 HD
BRANCH  95  97
ATOM     97  CA  ARG d   1     115.862 123.066   3.946  0.00  0.00     0.005 C 
ATOM     98  H61 ARG d   1     116.803 123.112   3.378  0.00  0.00     0.071 H 
BRANCH  97  99
ATOM     99  C   ARG d   1     114.742 122.747   2.959  0.00  0.00    -0.058 C 
ATOM    100  H62 ARG d   1     114.930 121.767   2.496  0.00  0.00     0.030 H 
ATOM    101  H63 ARG d   1     114.710 123.521   2.178  0.00  0.00     0.030 H 
ATOM    102  H64 ARG d   1     113.780 122.723   3.491  0.00  0.00     0.030 H 
ENDBRANCH  97  99
BRANCH  97 103
ATOM    103  CB  ARG d   1     115.994 121.965   4.985  0.00  0.00    -0.058 C 
ATOM    104  H65 ARG d   1     116.135 120.999   4.479  0.00  0.00     0.030 H 
ATOM    105  H66 ARG d   1     115.081 121.928   5.598  0.00  0.00     0.030 H 
ATOM    106  H67 ARG d   1     116.861 122.171   5.630  0.00  0.00     0.030 H 
ENDBRANCH  97 103
ENDBRANCH  95  97
ENDBRANCH  91  93
BRANCH  91 107
ATOM    107  CB  ARG d   1     115.731 127.507   4.395  0.00  0.00    -0.036 C 
ATOM    108  H49 ARG d   1     114.640 127.412   4.499  0.00  0.00     0.036 H 
ATOM    109  H50 ARG d   1     116.029 127.213   3.378  0.00  0.00     0.036 H 
BRANCH 107 110
ATOM    110  CG  ARG d   1     116.113 128.972   4.608  0.00  0.00    -0.048 C 
ATOM    111  H51 ARG d   1     117.185 129.092   4.392  0.00  0.00     0.035 H 
ATOM    112  H52 ARG d   1     115.918 129.238   5.657  0.00  0.00     0.035 H 
BRANCH 110 113
ATOM    113  CD  ARG d   1     115.327 129.917   3.712  0.00  0.00     0.009 C 
ATOM    114  H53 ARG d   1     115.008 129.375   2.810  0.00  0.00     0.064 H 
ATOM    115  H54 ARG d   1     115.973 130.760   3.424  0.00  0.00     0.064 H 
BRANCH 113 116
ATOM    116  NE  ARG d   1     114.150 130.432   4.400  0.00  0.00    -0.227 N 
ATOM    117  CZ  ARG d   1     113.971 131.708   4.734  0.00  0.00     0.665 C 
ATOM    118  NH1 ARG d   1     114.868 132.646   4.446  0.00  0.00    -0.235 N 
ATOM    119  NH2 ARG d   1     112.932 132.033   5.460  0.00  0.00    -0.235 N 
ATOM    120  H56 ARG d   1     114.697 133.624   4.720  0.00  0.00     0.174 HD
ATOM    121  H57 ARG d   1     115.734 132.395   3.949  0.00  0.00     0.174 HD
ATOM    122  H58 ARG d   1     112.225 131.322   5.695  0.00  0.00     0.174 HD
ATOM    123  H59 ARG d   1     112.821 133.000   5.797  0.00  0.00     0.174 HD
ATOM    124  H55 ARG d   1     113.406 129.763   4.644  0.00  0.00     0.177 HD
ENDBRANCH 113 116
ENDBRANCH 110 113
ENDBRANCH 107 110
ENDBRANCH  91 107
ENDBRANCH  89  91
ENDBRANCH  76  87
ENDBRANCH   2  73
TORSDOF 19
