REMARK  13 active torsions:
REMARK  status: ('A' for Active; 'I' for Inactive)
REMARK    1  A    between atoms: C3G_2  and  N3G_3 
REMARK    2  A    between atoms: N3G_3  and  PG_4 
REMARK    3  A    between atoms: PG_4  and  N3B_7 
REMARK    4  A    between atoms: N3B_7  and  PB_8 
REMARK    5  A    between atoms: PB_8  and  O3A_11 
REMARK    6  A    between atoms: O3A_11  and  PA_12 
REMARK    7  A    between atoms: PA_12  and  O5'_15 
REMARK    8  A    between atoms: O5'_15  and  C5'_16 
REMARK    9  A    between atoms: C5'_16  and  C4'_17 
REMARK   10  A    between atoms: C2'_19  and  O2'_20 
REMARK   11  A    between atoms: C3'_21  and  O3'_22 
REMARK   12  A    between atoms: C1'_23  and  N9_24 
REMARK   13  A    between atoms: C2_27  and  N2_28 
ROOT
ATOM      1  C4' DBG d   1      12.740  34.655  21.724  0.00  0.00     0.089 C 
ATOM      2  O4' DBG d   1      13.715  33.918  20.946  0.00  0.00    -0.353 OA
ATOM      3  C2' DBG d   1      13.556  36.026  19.923  0.00  0.00     0.105 C 
ATOM      4  C3' DBG d   1      12.973  36.135  21.350  0.00  0.00     0.091 C 
ATOM      5  C1' DBG d   1      14.437  34.800  20.049  0.00  0.00     0.139 C 
ATOM      6  H8  DBG d   1      12.937  34.516  22.797  0.00  0.00     0.090 H 
ATOM      7  H9  DBG d   1      12.761  35.876  19.177  0.00  0.00     0.093 H 
ATOM      8  H11 DBG d   1      12.031  36.703  21.353  0.00  0.00     0.091 H 
ATOM      9  H13 DBG d   1      15.417  35.081  20.462  0.00  0.00     0.122 H 
ENDROOT
BRANCH   1  10
ATOM     10  C5' DBG d   1      11.359  34.176  21.443  0.00  0.00     0.058 C 
ATOM     11  H6  DBG d   1      11.304  33.093  21.626  0.00  0.00     0.079 H 
ATOM     12  H7  DBG d   1      10.651  34.696  22.105  0.00  0.00     0.079 H 
BRANCH  10  13
ATOM     13  O5' DBG d   1      11.024  34.441  20.097  0.00  0.00    -0.287 OA
BRANCH  13  14
ATOM     14  PA  DBG d   1       9.535  34.485  19.553  0.00  0.00     0.417 P 
ATOM     15  O2A DBG d   1       8.741  35.467  20.320  0.00  0.00    -0.624 OA
ATOM     16  O1A DBG d   1       9.552  34.730  18.071  0.00  0.00    -0.624 OA
BRANCH  14  17
ATOM     17  O3A DBG d   1       9.039  32.984  19.902  0.00  0.00    -0.186 OA
BRANCH  17  18
ATOM     18  PB  DBG d   1       7.552  32.396  20.085  0.00  0.00     0.377 P 
ATOM     19  O2B DBG d   1       6.711  32.995  19.051  0.00  0.00    -0.629 OA
ATOM     20  O1B DBG d   1       7.627  30.915  20.000  0.00  0.00    -0.629 OA
BRANCH  18  21
ATOM     21  N3B DBG d   1       7.129  32.908  21.548  0.00  0.00    -0.231 N 
ATOM     22  H5  DBG d   1       7.798  33.383  22.119  0.00  0.00     0.178 HD
BRANCH  21  23
ATOM     23  PG  DBG d   1       5.637  32.664  22.103  0.00  0.00     0.320 P 
ATOM     24  O2G DBG d   1       4.645  33.178  21.176  0.00  0.00    -0.635 OA
ATOM     25  O1G DBG d   1       5.422  31.226  22.348  0.00  0.00    -0.635 OA
BRANCH  23  26
ATOM     26  N3G DBG d   1       5.453  33.392  23.443  0.00  0.00    -0.336 N 
ATOM     27  H4  DBG d   1       4.955  34.237  23.248  0.00  0.00     0.164 HD
BRANCH  26  28
ATOM     28  C3G DBG d   1       5.685  33.369  24.792  0.00  0.00    -0.016 C 
ATOM     29  H1  DBG d   1       5.261  34.273  25.253  0.00  0.00     0.056 H 
ATOM     30  H2  DBG d   1       6.769  33.337  24.977  0.00  0.00     0.056 H 
ATOM     31  H3  DBG d   1       5.212  32.478  25.230  0.00  0.00     0.056 H 
ENDBRANCH  26  28
ENDBRANCH  23  26
ENDBRANCH  21  23
ENDBRANCH  18  21
ENDBRANCH  17  18
ENDBRANCH  14  17
ENDBRANCH  13  14
ENDBRANCH  10  13
ENDBRANCH   1  10
BRANCH   4  32
ATOM     32  O3' DBG d   1      13.898  36.740  22.250  0.00  0.00    -0.390 OA
ATOM     33  H12 DBG d   1      14.110  37.614  21.944  0.00  0.00     0.210 HD
ENDBRANCH   4  32
BRANCH   3  34
ATOM     34  O2' DBG d   1      14.314  37.161  19.576  0.00  0.00    -0.388 OA
ATOM     35  H10 DBG d   1      13.762  37.933  19.614  0.00  0.00     0.210 HD
ENDBRANCH   3  34
BRANCH   5  36
ATOM     36  N9  DBG d   1      14.625  34.070  18.792  0.00  0.00    -0.293 N 
ATOM     37  C8  DBG d   1      13.669  33.540  17.964  0.00  0.00     0.071 C 
ATOM     38  N7  DBG d   1      14.116  32.956  16.917  0.00  0.00    -0.234 NA
ATOM     39  H17 DBG d   1      12.604  33.611  18.182  0.00  0.00     0.144 H 
ATOM     40  C5  DBG d   1      15.505  32.984  17.135  0.00  0.00     0.173 C 
ATOM     41  C4  DBG d   1      15.788  33.597  18.317  0.00  0.00     0.186 C 
ATOM     42  C6  DBG d   1      16.577  32.456  16.338  0.00  0.00     0.292 C 
ATOM     43  N3  DBG d   1      16.990  33.779  18.872  0.00  0.00    -0.044 NA
ATOM     44  C2  DBG d   1      18.014  33.277  18.165  0.00  0.00     0.703 C 
ATOM     45  N1  DBG d   1      17.789  32.490  17.017  0.00  0.00    -0.152 N 
ATOM     46  H16 DBG d   1      18.541  31.927  16.674  0.00  0.00     0.187 HD
ATOM     47  O6  DBG d   1      16.508  31.899  15.241  0.00  0.00    -0.265 OA
BRANCH  44  48
ATOM     48  N2  DBG d   1      19.283  33.528  18.530  0.00  0.00    -0.233 N 
ATOM     49  H14 DBG d   1      19.475  34.100  19.365  0.00  0.00     0.174 HD
ATOM     50  H15 DBG d   1      20.063  33.148  17.975  0.00  0.00     0.174 HD
ENDBRANCH  44  48
ENDBRANCH   5  36
TORSDOF 13
