REMARK  18 active torsions:
REMARK  status: ('A' for Active; 'I' for Inactive)
REMARK    1  A    between atoms: CA_6  and  CB_9 
REMARK    2  A    between atoms: CB_9  and  CG_10 
REMARK       I    between atoms: CG_10  and  ND2_12 
REMARK    3  A    between atoms: CA_14  and  C_15 
REMARK    4  A    between atoms: C_15  and  O_16 
REMARK    5  A    between atoms: C_15  and  C_25 
REMARK    6  A    between atoms: C_25  and  N_26 
REMARK    7  A    between atoms: CA_27  and  C_28 
REMARK       I    between atoms: C_28  and  N_33 
REMARK    8  A    between atoms: N_33  and  CA_34 
REMARK    9  A    between atoms: CA_34  and  C_35 
REMARK   10  A    between atoms: CA_34  and  CB_37 
REMARK       I    between atoms: C_35  and  N_41 
REMARK   11  A    between atoms: CB_37  and  CG1_38 
REMARK   12  A    between atoms: CB_37  and  CG2_39 
REMARK   13  A    between atoms: CG1_38  and  CD1_40 
REMARK   14  A    between atoms: N_41  and  CA_42 
REMARK   15  A    between atoms: CA_42  and  C_43 
REMARK   16  A    between atoms: CA_42  and  CB_45 
REMARK       I    between atoms: C_43  and  N_48 
REMARK   17  A    between atoms: CB_45  and  CG1_46 
REMARK   18  A    between atoms: CB_45  and  CG2_47 
ROOT
ATOM      1  N   PRO d   1       3.573  -2.628  15.504  0.00  0.00    -0.056 N 
ATOM      2  CA  PRO d   1       4.299  -3.465  16.456  0.00  0.00     0.180 C 
ATOM      3  CB  PRO d   1       3.269  -4.538  16.795  0.00  0.00    -0.028 C 
ATOM      4  CG  PRO d   1       2.611  -4.753  15.473  0.00  0.00    -0.040 C 
ATOM      5  CD  PRO d   1       2.431  -3.356  14.919  0.00  0.00     0.085 C 
ATOM      6  H23 PRO d   1       4.197  -2.770  14.725  0.00  0.00     0.281 HD
ATOM      7  H24 PRO d   1       4.550  -2.872  17.348  0.00  0.00     0.100 H 
ATOM      8  H25 PRO d   1       2.550  -4.181  17.547  0.00  0.00     0.036 H 
ATOM      9  H26 PRO d   1       3.752  -5.458  17.157  0.00  0.00     0.036 H 
ATOM     10  H27 PRO d   1       1.639  -5.252  15.597  0.00  0.00     0.035 H 
ATOM     11  H28 PRO d   1       3.251  -5.356  14.812  0.00  0.00     0.035 H 
ATOM     12  H29 PRO d   1       2.481  -3.355  13.820  0.00  0.00     0.076 H 
ATOM     13  H30 PRO d   1       1.474  -2.921  15.243  0.00  0.00     0.076 H 
ENDROOT
BRANCH   1  14
ATOM     14  C   RTY d   1       3.727  -1.168  15.494  0.00  0.00     0.110 C 
ATOM     15  H21 RTY d   1       3.298  -0.775  14.561  0.00  0.00     0.080 H 
ATOM     16  H22 RTY d   1       3.181  -0.750  16.353  0.00  0.00     0.080 H 
BRANCH  14  17
ATOM     17  C   RTY d   1       5.173  -0.735  15.582  0.00  0.00     0.078 C 
ATOM     18  H13 RTY d   1       5.771  -1.547  16.021  0.00  0.00     0.088 H 
BRANCH  17  19
ATOM     19  CA  RTY d   1       5.695  -0.438  14.171  0.00  0.00     0.042 C 
ATOM     20  N   RTY d   1       4.898   0.645  13.559  0.00  0.00    -0.352 N 
ATOM     21  C   ASN d   1       4.055   0.432  12.545  0.00  0.00     0.241 C 
ATOM     22  H11 RTY d   1       4.993   1.573  13.918  0.00  0.00     0.163 HD
ATOM     23  CA  ASN d   1       3.324   1.665  12.023  0.00  0.00     0.097 C 
ATOM     24  O   ASN d   1       3.861  -0.681  12.036  0.00  0.00    -0.271 OA
ATOM     25  N   ASN d   1       3.912   2.084  10.749  0.00  0.00    -0.347 N 
ATOM     26  H6  ASN d   1       3.433   2.479  12.755  0.00  0.00     0.088 H 
ATOM     27  C1  RTY d   1       4.249   3.344  10.491  0.00  0.00     0.218 C 
ATOM     28  H5  ASN d   1       4.067   1.393  10.043  0.00  0.00     0.163 HD
ATOM     29  O1  RTY d   1       4.114   4.270  11.300  0.00  0.00    -0.274 OA
ATOM     30  C2  RTY d   1       4.829   3.571   9.112  0.00  0.00     0.011 C 
ATOM     31  C3  RTY d   1       5.869   4.658   9.057  0.00  0.00    -0.037 C 
ATOM     32  H1  RTY d   1       4.008   3.843   8.432  0.00  0.00     0.047 H 
ATOM     33  H2  RTY d   1       5.291   2.632   8.772  0.00  0.00     0.047 H 
ATOM     34  C   RTY d   1       7.128   4.345   9.883  0.00  0.00     0.026 C 
ATOM     35  H3  RTY d   1       5.423   5.587   9.441  0.00  0.00     0.036 H 
ATOM     36  H4  RTY d   1       6.168   4.801   8.008  0.00  0.00     0.036 H 
ATOM     37  OH  RTY d   1       7.736   3.077   9.583  0.00  0.00    -0.351 OA
ATOM     38  H53 RTY d   1       6.851   4.350  10.947  0.00  0.00     0.075 H 
ATOM     39  H54 RTY d   1       7.869   5.135   9.693  0.00  0.00     0.075 H 
ATOM     40  CZ  RTY d   1       7.753   2.299  10.730  0.00  0.00     0.068 A 
ATOM     41  CE1 RTY d   1       7.751   0.918  10.655  0.00  0.00    -0.050 A 
ATOM     42  CE2 RTY d   1       7.669   2.932  11.965  0.00  0.00    -0.050 A 
ATOM     43  CD1 RTY d   1       7.643   0.183  11.822  0.00  0.00    -0.074 A 
ATOM     44  H19 RTY d   1       7.833   0.419   9.696  0.00  0.00     0.087 H 
ATOM     45  CG  RTY d   1       7.524   0.813  13.056  0.00  0.00    -0.056 A 
ATOM     46  H17 RTY d   1       7.651  -0.900  11.774  0.00  0.00     0.084 H 
ATOM     47  CB  RTY d   1       7.140   0.047  14.283  0.00  0.00    -0.020 C 
ATOM     48  CD2 RTY d   1       7.555   2.193  13.097  0.00  0.00    -0.074 A 
ATOM     49  H15 RTY d   1       7.807  -0.821  14.393  0.00  0.00     0.043 H 
ATOM     50  H16 RTY d   1       7.237   0.699  15.164  0.00  0.00     0.043 H 
ATOM     51  H18 RTY d   1       7.487   2.697  14.054  0.00  0.00     0.084 H 
ATOM     52  H20 RTY d   1       7.695   4.014  12.023  0.00  0.00     0.087 H 
ATOM     53  H12 RTY d   1       5.641  -1.345  13.551  0.00  0.00     0.077 H 
BRANCH  23  54
ATOM     54  CB  ASN d   1       1.837   1.372  11.829  0.00  0.00     0.036 C 
ATOM     55  H7  ASN d   1       1.403   1.085  12.798  0.00  0.00     0.051 H 
ATOM     56  H8  ASN d   1       1.730   0.539  11.118  0.00  0.00     0.051 H 
BRANCH  54  57
ATOM     57  CG  ASN d   1       1.078   2.577  11.290  0.00  0.00     0.217 C 
ATOM     58  OD1 ASN d   1       0.774   3.513  12.026  0.00  0.00    -0.274 OA
ATOM     59  ND2 ASN d   1       0.811   2.577   9.993  0.00  0.00    -0.370 N 
ATOM     60  H9  ASN d   1       0.315   3.343   9.585  0.00  0.00     0.159 HD
ATOM     61  H10 ASN d   1       1.105   1.811   9.422  0.00  0.00     0.159 HD
ENDBRANCH  54  57
ENDBRANCH  23  54
ENDBRANCH  17  19
BRANCH  17  62
ATOM     62  O   RTY d   1       5.266   0.425  16.428  0.00  0.00    -0.392 OA
ATOM     63  H14 RTY d   1       6.174   0.697  16.492  0.00  0.00     0.210 HD
ENDBRANCH  17  62
ENDBRANCH  14  17
ENDBRANCH   1  14
BRANCH   2  64
ATOM     64  C   PRO d   1       5.590  -4.113  15.941  0.00  0.00     0.249 C 
ATOM     65  O   PRO d   1       5.869  -4.174  14.725  0.00  0.00    -0.271 OA
ATOM     66  N   ILE d   1       6.404  -4.523  16.901  0.00  0.00    -0.346 N 
ATOM     67  H31 ILE d   1       6.165  -4.320  17.851  0.00  0.00     0.163 HD
BRANCH  66  68
ATOM     68  CA  ILE d   1       7.642  -5.262  16.632  0.00  0.00     0.092 C 
ATOM     69  H32 ILE d   1       7.699  -5.600  15.587  0.00  0.00     0.088 H 
BRANCH  68  70
ATOM     70  C   ILE d   1       7.469  -6.374  17.628  0.00  0.00     0.241 C 
ATOM     71  O   ILE d   1       7.577  -6.141  18.838  0.00  0.00    -0.271 OA
ATOM     72  N   VAL d   1       7.102  -7.553  17.150  0.00  0.00    -0.346 N 
ATOM     73  H42 VAL d   1       6.933  -7.668  16.171  0.00  0.00     0.163 HD
BRANCH  72  74
ATOM     74  CA  VAL d   1       6.945  -8.685  18.059  0.00  0.00     0.092 C 
ATOM     75  H43 VAL d   1       7.101  -8.307  19.080  0.00  0.00     0.088 H 
BRANCH  74  76
ATOM     76  C   VAL d   1       8.020  -9.749  17.801  0.00  0.00     0.238 C 
ATOM     77  O   VAL d   1       8.336 -10.078  16.643  0.00  0.00    -0.271 OA
ATOM     78  N   NH2 d   1       8.634 -10.248  18.879  0.00  0.00    -0.368 N 
ATOM     79  H51 NH2 d   1       9.344 -10.945  18.773  0.00  0.00     0.159 HD
ATOM     80  H52 NH2 d   1       8.384  -9.925  19.791  0.00  0.00     0.159 HD
ENDBRANCH  74  76
BRANCH  74  81
ATOM     81  CB  VAL d   1       5.515  -9.271  18.008  0.00  0.00    -0.033 C 
ATOM     82  H44 VAL d   1       5.450 -10.090  18.740  0.00  0.00     0.042 H 
BRANCH  81  83
ATOM     83  CG1 VAL d   1       4.513  -8.207  18.391  0.00  0.00    -0.071 C 
ATOM     84  H45 VAL d   1       3.498  -8.629  18.353  0.00  0.00     0.028 H 
ATOM     85  H46 VAL d   1       4.586  -7.364  17.688  0.00  0.00     0.028 H 
ATOM     86  H47 VAL d   1       4.725  -7.853  19.411  0.00  0.00     0.028 H 
ENDBRANCH  81  83
BRANCH  81  87
ATOM     87  CG2 VAL d   1       5.200  -9.844  16.621  0.00  0.00    -0.071 C 
ATOM     88  H48 VAL d   1       5.942 -10.615  16.366  0.00  0.00     0.028 H 
ATOM     89  H49 VAL d   1       5.237  -9.037  15.874  0.00  0.00     0.028 H 
ATOM     90  H50 VAL d   1       4.195 -10.291  16.628  0.00  0.00     0.028 H 
ENDBRANCH  81  87
ENDBRANCH  74  81
ENDBRANCH  72  74
ENDBRANCH  68  70
BRANCH  68  91
ATOM     91  CB  ILE d   1       8.941  -4.546  17.044  0.00  0.00    -0.030 C 
ATOM     92  H33 ILE d   1       8.846  -4.212  18.088  0.00  0.00     0.043 H 
BRANCH  91  93
ATOM     93  CG1 ILE d   1       9.196  -3.331  16.168  0.00  0.00    -0.063 C 
ATOM     94  H34 ILE d   1      10.170  -2.899  16.442  0.00  0.00     0.033 H 
ATOM     95  H35 ILE d   1       8.402  -2.592  16.353  0.00  0.00     0.033 H 
BRANCH  93  96
ATOM     96  CD1 ILE d   1       9.212  -3.656  14.723  0.00  0.00    -0.076 C 
ATOM     97  H39 ILE d   1       9.400  -2.740  14.143  0.00  0.00     0.027 H 
ATOM     98  H40 ILE d   1       8.240  -4.081  14.432  0.00  0.00     0.027 H 
ATOM     99  H41 ILE d   1      10.008  -4.388  14.521  0.00  0.00     0.027 H 
ENDBRANCH  93  96
ENDBRANCH  91  93
BRANCH  91 100
ATOM    100  CG2 ILE d   1      10.104  -5.523  16.940  0.00  0.00    -0.071 C 
ATOM    101  H36 ILE d   1       9.907  -6.397  17.578  0.00  0.00     0.028 H 
ATOM    102  H37 ILE d   1      11.029  -5.029  17.271  0.00  0.00     0.028 H 
ATOM    103  H38 ILE d   1      10.216  -5.850  15.896  0.00  0.00     0.028 H 
ENDBRANCH  91 100
ENDBRANCH  68  91
ENDBRANCH  66  68
ENDBRANCH   2  64
TORSDOF 18
