REMARK  12 active torsions:
REMARK  status: ('A' for Active; 'I' for Inactive)
REMARK    1  A    between atoms: C1_1  and  O4_23 
REMARK    2  A    between atoms: C3_3  and  C21_4 
REMARK    3  A    between atoms: C7_9  and  C20_10 
REMARK    4  A    between atoms: C8_11  and  C10_13 
REMARK    5  A    between atoms: C10_13  and  C11_14 
REMARK    6  A    between atoms: C11_14  and  C12_15 
REMARK    7  A    between atoms: C14_17  and  O3_18 
REMARK    8  A    between atoms: O4_23  and  C23_24 
REMARK    9  A    between atoms: C23_24  and  C16_26 
REMARK   10  A    between atoms: C16_26  and  C19_27 
REMARK   11  A    between atoms: C16_26  and  C17_28 
REMARK   12  A    between atoms: C17_28  and  C18_29 
ROOT
ATOM      1  C1  803 d   1      52.497  19.025  23.052  0.00  0.00     0.056 C 
ATOM      2  C2  803 d   1      52.393  17.482  22.971  0.00  0.00    -0.034 C 
ATOM      3  C3  803 d   1      52.359  16.834  24.377  0.00  0.00    -0.038 C 
ATOM      4  C4  803 d   1      51.698  17.697  25.428  0.00  0.00    -0.093 C 
ATOM      5  C24 803 d   1      51.206  18.918  25.189  0.00  0.00    -0.055 C 
ATOM      6  C5  803 d   1      50.582  19.686  26.274  0.00  0.00    -0.080 C 
ATOM      7  C6  803 d   1      50.106  20.922  26.085  0.00  0.00    -0.099 C 
ATOM      8  C7  803 d   1      50.176  21.632  24.761  0.00  0.00    -0.037 C 
ATOM      9  C8  803 d   1      51.364  21.058  23.971  0.00  0.00    -0.038 C 
ATOM     10  C9  803 d   1      51.266  19.532  23.823  0.00  0.00     0.001 C 
ATOM     11  H1  803 d   1      52.520  19.456  22.040  0.00  0.00     0.085 H 
ATOM     12  H2  803 d   1      53.264  17.095  22.421  0.00  0.00     0.037 H 
ATOM     13  H3  803 d   1      51.471  17.215  22.433  0.00  0.00     0.037 H 
ATOM     14  H4  803 d   1      51.772  15.908  24.292  0.00  0.00     0.045 H 
ATOM     15  H8  803 d   1      51.618  17.301  26.439  0.00  0.00     0.078 H 
ATOM     16  H9  803 d   1      50.504  19.236  27.262  0.00  0.00     0.083 H 
ATOM     17  H10 803 d   1      49.647  21.437  26.928  0.00  0.00     0.077 H 
ATOM     18  H11 803 d   1      50.370  22.697  24.956  0.00  0.00     0.046 H 
ATOM     19  H15 803 d   1      52.287  21.295  24.521  0.00  0.00     0.042 H 
ATOM     20  H16 803 d   1      50.354  19.271  23.265  0.00  0.00     0.051 H 
ENDROOT
BRANCH   9  21
ATOM     21  C10 803 d   1      51.447  21.694  22.580  0.00  0.00    -0.058 C 
ATOM     22  H17 803 d   1      50.508  21.512  22.036  0.00  0.00     0.033 H 
ATOM     23  H18 803 d   1      52.285  21.251  22.023  0.00  0.00     0.033 H 
BRANCH  21  24
ATOM     24  C11 803 d   1      51.671  23.209  22.727  0.00  0.00    -0.040 C 
ATOM     25  H19 803 d   1      52.420  23.411  23.507  0.00  0.00     0.036 H 
ATOM     26  H20 803 d   1      50.727  23.711  22.986  0.00  0.00     0.036 H 
BRANCH  24  27
ATOM     27  C12 803 d   1      52.177  23.696  21.366  0.00  0.00     0.050 C 
ATOM     28  C13 803 d   1      52.436  25.218  21.438  0.00  0.00    -0.016 C 
ATOM     29  C14 803 d   1      51.599  25.984  20.409  0.00  0.00     0.046 C 
ATOM     30  H22 803 d   1      53.502  25.408  21.243  0.00  0.00     0.040 H 
ATOM     31  H23 803 d   1      52.178  25.576  22.445  0.00  0.00     0.040 H 
ATOM     32  C15 803 d   1      50.196  25.374  20.521  0.00  0.00     0.040 C 
ATOM     33  H24 803 d   1      51.567  27.055  20.656  0.00  0.00     0.083 H 
ATOM     34  C22 803 d   1      50.282  23.978  19.974  0.00  0.00     0.261 C 
ATOM     35  H26 803 d   1      49.478  25.966  19.935  0.00  0.00     0.051 H 
ATOM     36  H27 803 d   1      49.877  25.349  21.574  0.00  0.00     0.051 H 
ATOM     37  O2  803 d   1      49.463  23.585  19.156  0.00  0.00    -0.265 OA
ATOM     38  O1  803 d   1      51.261  23.169  20.389  0.00  0.00    -0.316 OA
ATOM     39  H21 803 d   1      53.153  23.231  21.164  0.00  0.00     0.084 H 
BRANCH  29  40
ATOM     40  O3  803 d   1      52.158  25.821  19.102  0.00  0.00    -0.395 OA
ATOM     41  H25 803 d   1      52.165  24.899  18.875  0.00  0.00     0.210 HD
ENDBRANCH  29  40
ENDBRANCH  24  27
ENDBRANCH  21  24
ENDBRANCH   9  21
BRANCH   8  42
ATOM     42  C20 803 d   1      48.868  21.542  23.949  0.00  0.00    -0.069 C 
ATOM     43  H12 803 d   1      48.040  21.960  24.540  0.00  0.00     0.028 H 
ATOM     44  H13 803 d   1      48.655  20.489  23.712  0.00  0.00     0.028 H 
ATOM     45  H14 803 d   1      48.976  22.113  23.015  0.00  0.00     0.028 H 
ENDBRANCH   8  42
BRANCH   1  46
ATOM     46  O4  803 d   1      53.678  19.407  23.772  0.00  0.00    -0.315 OA
BRANCH  46  47
ATOM     47  C23 803 d   1      54.765  19.395  22.995  0.00  0.00     0.263 C 
ATOM     48  O5  803 d   1      54.734  19.102  21.809  0.00  0.00    -0.265 OA
BRANCH  47  49
ATOM     49  C16 803 d   1      56.030  19.778  23.712  0.00  0.00     0.026 C 
ATOM     50  H28 803 d   1      55.798  19.951  24.773  0.00  0.00     0.054 H 
BRANCH  49  51
ATOM     51  C19 803 d   1      57.059  18.637  23.609  0.00  0.00    -0.064 C 
ATOM     52  H29 803 d   1      57.980  18.926  24.136  0.00  0.00     0.028 H 
ATOM     53  H30 803 d   1      57.287  18.443  22.550  0.00  0.00     0.028 H 
ATOM     54  H31 803 d   1      56.645  17.727  24.067  0.00  0.00     0.028 H 
ENDBRANCH  49  51
BRANCH  49  55
ATOM     55  C17 803 d   1      56.607  21.070  23.116  0.00  0.00    -0.057 C 
ATOM     56  H32 803 d   1      56.771  20.942  22.036  0.00  0.00     0.033 H 
ATOM     57  H33 803 d   1      57.562  21.313  23.605  0.00  0.00     0.033 H 
BRANCH  55  58
ATOM     58  C18 803 d   1      55.592  22.202  23.360  0.00  0.00    -0.076 C 
ATOM     59  H34 803 d   1      55.983  23.141  22.941  0.00  0.00     0.027 H 
ATOM     60  H35 803 d   1      55.430  22.322  24.441  0.00  0.00     0.027 H 
ATOM     61  H36 803 d   1      54.639  21.951  22.872  0.00  0.00     0.027 H 
ENDBRANCH  55  58
ENDBRANCH  49  55
ENDBRANCH  47  49
ENDBRANCH  46  47
ENDBRANCH   1  46
BRANCH   3  62
ATOM     62  C21 803 d   1      53.777  16.458  24.857  0.00  0.00    -0.070 C 
ATOM     63  H5  803 d   1      53.717  16.002  25.856  0.00  0.00     0.028 H 
ATOM     64  H6  803 d   1      54.400  17.363  24.904  0.00  0.00     0.028 H 
ATOM     65  H7  803 d   1      54.224  15.741  24.153  0.00  0.00     0.028 H 
ENDBRANCH   3  62
TORSDOF 12
