REMARK  5 active torsions:
REMARK  status: ('A' for Active; 'I' for Inactive)
REMARK    1  A    between atoms: C7_8  and  C6_6 
REMARK    2  A    between atoms: C9_10  and  N1_7 
REMARK       I    between atoms: N1_7  and  C10_11 
REMARK    3  A    between atoms: C8_9  and  C7_8 
REMARK    4  A    between atoms: C8_9  and  C9_10 
REMARK       I    between atoms: C10_11  and  N2_13 
REMARK    5  A    between atoms: N2_13  and  C11_14 
ROOT
ATOM      1  N1  CPU d   1     -43.187-113.494 -29.274  0.00  0.00    -0.343 N 
ATOM      2  C10 CPU d   1     -42.026-113.595 -28.597  0.00  0.00     0.316 C 
ATOM      3  O1  CPU d   1     -41.797-112.700 -27.774  0.00  0.00    -0.247 OA
ATOM      4  N2  CPU d   1     -41.165-114.634 -28.803  0.00  0.00    -0.339 N 
ATOM      5  H6  CPU d   1     -43.799-112.725 -29.090  0.00  0.00     0.164 HD
ATOM      6  H13 CPU d   1     -41.427-115.313 -29.489  0.00  0.00     0.164 HD
ENDROOT
BRANCH   1   7
ATOM      7  C9  CPU d   1     -43.561-114.483 -30.265  0.00  0.00    -0.003 C 
ATOM      8  H11 CPU d   1     -43.565-115.466 -29.771  0.00  0.00     0.064 H 
ATOM      9  H12 CPU d   1     -42.794-114.472 -31.054  0.00  0.00     0.064 H 
BRANCH   7  10
ATOM     10  C8  CPU d   1     -44.913-114.297 -30.933  0.00  0.00    -0.046 C 
ATOM     11  H9  CPU d   1     -45.737-114.362 -30.207  0.00  0.00     0.035 H 
ATOM     12  H10 CPU d   1     -44.972-113.339 -31.471  0.00  0.00     0.035 H 
BRANCH  10  13
ATOM     13  C7  CPU d   1     -44.912-115.469 -31.881  0.00  0.00    -0.040 C 
ATOM     14  H7  CPU d   1     -44.039-115.322 -32.534  0.00  0.00     0.040 H 
ATOM     15  H8  CPU d   1     -44.755-116.359 -31.254  0.00  0.00     0.040 H 
BRANCH  13  16
ATOM     16  C6  CPU d   1     -46.072-115.820 -32.813  0.00  0.00    -0.058 A 
ATOM     17  C1  CPU d   1     -46.196-117.204 -33.233  0.00  0.00    -0.077 A 
ATOM     18  C2  CPU d   1     -47.242-117.630 -34.098  0.00  0.00    -0.082 A 
ATOM     19  H1  CPU d   1     -45.474-117.931 -32.879  0.00  0.00     0.084 H 
ATOM     20  C3  CPU d   1     -48.178-116.682 -34.558  0.00  0.00    -0.083 A 
ATOM     21  H2  CPU d   1     -47.318-118.669 -34.399  0.00  0.00     0.083 H 
ATOM     22  C4  CPU d   1     -48.055-115.321 -34.149  0.00  0.00    -0.082 A 
ATOM     23  H3  CPU d   1     -48.984-116.984 -35.217  0.00  0.00     0.083 H 
ATOM     24  C5  CPU d   1     -46.999-114.886 -33.273  0.00  0.00    -0.077 A 
ATOM     25  H4  CPU d   1     -48.776-114.595 -34.507  0.00  0.00     0.083 H 
ATOM     26  H5  CPU d   1     -46.926-113.846 -32.975  0.00  0.00     0.084 H 
ENDBRANCH  13  16
ENDBRANCH  10  13
ENDBRANCH   7  10
ENDBRANCH   1   7
BRANCH   4  27
ATOM     27  C11 CPU d   1     -39.860-114.849 -28.093  0.00  0.00     0.014 C 
ATOM     28  C12 CPU d   1     -39.347-116.306 -28.384  0.00  0.00    -0.046 C 
ATOM     29  C13 CPU d   1     -37.978-116.652 -27.661  0.00  0.00    -0.063 C 
ATOM     30  H15 CPU d   1     -39.205-116.415 -29.469  0.00  0.00     0.035 H 
ATOM     31  H16 CPU d   1     -40.111-117.019 -28.041  0.00  0.00     0.035 H 
ATOM     32  C14 CPU d   1     -37.990-116.318 -26.104  0.00  0.00    -0.065 C 
ATOM     33  H17 CPU d   1     -37.174-116.071 -28.137  0.00  0.00     0.033 H 
ATOM     34  H18 CPU d   1     -37.778-117.726 -27.787  0.00  0.00     0.033 H 
ATOM     35  C15 CPU d   1     -38.635-114.904 -25.770  0.00  0.00    -0.063 C 
ATOM     36  H19 CPU d   1     -36.953-116.324 -25.737  0.00  0.00     0.033 H 
ATOM     37  H20 CPU d   1     -38.567-117.097 -25.584  0.00  0.00     0.033 H 
ATOM     38  C16 CPU d   1     -40.001-114.653 -26.538  0.00  0.00    -0.046 C 
ATOM     39  H21 CPU d   1     -37.922-114.117 -26.055  0.00  0.00     0.033 H 
ATOM     40  H22 CPU d   1     -38.826-114.852 -24.688  0.00  0.00     0.033 H 
ATOM     41  H23 CPU d   1     -40.754-115.360 -26.160  0.00  0.00     0.035 H 
ATOM     42  H24 CPU d   1     -40.333-113.623 -26.340  0.00  0.00     0.035 H 
ATOM     43  H14 CPU d   1     -39.127-114.124 -28.475  0.00  0.00     0.072 H 
ENDBRANCH   4  27
TORSDOF 5
