REMARK  6 active torsions:
REMARK  status: ('A' for Active; 'I' for Inactive)
REMARK    1  A    between atoms: O3_10  and  P_1 
REMARK    2  A    between atoms: C5_6  and  O5_5 
REMARK    3  A    between atoms: C4_7  and  C5_6 
REMARK    4  A    between atoms: C3_9  and  O3_10 
REMARK    5  A    between atoms: C1_12  and  N9_13 
REMARK    6  A    between atoms: C6_17  and  N6_18 
ROOT
ATOM      1  C4  101 d   1      57.649 -11.579  52.560  0.00  0.00     0.087 C 
ATOM      2  O4  101 d   1      57.511 -12.868  51.904  0.00  0.00    -0.356 OA
ATOM      3  C3  101 d   1      56.880 -11.674  53.885  0.00  0.00     0.082 C 
ATOM      4  C2  101 d   1      56.575 -13.157  54.018  0.00  0.00     0.003 C 
ATOM      5  C1  101 d   1      56.527 -13.631  52.575  0.00  0.00     0.115 C 
ATOM      6  H4  101 d   1      57.188 -10.796  51.940  0.00  0.00     0.090 H 
ATOM      7  H5  101 d   1      57.510 -11.332  54.719  0.00  0.00     0.088 H 
ATOM      8  H6  101 d   1      55.609 -13.318  54.519  0.00  0.00     0.043 H 
ATOM      9  H7  101 d   1      57.368 -13.675  54.577  0.00  0.00     0.043 H 
ATOM     10  H8  101 d   1      55.530 -13.438  52.153  0.00  0.00     0.118 H 
ENDROOT
BRANCH   5  11
ATOM     11  N9  101 d   1      56.847 -15.055  52.418  0.00  0.00    -0.296 N 
ATOM     12  C8  101 d   1      58.041 -15.693  52.657  0.00  0.00     0.070 A 
ATOM     13  N7  101 d   1      57.975 -16.998  52.536  0.00  0.00    -0.236 NA
ATOM     14  H9  101 d   1      58.956 -15.165  52.922  0.00  0.00     0.144 H 
ATOM     15  C5  101 d   1      56.656 -17.232  52.174  0.00  0.00     0.149 A 
ATOM     16  C6  101 d   1      55.937 -18.421  51.936  0.00  0.00     0.155 A 
ATOM     17  C4  101 d   1      55.961 -16.044  52.060  0.00  0.00     0.167 A 
ATOM     18  N1  101 d   1      54.633 -18.310  51.581  0.00  0.00    -0.222 NA
ATOM     19  C2  101 d   1      54.099 -17.088  51.492  0.00  0.00     0.091 A 
ATOM     20  N3  101 d   1      54.671 -15.898  51.709  0.00  0.00    -0.222 NA
ATOM     21  H12 101 d   1      53.055 -17.056  51.203  0.00  0.00     0.146 H 
BRANCH  16  22
ATOM     22  N6  101 d   1      56.471 -19.638  52.043  0.00  0.00    -0.382 N 
ATOM     23  H10 101 d   1      55.895 -20.471  51.856  0.00  0.00     0.157 HD
ATOM     24  H11 101 d   1      57.459 -19.745  52.312  0.00  0.00     0.157 HD
ENDBRANCH  16  22
ENDBRANCH   5  11
BRANCH   1  25
ATOM     25  C5  101 d   1      59.117 -11.254  52.717  0.00  0.00     0.043 C 
ATOM     26  H2  101 d   1      59.635 -11.443  51.765  0.00  0.00     0.078 H 
ATOM     27  H3  101 d   1      59.228 -10.195  52.991  0.00  0.00     0.078 H 
BRANCH  25  28
ATOM     28  O5  101 d   1      59.690 -12.066  53.734  0.00  0.00    -0.398 OA
ATOM     29  H1  101 d   1      59.596 -12.981  53.497  0.00  0.00     0.209 HD
ENDBRANCH  25  28
ENDBRANCH   1  25
BRANCH   3  30
ATOM     30  O3  101 d   1      55.668 -10.900  53.867  0.00  0.00    -0.275 OA
BRANCH  30  31
ATOM     31  P   101 d   1      55.023 -10.382  55.260  0.00  0.00     0.422 P 
ATOM     32  O1P 101 d   1      56.106  -9.960  56.176  0.00  0.00    -0.617 OA
ATOM     33  O2P 101 d   1      53.931  -9.426  54.936  0.00  0.00    -0.617 OA
ATOM     34  O3P 101 d   1      54.402 -11.615  55.816  0.00  0.00    -0.617 OA
ENDBRANCH  30  31
ENDBRANCH   3  30
TORSDOF 6
