REMARK  25 active torsions:
REMARK  status: ('A' for Active; 'I' for Inactive)
REMARK    1  A    between atoms: AC6_6  and  AN6_7 
REMARK    2  A    between atoms: AN9_10  and  AC1_11 
REMARK    3  A    between atoms: AC2_12  and  AO2_13 
REMARK    4  A    between atoms: AC3_14  and  AO3_15 
REMARK    5  A    between atoms: AO3_15  and  AP3_16 
REMARK    6  A    between atoms: AC4_20  and  AC5_22 
REMARK    7  A    between atoms: AC5_22  and  AO5_23 
REMARK    8  A    between atoms: AO5_23  and  AP1_24 
REMARK    9  A    between atoms: AP1_24  and  AO3_27 
REMARK   10  A    between atoms: AO3_27  and  AP2_28 
REMARK   11  A    between atoms: AP2_28  and  AO6_31 
REMARK   12  A    between atoms: AO6_31  and  PC12_33 
REMARK   13  A    between atoms: PC12_33  and  PC11_32 
REMARK   14  A    between atoms: PC11_32  and  PC13_34 
REMARK   15  A    between atoms: PC11_32  and  PC14_35 
REMARK   16  A    between atoms: PC11_32  and  PC10_36 
REMARK   17  A    between atoms: PC10_36  and  PO10_37 
REMARK   18  A    between atoms: PC10_36  and  PC9_38 
REMARK       I    between atoms: PC9_38  and  PN8_40 
REMARK   19  A    between atoms: PN8_40  and  PC7_41 
REMARK   20  A    between atoms: PC7_41  and  PC6_42 
REMARK   21  A    between atoms: PC6_42  and  PC5_43 
REMARK       I    between atoms: PC5_43  and  PN4_45 
REMARK   22  A    between atoms: PN4_45  and  PC3_46 
REMARK   23  A    between atoms: PC3_46  and  PC2_47 
REMARK   24  A    between atoms: PC2_47  and  C1_48 
REMARK   25  A    between atoms: C1_48  and  C2_49 
REMARK       I    between atoms: C2_49  and  N2_51 
ROOT
ATOM      1  PC1 AMX d   1      14.359 -10.604   7.185  0.00  0.00     0.041 C 
ATOM      2  H12 AMX d   1      13.930 -10.634   6.173  0.00  0.00     0.076 H 
ATOM      3  H13 AMX d   1      15.252 -11.245   7.224  0.00  0.00     0.076 H 
ENDROOT
BRANCH   1   4
ATOM      4  AO6 AMX d   1      13.399 -11.058   8.129  0.00  0.00    -0.289 OA
BRANCH   4   5
ATOM      5  AP2 AMX d   1      13.059 -12.627   8.405  0.00  0.00     0.417 P 
ATOM      6  AO4 AMX d   1      13.045 -13.312   7.078  0.00  0.00    -0.624 OA
ATOM      7  AO5 AMX d   1      11.882 -12.524   9.301  0.00  0.00    -0.624 OA
BRANCH   5   8
ATOM      8  AO3 AMX d   1      14.449 -12.948   9.157  0.00  0.00    -0.180 OA
BRANCH   8   9
ATOM      9  AP1 AMX d   1      14.820 -14.330   9.854  0.00  0.00     0.417 P 
ATOM     10  AO1 AMX d   1      13.992 -15.538   9.476  0.00  0.00    -0.624 OA
ATOM     11  AO2 AMX d   1      16.287 -14.428   9.833  0.00  0.00    -0.624 OA
BRANCH   9  12
ATOM     12  AO5 AMX d   1      14.447 -13.880  11.343  0.00  0.00    -0.287 OA
BRANCH  12  13
ATOM     13  AC5 AMX d   1      14.703 -14.819  12.389  0.00  0.00     0.058 C 
ATOM     14  H10 AMX d   1      13.806 -15.432  12.560  0.00  0.00     0.079 H 
ATOM     15  H11 AMX d   1      15.542 -15.470  12.101  0.00  0.00     0.079 H 
BRANCH  13  16
ATOM     16  AC4 AMX d   1      15.053 -14.075  13.651  0.00  0.00     0.090 C 
ATOM     17  AC3 AMX d   1      14.095 -12.954  14.005  0.00  0.00     0.107 C 
ATOM     18  AC2 AMX d   1      14.815 -11.783  13.321  0.00  0.00     0.106 C 
ATOM     19  H8  AMX d   1      13.081 -13.104  13.606  0.00  0.00     0.092 H 
ATOM     20  AC1 AMX d   1      16.242 -12.064  13.773  0.00  0.00     0.140 C 
ATOM     21  H6  AMX d   1      14.735 -11.896  12.230  0.00  0.00     0.093 H 
ATOM     22  AO4 AMX d   1      16.346 -13.422  13.491  0.00  0.00    -0.353 OA
ATOM     23  H5  AMX d   1      16.415 -11.838  14.836  0.00  0.00     0.122 H 
ATOM     24  H9  AMX d   1      15.090 -14.797  14.480  0.00  0.00     0.090 H 
BRANCH  17  25
ATOM     25  AO3 AMX d   1      14.063 -12.857  15.409  0.00  0.00    -0.272 OA
BRANCH  25  26
ATOM     26  AP3 AMX d   1      12.653 -13.089  16.190  0.00  0.00     0.422 P 
ATOM     27  AO7 AMX d   1      11.598 -12.387  15.403  0.00  0.00    -0.617 OA
ATOM     28  AO8 AMX d   1      12.800 -12.747  17.631  0.00  0.00    -0.617 OA
ATOM     29  AO9 AMX d   1      12.433 -14.565  16.065  0.00  0.00    -0.617 OA
ENDBRANCH  25  26
ENDBRANCH  17  25
BRANCH  18  30
ATOM     30  AO2 AMX d   1      14.373 -10.485  13.624  0.00  0.00    -0.388 OA
ATOM     31  H7  AMX d   1      13.481 -10.376  13.317  0.00  0.00     0.210 HD
ENDBRANCH  18  30
BRANCH  20  32
ATOM     32  AN9 AMX d   1      17.135 -11.287  12.911  0.00  0.00    -0.294 N 
ATOM     33  AC4 AMX d   1      17.892 -10.167  13.205  0.00  0.00     0.167 A 
ATOM     34  AN3 AMX d   1      18.129  -9.653  14.415  0.00  0.00    -0.222 NA
ATOM     35  AC5 AMX d   1      18.401  -9.691  12.012  0.00  0.00     0.149 A 
ATOM     36  AC2 AMX d   1      18.960  -8.618  14.353  0.00  0.00     0.091 A 
ATOM     37  AN1 AMX d   1      19.531  -8.047  13.305  0.00  0.00    -0.222 NA
ATOM     38  H1  AMX d   1      19.209  -8.172  15.309  0.00  0.00     0.146 H 
ATOM     39  AC6 AMX d   1      19.277  -8.579  12.091  0.00  0.00     0.155 A 
ATOM     40  AN7 AMX d   1      17.913 -10.472  10.969  0.00  0.00    -0.236 NA
ATOM     41  AC8 AMX d   1      17.149 -11.396  11.547  0.00  0.00     0.071 A 
ATOM     42  H4  AMX d   1      16.596 -12.155  10.995  0.00  0.00     0.144 H 
BRANCH  39  43
ATOM     43  AN6 AMX d   1      19.838  -7.966  11.082  0.00  0.00    -0.382 N 
ATOM     44  H2  AMX d   1      19.692  -8.312  10.123  0.00  0.00     0.157 HD
ATOM     45  H3  AMX d   1      20.427  -7.137  11.246  0.00  0.00     0.157 HD
ENDBRANCH  39  43
ENDBRANCH  20  32
ENDBRANCH  13  16
ENDBRANCH  12  13
ENDBRANCH   9  12
ENDBRANCH   8   9
ENDBRANCH   5   8
ENDBRANCH   4   5
ENDBRANCH   1   4
BRANCH   1  46
ATOM     46  PC1 AMX d   1      14.734  -9.179   7.541  0.00  0.00     0.009 C 
BRANCH  46  47
ATOM     47  PC1 AMX d   1      15.428  -8.510   6.330  0.00  0.00    -0.065 C 
ATOM     48  H14 AMX d   1      15.700  -7.476   6.588  0.00  0.00     0.028 H 
ATOM     49  H15 AMX d   1      14.741  -8.505   5.471  0.00  0.00     0.028 H 
ATOM     50  H16 AMX d   1      16.336  -9.074   6.070  0.00  0.00     0.028 H 
ENDBRANCH  46  47
BRANCH  46  51
ATOM     51  PC1 AMX d   1      13.444  -8.474   7.995  0.00  0.00    -0.065 C 
ATOM     52  H17 AMX d   1      13.017  -9.010   8.855  0.00  0.00     0.028 H 
ATOM     53  H18 AMX d   1      12.718  -8.469   7.168  0.00  0.00     0.028 H 
ATOM     54  H19 AMX d   1      13.675  -7.439   8.286  0.00  0.00     0.028 H 
ENDBRANCH  46  51
BRANCH  46  55
ATOM     55  PC1 AMX d   1      15.700  -9.285   8.744  0.00  0.00     0.120 C 
ATOM     56  H20 AMX d   1      15.199  -9.876   9.525  0.00  0.00     0.099 H 
BRANCH  55  57
ATOM     57  PO1 AMX d   1      16.872  -9.993   8.344  0.00  0.00    -0.385 OA
ATOM     58  H21 AMX d   1      17.467 -10.060   9.081  0.00  0.00     0.210 HD
ENDBRANCH  55  57
BRANCH  55  59
ATOM     59  PC9 AMX d   1      16.034  -7.932   9.349  0.00  0.00     0.247 C 
ATOM     60  PO9 AMX d   1      15.277  -7.475  10.231  0.00  0.00    -0.271 OA
ATOM     61  PN8 AMX d   1      17.105  -7.293   8.905  0.00  0.00    -0.358 N 
ATOM     62  H22 AMX d   1      17.680  -7.714   8.204  0.00  0.00     0.162 HD
BRANCH  61  63
ATOM     63  PC7 AMX d   1      17.455  -5.960   9.440  0.00  0.00     0.003 C 
ATOM     64  H23 AMX d   1      18.545  -5.821   9.389  0.00  0.00     0.064 H 
ATOM     65  H24 AMX d   1      17.125  -5.888  10.487  0.00  0.00     0.064 H 
BRANCH  63  66
ATOM     66  PC6 AMX d   1      16.760  -4.865   8.608  0.00  0.00     0.024 C 
ATOM     67  H25 AMX d   1      16.921  -3.899   9.110  0.00  0.00     0.049 H 
ATOM     68  H26 AMX d   1      15.683  -5.088   8.578  0.00  0.00     0.049 H 
BRANCH  66  69
ATOM     69  PC5 AMX d   1      17.261  -4.744   7.171  0.00  0.00     0.219 C 
ATOM     70  PO5 AMX d   1      18.473  -4.749   6.935  0.00  0.00    -0.274 OA
ATOM     71  PN4 AMX d   1      16.327  -4.606   6.203  0.00  0.00    -0.361 N 
ATOM     72  H27 AMX d   1      15.360  -4.619   6.458  0.00  0.00     0.162 HD
BRANCH  71  73
ATOM     73  PC3 AMX d   1      16.682  -4.440   4.805  0.00  0.00    -0.004 C 
ATOM     74  H28 AMX d   1      17.759  -4.224   4.746  0.00  0.00     0.064 H 
ATOM     75  H29 AMX d   1      16.114  -3.587   4.404  0.00  0.00     0.064 H 
BRANCH  73  76
ATOM     76  PC2 AMX d   1      16.388  -5.670   3.929  0.00  0.00    -0.042 C 
ATOM     77  H30 AMX d   1      15.323  -5.933   4.007  0.00  0.00     0.036 H 
ATOM     78  H31 AMX d   1      17.001  -6.519   4.266  0.00  0.00     0.036 H 
BRANCH  76  79
ATOM     79  C1  AMX d   1      16.736  -5.328   2.447  0.00  0.00     0.010 C 
ATOM     80  H32 AMX d   1      16.815  -6.264   1.874  0.00  0.00     0.047 H 
ATOM     81  H33 AMX d   1      17.700  -4.799   2.420  0.00  0.00     0.047 H 
BRANCH  79  82
ATOM     82  C2  AMX d   1      15.667  -4.443   1.807  0.00  0.00     0.215 C 
ATOM     83  O2  AMX d   1      14.492  -4.795   1.890  0.00  0.00    -0.274 OA
ATOM     84  N2  AMX d   1      16.023  -3.249   1.353  0.00  0.00    -0.370 N 
ATOM     85  H34 AMX d   1      15.342  -2.651   0.930  0.00  0.00     0.159 HD
ATOM     86  H35 AMX d   1      16.973  -2.946   1.433  0.00  0.00     0.159 HD
ENDBRANCH  79  82
ENDBRANCH  76  79
ENDBRANCH  73  76
ENDBRANCH  71  73
ENDBRANCH  66  69
ENDBRANCH  63  66
ENDBRANCH  61  63
ENDBRANCH  55  59
ENDBRANCH  46  55
ENDBRANCH   1  46
TORSDOF 25
