REMARK  25 active torsions:
REMARK  status: ('A' for Active; 'I' for Inactive)
REMARK    1  A    between atoms: AC6_6  and  AN6_7 
REMARK    2  A    between atoms: AN9_10  and  AC1_11 
REMARK    3  A    between atoms: AC2_12  and  AO2_13 
REMARK    4  A    between atoms: AC3_14  and  AO3_15 
REMARK    5  A    between atoms: AO3_15  and  AP3_16 
REMARK    6  A    between atoms: AC4_20  and  AC5_22 
REMARK    7  A    between atoms: AC5_22  and  AO5_23 
REMARK    8  A    between atoms: AO5_23  and  AP1_24 
REMARK    9  A    between atoms: AP1_24  and  AO3_27 
REMARK   10  A    between atoms: AO3_27  and  AP2_28 
REMARK   11  A    between atoms: AP2_28  and  AO6_31 
REMARK   12  A    between atoms: AO6_31  and  PC12_33 
REMARK   13  A    between atoms: PC12_33  and  PC11_32 
REMARK   14  A    between atoms: PC11_32  and  PC13_34 
REMARK   15  A    between atoms: PC11_32  and  PC14_35 
REMARK   16  A    between atoms: PC11_32  and  PC10_36 
REMARK   17  A    between atoms: PC10_36  and  PO10_37 
REMARK   18  A    between atoms: PC10_36  and  PC9_38 
REMARK       I    between atoms: PC9_38  and  PN8_40 
REMARK   19  A    between atoms: PN8_40  and  PC7_41 
REMARK   20  A    between atoms: PC7_41  and  PC6_42 
REMARK   21  A    between atoms: PC6_42  and  PC5_43 
REMARK       I    between atoms: PC5_43  and  PN4_45 
REMARK   22  A    between atoms: PN4_45  and  PC3_46 
REMARK   23  A    between atoms: PC3_46  and  PC2_47 
REMARK   24  A    between atoms: PC2_47  and  C1_48 
REMARK   25  A    between atoms: C1_48  and  C2_49 
ROOT
ATOM      1  AO6 CMX d   1      13.357 -11.084   8.214  0.00  0.00    -0.289 OA
ENDROOT
BRANCH   1   2
ATOM      2  AP2 CMX d   1      13.044 -12.674   8.445  0.00  0.00     0.417 P 
ATOM      3  AO4 CMX d   1      12.944 -13.332   7.139  0.00  0.00    -0.624 OA
ATOM      4  AO5 CMX d   1      11.967 -12.725   9.437  0.00  0.00    -0.624 OA
BRANCH   2   5
ATOM      5  AO3 CMX d   1      14.474 -13.011   9.132  0.00  0.00    -0.180 OA
BRANCH   5   6
ATOM      6  AP1 CMX d   1      14.737 -14.377   9.931  0.00  0.00     0.417 P 
ATOM      7  AO1 CMX d   1      13.916 -15.513   9.466  0.00  0.00    -0.624 OA
ATOM      8  AO2 CMX d   1      16.219 -14.580   9.845  0.00  0.00    -0.624 OA
BRANCH   6   9
ATOM      9  AO5 CMX d   1      14.391 -13.930  11.419  0.00  0.00    -0.287 OA
BRANCH   9  10
ATOM     10  AC5 CMX d   1      14.702 -14.898  12.416  0.00  0.00     0.058 C 
ATOM     11  H10 CMX d   1      13.833 -15.548  12.596  0.00  0.00     0.079 H 
ATOM     12  H11 CMX d   1      15.558 -15.510  12.096  0.00  0.00     0.079 H 
BRANCH  10  13
ATOM     13  AC4 CMX d   1      15.049 -14.135  13.670  0.00  0.00     0.090 C 
ATOM     14  AC3 CMX d   1      14.074 -12.983  13.977  0.00  0.00     0.107 C 
ATOM     15  AC2 CMX d   1      14.809 -11.836  13.315  0.00  0.00     0.106 C 
ATOM     16  H8  CMX d   1      13.064 -13.143  13.572  0.00  0.00     0.092 H 
ATOM     17  AC1 CMX d   1      16.234 -12.115  13.787  0.00  0.00     0.140 C 
ATOM     18  H6  CMX d   1      14.745 -11.941  12.222  0.00  0.00     0.093 H 
ATOM     19  AO4 CMX d   1      16.334 -13.508  13.466  0.00  0.00    -0.353 OA
ATOM     20  H5  CMX d   1      16.397 -11.916  14.857  0.00  0.00     0.122 H 
ATOM     21  H9  CMX d   1      15.082 -14.831  14.521  0.00  0.00     0.090 H 
BRANCH  14  22
ATOM     22  AO3 CMX d   1      14.046 -12.778  15.399  0.00  0.00    -0.272 OA
BRANCH  22  23
ATOM     23  AP3 CMX d   1      12.713 -13.127  16.254  0.00  0.00     0.422 P 
ATOM     24  AO7 CMX d   1      11.552 -12.456  15.650  0.00  0.00    -0.617 OA
ATOM     25  AO8 CMX d   1      12.970 -12.869  17.690  0.00  0.00    -0.617 OA
ATOM     26  AO9 CMX d   1      12.563 -14.599  16.016  0.00  0.00    -0.617 OA
ENDBRANCH  22  23
ENDBRANCH  14  22
BRANCH  15  27
ATOM     27  AO2 CMX d   1      14.359 -10.539  13.631  0.00  0.00    -0.388 OA
ATOM     28  H7  CMX d   1      13.471 -10.427  13.313  0.00  0.00     0.210 HD
ENDBRANCH  15  27
BRANCH  17  29
ATOM     29  AN9 CMX d   1      17.107 -11.282  12.948  0.00  0.00    -0.294 N 
ATOM     30  AC4 CMX d   1      17.902 -10.188  13.242  0.00  0.00     0.167 A 
ATOM     31  AN3 CMX d   1      18.156  -9.698  14.467  0.00  0.00    -0.222 NA
ATOM     32  AC5 CMX d   1      18.402  -9.740  12.042  0.00  0.00     0.149 A 
ATOM     33  AC2 CMX d   1      18.980  -8.660  14.407  0.00  0.00     0.091 A 
ATOM     34  AN1 CMX d   1      19.521  -8.093  13.346  0.00  0.00    -0.222 NA
ATOM     35  H1  CMX d   1      19.245  -8.217  15.360  0.00  0.00     0.146 H 
ATOM     36  AC6 CMX d   1      19.265  -8.633  12.104  0.00  0.00     0.155 A 
ATOM     37  AN7 CMX d   1      17.876 -10.504  10.989  0.00  0.00    -0.236 NA
ATOM     38  AC8 CMX d   1      17.122 -11.401  11.569  0.00  0.00     0.071 A 
ATOM     39  H4  CMX d   1      16.564 -12.162  11.024  0.00  0.00     0.144 H 
BRANCH  36  40
ATOM     40  AN6 CMX d   1      19.800  -8.047  11.053  0.00  0.00    -0.382 N 
ATOM     41  H2  CMX d   1      19.629  -8.425  10.110  0.00  0.00     0.157 HD
ATOM     42  H3  CMX d   1      20.390  -7.211  11.174  0.00  0.00     0.157 HD
ENDBRANCH  36  40
ENDBRANCH  17  29
ENDBRANCH  10  13
ENDBRANCH   9  10
ENDBRANCH   6   9
ENDBRANCH   5   6
ENDBRANCH   2   5
ENDBRANCH   1   2
BRANCH   1  43
ATOM     43  PC1 CMX d   1      14.210 -10.603   7.177  0.00  0.00     0.041 C 
ATOM     44  H12 CMX d   1      13.652 -10.558   6.230  0.00  0.00     0.076 H 
ATOM     45  H13 CMX d   1      15.070 -11.279   7.063  0.00  0.00     0.076 H 
BRANCH  43  46
ATOM     46  PC1 CMX d   1      14.702  -9.203   7.551  0.00  0.00     0.009 C 
BRANCH  46  47
ATOM     47  PC1 CMX d   1      15.393  -8.582   6.320  0.00  0.00    -0.065 C 
ATOM     48  H14 CMX d   1      15.753  -7.574   6.572  0.00  0.00     0.028 H 
ATOM     49  H15 CMX d   1      14.675  -8.518   5.490  0.00  0.00     0.028 H 
ATOM     50  H16 CMX d   1      16.244  -9.211   6.021  0.00  0.00     0.028 H 
ENDBRANCH  46  47
BRANCH  46  51
ATOM     51  PC1 CMX d   1      13.436  -8.399   7.940  0.00  0.00    -0.065 C 
ATOM     52  H17 CMX d   1      12.963  -8.862   8.819  0.00  0.00     0.028 H 
ATOM     53  H18 CMX d   1      12.727  -8.401   7.099  0.00  0.00     0.028 H 
ATOM     54  H19 CMX d   1      13.719  -7.363   8.179  0.00  0.00     0.028 H 
ENDBRANCH  46  51
BRANCH  46  55
ATOM     55  PC1 CMX d   1      15.638  -9.345   8.763  0.00  0.00     0.120 C 
ATOM     56  H20 CMX d   1      15.116  -9.952   9.517  0.00  0.00     0.099 H 
BRANCH  55  57
ATOM     57  PO1 CMX d   1      16.855 -10.005   8.419  0.00  0.00    -0.385 OA
ATOM     58  H21 CMX d   1      17.405 -10.074   9.190  0.00  0.00     0.210 HD
ENDBRANCH  55  57
BRANCH  55  59
ATOM     59  PC9 CMX d   1      15.986  -7.985   9.394  0.00  0.00     0.247 C 
ATOM     60  PO9 CMX d   1      15.297  -7.462  10.286  0.00  0.00    -0.271 OA
ATOM     61  PN8 CMX d   1      17.082  -7.400   8.953  0.00  0.00    -0.358 N 
ATOM     62  H22 CMX d   1      17.636  -7.876   8.270  0.00  0.00     0.162 HD
BRANCH  61  63
ATOM     63  PC7 CMX d   1      17.530  -6.067   9.425  0.00  0.00     0.003 C 
ATOM     64  H23 CMX d   1      18.611  -5.957   9.257  0.00  0.00     0.064 H 
ATOM     65  H24 CMX d   1      17.313  -5.960  10.498  0.00  0.00     0.064 H 
BRANCH  63  66
ATOM     66  PC6 CMX d   1      16.775  -5.000   8.638  0.00  0.00     0.024 C 
ATOM     67  H25 CMX d   1      16.907  -4.036   9.151  0.00  0.00     0.049 H 
ATOM     68  H26 CMX d   1      15.708  -5.269   8.631  0.00  0.00     0.049 H 
BRANCH  66  69
ATOM     69  PC5 CMX d   1      17.235  -4.838   7.196  0.00  0.00     0.219 C 
ATOM     70  PO5 CMX d   1      18.452  -4.813   6.918  0.00  0.00    -0.274 OA
ATOM     71  PN4 CMX d   1      16.285  -4.667   6.264  0.00  0.00    -0.361 N 
ATOM     72  H27 CMX d   1      15.317  -4.689   6.515  0.00  0.00     0.162 HD
BRANCH  71  73
ATOM     73  PC3 CMX d   1      16.686  -4.448   4.879  0.00  0.00    -0.004 C 
ATOM     74  H28 CMX d   1      17.768  -4.252   4.855  0.00  0.00     0.064 H 
ATOM     75  H29 CMX d   1      16.146  -3.571   4.493  0.00  0.00     0.064 H 
BRANCH  73  76
ATOM     76  PC2 CMX d   1      16.385  -5.653   3.961  0.00  0.00    -0.041 C 
ATOM     77  H30 CMX d   1      15.334  -5.942   4.106  0.00  0.00     0.036 H 
ATOM     78  H31 CMX d   1      17.039  -6.486   4.260  0.00  0.00     0.036 H 
BRANCH  76  79
ATOM     79  C1  CMX d   1      16.614  -5.373   2.421  0.00  0.00     0.017 C 
ATOM     80  H32 CMX d   1      16.537  -6.318   1.864  0.00  0.00     0.049 H 
ATOM     81  H33 CMX d   1      17.615  -4.942   2.275  0.00  0.00     0.049 H 
BRANCH  79  82
ATOM     82  C2  CMX d   1      15.588  -4.418   1.915  0.00  0.00     0.172 C 
ATOM     83  O21 CMX d   1      14.410  -4.681   1.887  0.00  0.00    -0.648 OA
ATOM     84  O22 CMX d   1      16.032  -3.275   1.548  0.00  0.00    -0.648 OA
ENDBRANCH  79  82
ENDBRANCH  76  79
ENDBRANCH  73  76
ENDBRANCH  71  73
ENDBRANCH  66  69
ENDBRANCH  63  66
ENDBRANCH  61  63
ENDBRANCH  55  59
ENDBRANCH  46  55
ENDBRANCH  43  46
ENDBRANCH   1  43
TORSDOF 25
