REMARK  25 active torsions:
REMARK  status: ('A' for Active; 'I' for Inactive)
REMARK    1  A    between atoms: AC6_6  and  AN6_7 
REMARK    2  A    between atoms: AN9_10  and  AC1_11 
REMARK    3  A    between atoms: AC2_12  and  AO2_13 
REMARK    4  A    between atoms: AC3_14  and  AO3_15 
REMARK    5  A    between atoms: AO3_15  and  AP3_16 
REMARK    6  A    between atoms: AC4_20  and  AC5_22 
REMARK    7  A    between atoms: AC5_22  and  AO5_23 
REMARK    8  A    between atoms: AO5_23  and  AP1_24 
REMARK    9  A    between atoms: AP1_24  and  AO3_27 
REMARK   10  A    between atoms: AO3_27  and  AP2_28 
REMARK   11  A    between atoms: AP2_28  and  AO6_31 
REMARK   12  A    between atoms: AO6_31  and  PC12_33 
REMARK   13  A    between atoms: PC12_33  and  PC11_32 
REMARK   14  A    between atoms: PC11_32  and  PC13_34 
REMARK   15  A    between atoms: PC11_32  and  PC14_35 
REMARK   16  A    between atoms: PC11_32  and  PC10_36 
REMARK   17  A    between atoms: PC10_36  and  PO10_37 
REMARK   18  A    between atoms: PC10_36  and  PC9_38 
REMARK       I    between atoms: PC9_38  and  PN8_40 
REMARK   19  A    between atoms: PN8_40  and  PC7_41 
REMARK   20  A    between atoms: PC7_41  and  PC6_42 
REMARK   21  A    between atoms: PC6_42  and  PC5_43 
REMARK       I    between atoms: PC5_43  and  PN4_45 
REMARK   22  A    between atoms: PN4_45  and  PC3_46 
REMARK   23  A    between atoms: PC3_46  and  PC2_47 
REMARK   24  A    between atoms: PC2_47  and  C1_48 
REMARK   25  A    between atoms: C1_48  and  C2_50 
REMARK       I    between atoms: C2_50  and  N2_52 
ROOT
ATOM      1  PC1 FAM d   1      14.238 -10.569   7.134  0.00  0.00     0.041 C 
ATOM      2  H12 FAM d   1      13.669 -10.522   6.194  0.00  0.00     0.076 H 
ATOM      3  H13 FAM d   1      15.106 -11.232   7.005  0.00  0.00     0.076 H 
ENDROOT
BRANCH   1   4
ATOM      4  AO6 FAM d   1      13.377 -11.097   8.196  0.00  0.00    -0.289 OA
BRANCH   4   5
ATOM      5  AP2 FAM d   1      13.098 -12.654   8.422  0.00  0.00     0.417 P 
ATOM      6  AO4 FAM d   1      13.084 -13.372   7.106  0.00  0.00    -0.624 OA
ATOM      7  AO5 FAM d   1      11.924 -12.659   9.336  0.00  0.00    -0.624 OA
BRANCH   5   8
ATOM      8  AO3 FAM d   1      14.466 -12.922   9.246  0.00  0.00    -0.180 OA
BRANCH   8   9
ATOM      9  AP1 FAM d   1      14.766 -14.307   9.982  0.00  0.00     0.417 P 
ATOM     10  AO1 FAM d   1      13.903 -15.449   9.538  0.00  0.00    -0.624 OA
ATOM     11  AO2 FAM d   1      16.240 -14.496   9.910  0.00  0.00    -0.624 OA
BRANCH   9  12
ATOM     12  AO5 FAM d   1      14.508 -13.937  11.520  0.00  0.00    -0.287 OA
BRANCH  12  13
ATOM     13  AC5 FAM d   1      14.970 -14.857  12.523  0.00  0.00     0.058 C 
ATOM     14  H10 FAM d   1      14.200 -15.618  12.717  0.00  0.00     0.079 H 
ATOM     15  H11 FAM d   1      15.894 -15.348  12.185  0.00  0.00     0.079 H 
BRANCH  13  16
ATOM     16  AC4 FAM d   1      15.236 -14.068  13.770  0.00  0.00     0.090 C 
ATOM     17  AC3 FAM d   1      14.191 -12.950  13.998  0.00  0.00     0.107 C 
ATOM     18  AC2 FAM d   1      14.872 -11.755  13.348  0.00  0.00     0.106 C 
ATOM     19  H8  FAM d   1      13.250 -13.188  13.481  0.00  0.00     0.092 H 
ATOM     20  AC1 FAM d   1      16.317 -12.011  13.794  0.00  0.00     0.140 C 
ATOM     21  H6  FAM d   1      14.786 -11.815  12.253  0.00  0.00     0.093 H 
ATOM     22  AO4 FAM d   1      16.501 -13.382  13.550  0.00  0.00    -0.353 OA
ATOM     23  H5  FAM d   1      16.468 -11.780  14.859  0.00  0.00     0.122 H 
ATOM     24  H9  FAM d   1      15.280 -14.736  14.643  0.00  0.00     0.090 H 
BRANCH  17  25
ATOM     25  AO3 FAM d   1      13.905 -12.737  15.391  0.00  0.00    -0.272 OA
BRANCH  25  26
ATOM     26  AP3 FAM d   1      12.483 -13.109  16.061  0.00  0.00     0.422 P 
ATOM     27  AO7 FAM d   1      11.398 -12.725  15.098  0.00  0.00    -0.617 OA
ATOM     28  AO8 FAM d   1      12.489 -12.576  17.447  0.00  0.00    -0.617 OA
ATOM     29  AO9 FAM d   1      12.505 -14.593  16.188  0.00  0.00    -0.617 OA
ENDBRANCH  25  26
ENDBRANCH  17  25
BRANCH  18  30
ATOM     30  AO2 FAM d   1      14.376 -10.486  13.753  0.00  0.00    -0.388 OA
ATOM     31  H7  FAM d   1      13.481 -10.385  13.450  0.00  0.00     0.210 HD
ENDBRANCH  18  30
BRANCH  20  32
ATOM     32  AN9 FAM d   1      17.173 -11.165  12.971  0.00  0.00    -0.294 N 
ATOM     33  AC4 FAM d   1      17.952 -10.056  13.272  0.00  0.00     0.167 A 
ATOM     34  AN3 FAM d   1      18.244  -9.550  14.493  0.00  0.00    -0.222 NA
ATOM     35  AC5 FAM d   1      18.421  -9.585  12.062  0.00  0.00     0.149 A 
ATOM     36  AC2 FAM d   1      19.072  -8.513  14.419  0.00  0.00     0.091 A 
ATOM     37  AN1 FAM d   1      19.605  -7.949  13.336  0.00  0.00    -0.222 NA
ATOM     38  H1  FAM d   1      19.351  -8.066  15.367  0.00  0.00     0.146 H 
ATOM     39  AC6 FAM d   1      19.295  -8.468  12.117  0.00  0.00     0.155 A 
ATOM     40  AN7 FAM d   1      17.889 -10.347  11.016  0.00  0.00    -0.236 NA
ATOM     41  AC8 FAM d   1      17.145 -11.267  11.604  0.00  0.00     0.071 A 
ATOM     42  H4  FAM d   1      16.574 -12.021  11.064  0.00  0.00     0.144 H 
BRANCH  39  43
ATOM     43  AN6 FAM d   1      19.800  -7.859  11.048  0.00  0.00    -0.382 N 
ATOM     44  H2  FAM d   1      19.592  -8.217  10.105  0.00  0.00     0.157 HD
ATOM     45  H3  FAM d   1      20.399  -7.029  11.163  0.00  0.00     0.157 HD
ENDBRANCH  39  43
ENDBRANCH  20  32
ENDBRANCH  13  16
ENDBRANCH  12  13
ENDBRANCH   9  12
ENDBRANCH   8   9
ENDBRANCH   5   8
ENDBRANCH   4   5
ENDBRANCH   1   4
BRANCH   1  46
ATOM     46  PC1 FAM d   1      14.719  -9.177   7.500  0.00  0.00     0.009 C 
BRANCH  46  47
ATOM     47  PC1 FAM d   1      15.351  -8.493   6.270  0.00  0.00    -0.065 C 
ATOM     48  H14 FAM d   1      15.695  -7.486   6.547  0.00  0.00     0.028 H 
ATOM     49  H15 FAM d   1      14.602  -8.416   5.468  0.00  0.00     0.028 H 
ATOM     50  H16 FAM d   1      16.206  -9.089   5.918  0.00  0.00     0.028 H 
ENDBRANCH  46  47
BRANCH  46  51
ATOM     51  PC1 FAM d   1      13.475  -8.404   7.984  0.00  0.00    -0.065 C 
ATOM     52  H17 FAM d   1      13.045  -8.912   8.860  0.00  0.00     0.028 H 
ATOM     53  H18 FAM d   1      12.728  -8.369   7.177  0.00  0.00     0.028 H 
ATOM     54  H19 FAM d   1      13.764  -7.379   8.260  0.00  0.00     0.028 H 
ENDBRANCH  46  51
BRANCH  46  55
ATOM     55  PC1 FAM d   1      15.765  -9.304   8.628  0.00  0.00     0.120 C 
ATOM     56  H20 FAM d   1      15.195  -9.865   9.383  0.00  0.00     0.099 H 
BRANCH  55  57
ATOM     57  PO1 FAM d   1      16.892 -10.139   8.458  0.00  0.00    -0.385 OA
ATOM     58  H21 FAM d   1      17.431 -10.104   9.239  0.00  0.00     0.210 HD
ENDBRANCH  55  57
BRANCH  55  59
ATOM     59  PC9 FAM d   1      16.070  -7.986   9.359  0.00  0.00     0.247 C 
ATOM     60  PO9 FAM d   1      15.404  -7.643  10.355  0.00  0.00    -0.271 OA
ATOM     61  PN8 FAM d   1      17.055  -7.229   8.864  0.00  0.00    -0.358 N 
ATOM     62  H22 FAM d   1      17.563  -7.558   8.068  0.00  0.00     0.162 HD
BRANCH  61  63
ATOM     63  PC7 FAM d   1      17.417  -5.932   9.448  0.00  0.00     0.003 C 
ATOM     64  H23 FAM d   1      18.509  -5.804   9.415  0.00  0.00     0.064 H 
ATOM     65  H24 FAM d   1      17.074  -5.888  10.492  0.00  0.00     0.064 H 
BRANCH  63  66
ATOM     66  PC6 FAM d   1      16.744  -4.819   8.638  0.00  0.00     0.024 C 
ATOM     67  H25 FAM d   1      16.925  -3.868   9.160  0.00  0.00     0.049 H 
ATOM     68  H26 FAM d   1      15.664  -5.026   8.617  0.00  0.00     0.049 H 
BRANCH  66  69
ATOM     69  PC5 FAM d   1      17.222  -4.652   7.173  0.00  0.00     0.219 C 
ATOM     70  PO5 FAM d   1      18.411  -4.774   6.906  0.00  0.00    -0.274 OA
ATOM     71  PN4 FAM d   1      16.313  -4.322   6.231  0.00  0.00    -0.361 N 
ATOM     72  H27 FAM d   1      15.361  -4.215   6.516  0.00  0.00     0.162 HD
BRANCH  71  73
ATOM     73  PC3 FAM d   1      16.634  -4.110   4.815  0.00  0.00    -0.002 C 
ATOM     74  H28 FAM d   1      17.688  -3.805   4.734  0.00  0.00     0.064 H 
ATOM     75  H29 FAM d   1      15.989  -3.309   4.423  0.00  0.00     0.064 H 
BRANCH  73  76
ATOM     76  PC2 FAM d   1      16.418  -5.391   3.954  0.00  0.00    -0.013 C 
ATOM     77  H30 FAM d   1      15.385  -5.740   4.097  0.00  0.00     0.040 H 
ATOM     78  H31 FAM d   1      17.118  -6.167   4.297  0.00  0.00     0.040 H 
BRANCH  76  79
ATOM     79  C1  FAM d   1      16.655  -5.143   2.427  0.00  0.00     0.156 C 
ATOM     80  F1  FAM d   1      16.712  -6.328   1.752  0.00  0.00    -0.239 F 
ATOM     81  H32 FAM d   1      17.601  -4.596   2.303  0.00  0.00     0.106 H 
BRANCH  79  82
ATOM     82  C2  FAM d   1      15.545  -4.366   1.801  0.00  0.00     0.249 C 
ATOM     83  O2  FAM d   1      14.411  -4.816   1.812  0.00  0.00    -0.271 OA
ATOM     84  N2  FAM d   1      15.902  -3.195   1.270  0.00  0.00    -0.368 N 
ATOM     85  H33 FAM d   1      15.216  -2.615   0.832  0.00  0.00     0.159 HD
ATOM     86  H34 FAM d   1      16.856  -2.898   1.311  0.00  0.00     0.159 HD
ENDBRANCH  79  82
ENDBRANCH  76  79
ENDBRANCH  73  76
ENDBRANCH  71  73
ENDBRANCH  66  69
ENDBRANCH  63  66
ENDBRANCH  61  63
ENDBRANCH  55  59
ENDBRANCH  46  55
ENDBRANCH   1  46
TORSDOF 25
