REMARK  25 active torsions:
REMARK  status: ('A' for Active; 'I' for Inactive)
REMARK    1  A    between atoms: AC6_6  and  AN6_7 
REMARK    2  A    between atoms: AN9_10  and  AC1_11 
REMARK    3  A    between atoms: AC2_12  and  AO2_13 
REMARK    4  A    between atoms: AC3_14  and  AO3_15 
REMARK    5  A    between atoms: AO3_15  and  AP3_16 
REMARK    6  A    between atoms: AC4_20  and  AC5_22 
REMARK    7  A    between atoms: AC5_22  and  AO5_23 
REMARK    8  A    between atoms: AO5_23  and  AP1_24 
REMARK    9  A    between atoms: AP1_24  and  AO3_27 
REMARK   10  A    between atoms: AO3_27  and  AP2_28 
REMARK   11  A    between atoms: AP2_28  and  AO6_31 
REMARK   12  A    between atoms: AO6_31  and  PC12_33 
REMARK   13  A    between atoms: PC12_33  and  PC11_32 
REMARK   14  A    between atoms: PC11_32  and  PC13_34 
REMARK   15  A    between atoms: PC11_32  and  PC14_35 
REMARK   16  A    between atoms: PC11_32  and  PC10_36 
REMARK   17  A    between atoms: PC10_36  and  PO10_37 
REMARK   18  A    between atoms: PC10_36  and  PC9_38 
REMARK       I    between atoms: PC9_38  and  PN8_40 
REMARK   19  A    between atoms: PN8_40  and  PC7_41 
REMARK   20  A    between atoms: PC7_41  and  PC6_42 
REMARK   21  A    between atoms: PC6_42  and  PC5_43 
REMARK       I    between atoms: PC5_43  and  PN4_45 
REMARK   22  A    between atoms: PN4_45  and  PC3_46 
REMARK   23  A    between atoms: PC3_46  and  PC2_47 
REMARK   24  A    between atoms: PC2_47  and  C1_48 
REMARK   25  A    between atoms: C1_48  and  C2_50 
ROOT
ATOM      1  AO6 FCX d   1      13.374 -11.020   8.201  0.00  0.00    -0.289 OA
ENDROOT
BRANCH   1   2
ATOM      2  AP2 FCX d   1      13.063 -12.609   8.430  0.00  0.00     0.417 P 
ATOM      3  AO4 FCX d   1      13.022 -13.353   7.148  0.00  0.00    -0.624 OA
ATOM      4  AO5 FCX d   1      11.889 -12.636   9.311  0.00  0.00    -0.624 OA
BRANCH   2   5
ATOM      5  AO3 FCX d   1      14.429 -12.980   9.165  0.00  0.00    -0.180 OA
BRANCH   5   6
ATOM      6  AP1 FCX d   1      14.769 -14.331   9.900  0.00  0.00     0.417 P 
ATOM      7  AO1 FCX d   1      13.925 -15.518   9.572  0.00  0.00    -0.624 OA
ATOM      8  AO2 FCX d   1      16.225 -14.463   9.736  0.00  0.00    -0.624 OA
BRANCH   6   9
ATOM      9  AO5 FCX d   1      14.425 -13.901  11.398  0.00  0.00    -0.287 OA
BRANCH   9  10
ATOM     10  AC5 FCX d   1      14.746 -14.875  12.435  0.00  0.00     0.058 C 
ATOM     11  H10 FCX d   1      13.898 -15.557  12.592  0.00  0.00     0.079 H 
ATOM     12  H11 FCX d   1      15.636 -15.456  12.149  0.00  0.00     0.079 H 
BRANCH  10  13
ATOM     13  AC4 FCX d   1      15.019 -14.086  13.689  0.00  0.00     0.090 C 
ATOM     14  AC3 FCX d   1      14.050 -12.922  13.957  0.00  0.00     0.107 C 
ATOM     15  AC2 FCX d   1      14.811 -11.765  13.323  0.00  0.00     0.106 C 
ATOM     16  H8  FCX d   1      13.043 -13.070  13.540  0.00  0.00     0.092 H 
ATOM     17  AC1 FCX d   1      16.250 -12.058  13.816  0.00  0.00     0.140 C 
ATOM     18  H6  FCX d   1      14.768 -11.846  12.227  0.00  0.00     0.093 H 
ATOM     19  AO4 FCX d   1      16.302 -13.431  13.514  0.00  0.00    -0.353 OA
ATOM     20  H5  FCX d   1      16.430 -11.838  14.879  0.00  0.00     0.122 H 
ATOM     21  H9  FCX d   1      15.029 -14.770  14.551  0.00  0.00     0.090 H 
BRANCH  14  22
ATOM     22  AO3 FCX d   1      14.035 -12.729  15.380  0.00  0.00    -0.272 OA
BRANCH  22  23
ATOM     23  AP3 FCX d   1      12.646 -13.035  16.191  0.00  0.00     0.422 P 
ATOM     24  AO7 FCX d   1      11.534 -12.399  15.421  0.00  0.00    -0.617 OA
ATOM     25  AO8 FCX d   1      12.843 -12.700  17.628  0.00  0.00    -0.617 OA
ATOM     26  AO9 FCX d   1      12.546 -14.522  16.086  0.00  0.00    -0.617 OA
ENDBRANCH  22  23
ENDBRANCH  14  22
BRANCH  15  27
ATOM     27  AO2 FCX d   1      14.320 -10.469  13.672  0.00  0.00    -0.388 OA
ATOM     28  H7  FCX d   1      13.437 -10.365  13.337  0.00  0.00     0.210 HD
ENDBRANCH  15  27
BRANCH  17  29
ATOM     29  AN9 FCX d   1      17.105 -11.284  12.947  0.00  0.00    -0.294 N 
ATOM     30  AC4 FCX d   1      17.905 -10.197  13.248  0.00  0.00     0.167 A 
ATOM     31  AN3 FCX d   1      18.129  -9.680  14.473  0.00  0.00    -0.222 NA
ATOM     32  AC5 FCX d   1      18.391  -9.735  12.047  0.00  0.00     0.149 A 
ATOM     33  AC2 FCX d   1      18.964  -8.638  14.399  0.00  0.00     0.091 A 
ATOM     34  AN1 FCX d   1      19.532  -8.074  13.329  0.00  0.00    -0.222 NA
ATOM     35  H1  FCX d   1      19.218  -8.183  15.349  0.00  0.00     0.146 H 
ATOM     36  AC6 FCX d   1      19.269  -8.622  12.129  0.00  0.00     0.155 A 
ATOM     37  AN7 FCX d   1      17.918 -10.530  10.998  0.00  0.00    -0.236 NA
ATOM     38  AC8 FCX d   1      17.145 -11.431  11.577  0.00  0.00     0.071 A 
ATOM     39  H4  FCX d   1      16.601 -12.202  11.034  0.00  0.00     0.144 H 
BRANCH  36  40
ATOM     40  AN6 FCX d   1      19.805  -8.004  11.121  0.00  0.00    -0.382 N 
ATOM     41  H2  FCX d   1      19.656  -8.354  10.164  0.00  0.00     0.157 HD
ATOM     42  H3  FCX d   1      20.379  -7.163  11.278  0.00  0.00     0.157 HD
ENDBRANCH  36  40
ENDBRANCH  17  29
ENDBRANCH  10  13
ENDBRANCH   9  10
ENDBRANCH   6   9
ENDBRANCH   5   6
ENDBRANCH   2   5
ENDBRANCH   1   2
BRANCH   1  43
ATOM     43  PC1 FCX d   1      14.306 -10.563   7.224  0.00  0.00     0.041 C 
ATOM     44  H12 FCX d   1      13.832 -10.562   6.231  0.00  0.00     0.076 H 
ATOM     45  H13 FCX d   1      15.184 -11.226   7.211  0.00  0.00     0.076 H 
BRANCH  43  46
ATOM     46  PC1 FCX d   1      14.736  -9.153   7.586  0.00  0.00     0.009 C 
BRANCH  46  47
ATOM     47  PC1 FCX d   1      15.507  -8.607   6.351  0.00  0.00    -0.065 C 
ATOM     48  H14 FCX d   1      15.846  -7.581   6.555  0.00  0.00     0.028 H 
ATOM     49  H15 FCX d   1      14.842  -8.606   5.475  0.00  0.00     0.028 H 
ATOM     50  H16 FCX d   1      16.378  -9.248   6.150  0.00  0.00     0.028 H 
ENDBRANCH  46  47
BRANCH  46  51
ATOM     51  PC1 FCX d   1      13.429  -8.338   7.826  0.00  0.00    -0.065 C 
ATOM     52  H17 FCX d   1      12.901  -8.741   8.703  0.00  0.00     0.028 H 
ATOM     53  H18 FCX d   1      12.781  -8.415   6.941  0.00  0.00     0.028 H 
ATOM     54  H19 FCX d   1      13.682  -7.282   8.004  0.00  0.00     0.028 H 
ENDBRANCH  46  51
BRANCH  46  55
ATOM     55  PC1 FCX d   1      15.629  -9.281   8.851  0.00  0.00     0.120 C 
ATOM     56  H20 FCX d   1      15.128  -9.873   9.631  0.00  0.00     0.099 H 
BRANCH  55  57
ATOM     57  PO1 FCX d   1      16.809  -9.947   8.353  0.00  0.00    -0.385 OA
ATOM     58  H21 FCX d   1      17.425 -10.072   9.065  0.00  0.00     0.210 HD
ENDBRANCH  55  57
BRANCH  55  59
ATOM     59  PC9 FCX d   1      16.023  -7.912   9.410  0.00  0.00     0.247 C 
ATOM     60  PO9 FCX d   1      15.345  -7.350  10.270  0.00  0.00    -0.271 OA
ATOM     61  PN8 FCX d   1      17.126  -7.329   8.939  0.00  0.00    -0.358 N 
ATOM     62  H22 FCX d   1      17.674  -7.791   8.242  0.00  0.00     0.162 HD
BRANCH  61  63
ATOM     63  PC7 FCX d   1      17.543  -5.999   9.445  0.00  0.00     0.003 C 
ATOM     64  H23 FCX d   1      18.630  -5.883   9.321  0.00  0.00     0.064 H 
ATOM     65  H24 FCX d   1      17.284  -5.913  10.511  0.00  0.00     0.064 H 
BRANCH  63  66
ATOM     66  PC6 FCX d   1      16.818  -4.908   8.653  0.00  0.00     0.024 C 
ATOM     67  H25 FCX d   1      17.011  -3.942   9.144  0.00  0.00     0.049 H 
ATOM     68  H26 FCX d   1      15.740  -5.124   8.679  0.00  0.00     0.049 H 
BRANCH  66  69
ATOM     69  PC5 FCX d   1      17.245  -4.793   7.192  0.00  0.00     0.219 C 
ATOM     70  PO5 FCX d   1      18.466  -4.810   6.913  0.00  0.00    -0.274 OA
ATOM     71  PN4 FCX d   1      16.256  -4.578   6.247  0.00  0.00    -0.361 N 
ATOM     72  H27 FCX d   1      15.295  -4.527   6.520  0.00  0.00     0.162 HD
BRANCH  71  73
ATOM     73  PC3 FCX d   1      16.638  -4.427   4.848  0.00  0.00    -0.002 C 
ATOM     74  H28 FCX d   1      17.655  -4.010   4.821  0.00  0.00     0.064 H 
ATOM     75  H29 FCX d   1      15.938  -3.717   4.383  0.00  0.00     0.064 H 
BRANCH  73  76
ATOM     76  PC2 FCX d   1      16.635  -5.690   4.016  0.00  0.00    -0.012 C 
ATOM     77  H30 FCX d   1      15.795  -6.303   4.375  0.00  0.00     0.040 H 
ATOM     78  H31 FCX d   1      17.583  -6.208   4.224  0.00  0.00     0.040 H 
BRANCH  76  79
ATOM     79  C1  FCX d   1      16.501  -5.609   2.476  0.00  0.00     0.163 C 
ATOM     80  F1  FCX d   1      17.741  -5.526   1.881  0.00  0.00    -0.238 F 
ATOM     81  H32 FCX d   1      16.053  -6.559   2.149  0.00  0.00     0.108 H 
BRANCH  79  82
ATOM     82  C2  FCX d   1      15.571  -4.523   2.014  0.00  0.00     0.208 C 
ATOM     83  O1  FCX d   1      14.397  -4.726   1.814  0.00  0.00    -0.646 OA
ATOM     84  O2  FCX d   1      16.129  -3.363   1.806  0.00  0.00    -0.646 OA
ENDBRANCH  79  82
ENDBRANCH  76  79
ENDBRANCH  73  76
ENDBRANCH  71  73
ENDBRANCH  66  69
ENDBRANCH  63  66
ENDBRANCH  61  63
ENDBRANCH  55  59
ENDBRANCH  46  55
ENDBRANCH  43  46
ENDBRANCH   1  43
TORSDOF 25
