REMARK  13 active torsions:
REMARK  status: ('A' for Active; 'I' for Inactive)
REMARK    1  A    between atoms: C1_10  and  P1_6 
REMARK    2  A    between atoms: P1_6  and  O1_7 
REMARK    3  A    between atoms: O1_7  and  C10_21 
REMARK    4  A    between atoms: C2_11  and  C1_10 
REMARK    5  A    between atoms: N1_17  and  C5_15 
REMARK       I    between atoms: C8_18  and  N1_17 
REMARK    6  A    between atoms: C8_18  and  C9_20 
REMARK    7  A    between atoms: C10_21  and  C15_29 
REMARK    8  A    between atoms: C10_21  and  C11_22 
REMARK    9  A    between atoms: C11_22  and  N2_25 
REMARK   10  A    between atoms: C11_22  and  C12_23 
REMARK   11  A    between atoms: C12_23  and  O5_24 
REMARK       I    between atoms: N2_25  and  C13_26 
REMARK   12  A    between atoms: C13_26  and  C14_28 
REMARK   13  A    between atoms: C18_33  and  N3_35 
ROOT
ATOM      1  C10 TAA d   1      57.825  31.185  29.034  0.00  0.00     0.095 C 
ATOM      2  H8  TAA d   1      57.231  30.325  29.377  0.00  0.00     0.095 H 
ENDROOT
BRANCH   1   3
ATOM      3  O1  TAA d   1      59.136  31.100  29.678  0.00  0.00    -0.299 OA
BRANCH   3   4
ATOM      4  P1  TAA d   1      59.671  29.693  30.239  0.00  0.00     0.254 P 
ATOM      5  O3  TAA d   1      58.837  29.304  31.427  0.00  0.00    -0.646 OA
ATOM      6  O2  TAA d   1      59.722  28.696  29.191  0.00  0.00    -0.646 OA
BRANCH   4   7
ATOM      7  C1  TAA d   1      61.277  30.109  30.677  0.00  0.00     0.055 C 
ATOM      8  H1  TAA d   1      61.233  30.974  31.355  0.00  0.00     0.059 H 
ATOM      9  H2  TAA d   1      61.819  30.387  29.761  0.00  0.00     0.059 H 
BRANCH   7  10
ATOM     10  C2  TAA d   1      62.041  29.030  31.356  0.00  0.00    -0.046 A 
ATOM     11  C7  TAA d   1      63.057  28.301  30.711  0.00  0.00    -0.074 A 
ATOM     12  C6  TAA d   1      63.727  27.301  31.453  0.00  0.00    -0.057 A 
ATOM     13  H4  TAA d   1      63.318  28.500  29.678  0.00  0.00     0.084 H 
ATOM     14  C5  TAA d   1      63.369  27.057  32.811  0.00  0.00     0.035 A 
ATOM     15  H6  TAA d   1      64.514  26.719  30.988  0.00  0.00     0.086 H 
ATOM     16  C4  TAA d   1      62.342  27.803  33.396  0.00  0.00    -0.057 A 
ATOM     17  C3  TAA d   1      61.703  28.766  32.678  0.00  0.00    -0.074 A 
ATOM     18  H5  TAA d   1      62.054  27.614  34.424  0.00  0.00     0.086 H 
ATOM     19  H3  TAA d   1      60.913  29.340  33.148  0.00  0.00     0.084 H 
BRANCH  14  20
ATOM     20  N1  TAA d   1      64.125  26.140  33.720  0.00  0.00    -0.320 N 
ATOM     21  C8  TAA d   1      64.608  24.973  33.298  0.00  0.00     0.330 C 
ATOM     22  O4  TAA d   1      64.492  24.490  32.167  0.00  0.00    -0.263 OA
ATOM     23  H7  TAA d   1      64.272  26.411  34.671  0.00  0.00     0.169 HD
BRANCH  21  24
ATOM     24  C9  TAA d   1      65.489  24.277  34.379  0.00  0.00     0.472 C 
ATOM     25  F1  TAA d   1      65.033  24.575  35.688  0.00  0.00    -0.162 F 
ATOM     26  F2  TAA d   1      66.784  24.768  34.237  0.00  0.00    -0.162 F 
ATOM     27  F3  TAA d   1      65.505  22.931  34.126  0.00  0.00    -0.162 F 
ENDBRANCH  21  24
ENDBRANCH  14  20
ENDBRANCH   7  10
ENDBRANCH   4   7
ENDBRANCH   3   4
ENDBRANCH   1   3
BRANCH   1  28
ATOM     28  C15 TAA d   1      57.847  31.096  27.544  0.00  0.00    -0.027 A 
ATOM     29  C20 TAA d   1      58.901  31.723  26.886  0.00  0.00    -0.072 A 
ATOM     30  C19 TAA d   1      58.985  31.668  25.520  0.00  0.00    -0.050 A 
ATOM     31  H16 TAA d   1      59.655  32.255  27.454  0.00  0.00     0.084 H 
ATOM     32  C18 TAA d   1      58.021  30.990  24.828  0.00  0.00     0.102 A 
ATOM     33  H18 TAA d   1      59.801  32.153  24.997  0.00  0.00     0.087 H 
ATOM     34  C17 TAA d   1      56.957  30.360  25.500  0.00  0.00    -0.050 A 
ATOM     35  C16 TAA d   1      56.880  30.420  26.853  0.00  0.00    -0.072 A 
ATOM     36  H17 TAA d   1      56.200  29.827  24.937  0.00  0.00     0.087 H 
ATOM     37  H15 TAA d   1      56.063  29.939  27.379  0.00  0.00     0.084 H 
BRANCH  32  38
ATOM     38  N3  TAA d   1      58.110  30.953  23.403  0.00  0.00    -0.116 N 
ATOM     39  O8  TAA d   1      57.377  30.179  22.757  0.00  0.00    -0.532 OA
ATOM     40  O7  TAA d   1      58.913  31.722  22.855  0.00  0.00    -0.532 OA
ENDBRANCH  32  38
ENDBRANCH   1  28
BRANCH   1  41
ATOM     41  C11 TAA d   1      57.185  32.417  29.572  0.00  0.00     0.062 C 
ATOM     42  H9  TAA d   1      56.278  32.584  28.973  0.00  0.00     0.080 H 
BRANCH  41  43
ATOM     43  N2  TAA d   1      57.986  33.589  29.407  0.00  0.00    -0.349 N 
ATOM     44  C13 TAA d   1      57.518  34.754  29.035  0.00  0.00     0.251 C 
ATOM     45  O6  TAA d   1      56.336  34.973  28.782  0.00  0.00    -0.271 OA
ATOM     46  H13 TAA d   1      58.967  33.515  29.587  0.00  0.00     0.163 HD
BRANCH  44  47
ATOM     47  C14 TAA d   1      58.569  35.812  28.960  0.00  0.00     0.165 C 
ATOM     48 CL2  TAA d   1      57.937  37.269  29.706  0.00  0.00    -0.098 Cl
ATOM     49 CL1  TAA d   1      59.039  36.105  27.263  0.00  0.00    -0.098 Cl
ATOM     50  H14 TAA d   1      59.457  35.480  29.518  0.00  0.00     0.104 H 
ENDBRANCH  44  47
ENDBRANCH  41  43
BRANCH  41  51
ATOM     51  C12 TAA d   1      56.694  32.190  31.092  0.00  0.00     0.038 C 
ATOM     52  H10 TAA d   1      57.527  31.776  31.679  0.00  0.00     0.077 H 
ATOM     53  H11 TAA d   1      55.855  31.479  31.094  0.00  0.00     0.077 H 
BRANCH  51  54
ATOM     54  O5  TAA d   1      56.266  33.418  31.693  0.00  0.00    -0.399 OA
ATOM     55  H12 TAA d   1      56.988  34.035  31.698  0.00  0.00     0.209 HD
ENDBRANCH  51  54
ENDBRANCH  41  51
ENDBRANCH   1  41
TORSDOF 13
