REMARK  6 active torsions:
REMARK  status: ('A' for Active; 'I' for Inactive)
REMARK    1  A    between atoms: C1_1  and  C21_25 
REMARK    2  A    between atoms: N1_14  and  C13_15 
REMARK    3  A    between atoms: C13_15  and  C14_16 
REMARK    4  A    between atoms: C14_16  and  C15_17 
REMARK    5  A    between atoms: C15_17  and  N2_18 
REMARK    6  A    between atoms: N3_21  and  C20_24 
ROOT
ATOM      1  C1  TFP d   1       6.985  25.876 104.039  0.00  0.00     0.050 A 
ATOM      2  C2  TFP d   1       7.559  24.736 104.585  0.00  0.00    -0.067 A 
ATOM      3  C3  TFP d   1       7.004  24.173 105.711  0.00  0.00    -0.063 A 
ATOM      4  C4  TFP d   1       5.876  24.723 106.294  0.00  0.00     0.032 A 
ATOM      5  C5  TFP d   1       5.235  25.808 105.701  0.00  0.00     0.053 A 
ATOM      6  C6  TFP d   1       5.833  26.426 104.591  0.00  0.00    -0.041 A 
ATOM      7  S   TFP d   1       5.298  24.024 107.821  0.00  0.00    -0.086 SA
ATOM      8  C7  TFP d   1       4.562  25.379 108.612  0.00  0.00     0.032 A 
ATOM      9  C8  TFP d   1       4.459  25.337 110.006  0.00  0.00    -0.064 A 
ATOM     10  C9  TFP d   1       3.850  26.352 110.705  0.00  0.00    -0.082 A 
ATOM     11  C10 TFP d   1       3.315  27.396 110.009  0.00  0.00    -0.081 A 
ATOM     12  C11 TFP d   1       3.422  27.438 108.615  0.00  0.00    -0.056 A 
ATOM     13  C12 TFP d   1       4.100  26.459 107.862  0.00  0.00     0.052 A 
ATOM     14  N1  TFP d   1       4.125  26.434 106.363  0.00  0.00    -0.345 N 
ATOM     15  H1  TFP d   1       8.437  24.293 104.128  0.00  0.00     0.084 H 
ATOM     16  H2  TFP d   1       7.455  23.289 106.146  0.00  0.00     0.085 H 
ATOM     17  H3  TFP d   1       5.400  27.325 104.168  0.00  0.00     0.088 H 
ATOM     18  H4  TFP d   1       4.867  24.489 110.545  0.00  0.00     0.085 H 
ATOM     19  H5  TFP d   1       3.796  26.323 111.787  0.00  0.00     0.083 H 
ATOM     20  H6  TFP d   1       2.806  28.194 110.537  0.00  0.00     0.083 H 
ATOM     21  H7  TFP d   1       2.960  28.265 108.088  0.00  0.00     0.087 H 
ENDROOT
BRANCH  14  22
ATOM     22  C13 TFP d   1       3.559  27.562 105.623  0.00  0.00     0.002 C 
ATOM     23  H8  TFP d   1       4.342  27.993 104.981  0.00  0.00     0.065 H 
ATOM     24  H9  TFP d   1       3.215  28.320 106.342  0.00  0.00     0.065 H 
BRANCH  22  25
ATOM     25  C14 TFP d   1       2.373  27.143 104.742  0.00  0.00    -0.035 C 
ATOM     26  H10 TFP d   1       1.495  26.983 105.385  0.00  0.00     0.037 H 
ATOM     27  H11 TFP d   1       2.629  26.203 104.231  0.00  0.00     0.037 H 
BRANCH  25  28
ATOM     28  C15 TFP d   1       2.022  28.196 103.686  0.00  0.00     0.000 C 
ATOM     29  H12 TFP d   1       2.723  28.085 102.846  0.00  0.00     0.064 H 
ATOM     30  H13 TFP d   1       2.147  29.191 104.139  0.00  0.00     0.064 H 
BRANCH  28  31
ATOM     31  N2  TFP d   1       0.686  28.105 103.169  0.00  0.00    -0.364 N 
ATOM     32  C16 TFP d   1       0.446  28.518 101.833  0.00  0.00    -0.006 A 
ATOM     33  C17 TFP d   1      -0.869  28.457 101.266  0.00  0.00    -0.006 A 
ATOM     34  H14 TFP d   1       1.274  28.887 101.229  0.00  0.00     0.113 H 
ATOM     35  N3  TFP d   1      -1.963  27.980 102.047  0.00  0.00    -0.368 N 
ATOM     36  H15 TFP d   1      -1.033  28.775 100.237  0.00  0.00     0.113 H 
ATOM     37  C18 TFP d   1      -1.744  27.572 103.394  0.00  0.00    -0.006 A 
ATOM     38  C19 TFP d   1      -0.414  27.635 103.953  0.00  0.00    -0.006 A 
ATOM     39  H16 TFP d   1      -2.575  27.214 103.999  0.00  0.00     0.113 H 
ATOM     40  H17 TFP d   1      -0.247  27.321 104.982  0.00  0.00     0.113 H 
BRANCH  35  41
ATOM     41  C20 TFP d   1      -3.260  27.915 101.468  0.00  0.00    -0.015 C 
ATOM     42  H18 TFP d   1      -3.216  28.272 100.429  0.00  0.00     0.057 H 
ATOM     43  H19 TFP d   1      -3.951  28.548 102.044  0.00  0.00     0.057 H 
ATOM     44  H20 TFP d   1      -3.617  26.875 101.483  0.00  0.00     0.057 H 
ENDBRANCH  35  41
ENDBRANCH  28  31
ENDBRANCH  25  28
ENDBRANCH  22  25
ENDBRANCH  14  22
BRANCH   1  45
ATOM     45  C21 TFP d   1       7.655  26.550 102.931  0.00  0.00     0.417 C 
ATOM     46  F1  TFP d   1       8.701  25.916 102.471  0.00  0.00    -0.166 F 
ATOM     47  F2  TFP d   1       8.035  27.751 103.249  0.00  0.00    -0.166 F 
ATOM     48  F3  TFP d   1       6.983  26.770 101.849  0.00  0.00    -0.166 F 
ENDBRANCH   1  45
TORSDOF 6
