REMARK  7 active torsions:
REMARK  status: ('A' for Active; 'I' for Inactive)
REMARK    1  A    between atoms: S1_11  and  C2_5 
REMARK    2  A    between atoms: C3_6  and  O4_10 
REMARK    3  A    between atoms: C7_12  and  S1_11 
REMARK    4  A    between atoms: C8_13  and  C7_12 
REMARK    5  A    between atoms: C9_14  and  C8_13 
REMARK    6  A    between atoms: C10_15  and  C9_14 
REMARK    7  A    between atoms: C10_15  and  P1_16 
ROOT
ATOM      1  C7  HSP d   1      49.049  28.495  14.986  0.00  0.00     0.009 C 
ATOM      2  H6  HSP d   1      50.063  28.905  14.869  0.00  0.00     0.053 H 
ATOM      3  H7  HSP d   1      48.355  29.303  15.260  0.00  0.00     0.053 H 
ENDROOT
BRANCH   1   4
ATOM      4  S1  HSP d   1      49.058  27.241  16.303  0.00  0.00     0.052 S 
ATOM      5  O3  HSP d   1      47.713  26.318  16.192  0.00  0.00    -0.253 OA
BRANCH   4   6
ATOM      6  C2  HSP d   1      50.126  25.933  15.710  0.00  0.00     0.064 A 
ATOM      7  C1  HSP d   1      49.649  24.620  15.640  0.00  0.00    -0.062 A 
ATOM      8  C6  HSP d   1      50.492  23.592  15.178  0.00  0.00    -0.081 A 
ATOM      9  H1  HSP d   1      48.632  24.395  15.941  0.00  0.00     0.085 H 
ATOM     10  C5  HSP d   1      51.811  23.876  14.789  0.00  0.00    -0.080 A 
ATOM     11  H4  HSP d   1      50.121  22.575  15.122  0.00  0.00     0.083 H 
ATOM     12  C4  HSP d   1      52.295  25.195  14.858  0.00  0.00    -0.050 A 
ATOM     13  H3  HSP d   1      52.456  23.079  14.436  0.00  0.00     0.083 H 
ATOM     14  C3  HSP d   1      51.464  26.228  15.317  0.00  0.00     0.084 A 
ATOM     15  H2  HSP d   1      53.313  25.414  14.556  0.00  0.00     0.087 H 
BRANCH  14  16
ATOM     16  O4  HSP d   1      51.953  27.505  15.380  0.00  0.00    -0.359 OA
ATOM     17  H5  HSP d   1      52.219  27.784  14.512  0.00  0.00     0.217 HD
ENDBRANCH  14  16
ENDBRANCH   4   6
ENDBRANCH   1   4
BRANCH   1  18
ATOM     18  C8  HSP d   1      48.604  27.878  13.670  0.00  0.00    -0.054 C 
ATOM     19  H8  HSP d   1      47.590  27.468  13.788  0.00  0.00     0.034 H 
ATOM     20  H9  HSP d   1      49.297  27.069  13.398  0.00  0.00     0.034 H 
BRANCH  18  21
ATOM     21  C9  HSP d   1      48.595  28.923  12.561  0.00  0.00    -0.053 C 
ATOM     22  H10 HSP d   1      49.607  29.337  12.446  0.00  0.00     0.034 H 
ATOM     23  H11 HSP d   1      47.897  29.730  12.829  0.00  0.00     0.034 H 
BRANCH  21  24
ATOM     24  C10 HSP d   1      48.153  28.293  11.233  0.00  0.00     0.039 C 
ATOM     25  H12 HSP d   1      47.116  27.943  11.340  0.00  0.00     0.053 H 
ATOM     26  H13 HSP d   1      48.809  27.437  11.016  0.00  0.00     0.053 H 
BRANCH  24  27
ATOM     27  P1  HSP d   1      48.227  29.387   9.910  0.00  0.00     0.259 P 
ATOM     28  O1  HSP d   1      46.956  30.210   9.729  0.00  0.00    -0.640 OA
ATOM     29  O2  HSP d   1      48.469  28.712   8.580  0.00  0.00    -0.640 OA
ATOM     30  O5  HSP d   1      49.335  30.420  10.034  0.00  0.00    -0.640 OA
ENDBRANCH  24  27
ENDBRANCH  21  24
ENDBRANCH  18  21
ENDBRANCH   1  18
TORSDOF 7
