REMARK WARNING: 32 MAX_TORS EXCEEDED!!!
REMARK  41 active torsions:
REMARK  status: ('A' for Active; 'I' for Inactive)
REMARK    1  A    between atoms: N_1  and  CN_2 
REMARK    2  A    between atoms: CA_3  and  CB_5 
REMARK    3  A    between atoms: CB_5  and  CG2_6 
REMARK    4  A    between atoms: CB_5  and  OG1_14 
REMARK    5  A    between atoms: CG2_6  and  CD1_7 
REMARK    6  A    between atoms: CG2_6  and  CD2_8 
REMARK    7  A    between atoms: CG2_6  and  CD3_9 
REMARK    8  A    between atoms: CD1_7  and  CE_10 
REMARK    9  A    between atoms: CZ_11  and  CH_12 
REMARK   10  A    between atoms: CA_16  and  CB_19 
REMARK   11  A    between atoms: CB_19  and  CG_20 
REMARK   12  A    between atoms: N_21  and  CN_25 
REMARK   13  A    between atoms: N_26  and  CN_27 
REMARK   14  A    between atoms: CA_28  and  CB_29 
REMARK   15  A    between atoms: CB_29  and  CG_30 
REMARK   16  A    between atoms: CG_30  and  CD1_31 
REMARK   17  A    between atoms: CG_30  and  CD2_32 
REMARK   18  A    between atoms: CA_36  and  CB_39 
REMARK   19  A    between atoms: CB_39  and  CG1_40 
REMARK   20  A    between atoms: CB_39  and  CG2_41 
REMARK   21  A    between atoms: N_42  and  CN_43 
REMARK   22  A    between atoms: CA_44  and  CB_45 
REMARK   23  A    between atoms: CB_45  and  CG_46 
REMARK   24  A    between atoms: CG_46  and  CD1_47 
REMARK   25  A    between atoms: CG_46  and  CD2_48 
REMARK   26  A    between atoms: CA_52  and  CB_55 
REMARK   27  A    between atoms: CA_57  and  CB_58 
REMARK   28  A    between atoms: N_61  and  CN_62 
REMARK   29  A    between atoms: CA_63  and  CB_64 
REMARK   30  A    between atoms: CB_64  and  CG_65 
REMARK   31  A    between atoms: CG_65  and  CD1_66 
REMARK   32  A    between atoms: CG_65  and  CD2_67 
REMARK   33  A    between atoms: N_70  and  CN_71 
REMARK   34  A    between atoms: CA_72  and  CB_73 
REMARK   35  A    between atoms: CB_73  and  CG_74 
REMARK   36  A    between atoms: CG_74  and  CD1_75 
REMARK   37  A    between atoms: CG_74  and  CD2_76 
REMARK   38  A    between atoms: N_79  and  CN_80 
REMARK   39  A    between atoms: CA_81  and  CB_82 
REMARK   40  A    between atoms: CB_82  and  CG1_83 
REMARK   41  A    between atoms: CB_82  and  CG2_84 
ROOT
ATOM      1  N   DMT d   1       5.122  34.798  19.392  0.00  0.00    -0.339 N 
ATOM      2  CA  DMT d   1       6.389  34.578  18.666  0.00  0.00     0.116 C 
ATOM      3  C   DMT d   1       7.609  35.342  19.221  0.00  0.00     0.243 C 
ATOM      4  O   DMT d   1       7.527  36.160  20.158  0.00  0.00    -0.271 OA
ATOM      5  H4  DMT d   1       6.611  33.506  18.771  0.00  0.00     0.091 H 
ATOM      6  N   ABA d   1       8.805  35.023  18.702  0.00  0.00    -0.346 N 
ATOM      7  CA  ABA d   1      10.029  35.679  19.148  0.00  0.00     0.089 C 
ATOM      8  C   ABA d   1      10.618  36.538  18.018  0.00  0.00     0.242 C 
ATOM      9  O   ABA d   1      11.330  35.975  17.170  0.00  0.00    -0.271 OA
ATOM     10  H20 ABA d   1       8.858  34.319  17.993  0.00  0.00     0.163 HD
ATOM     11  H21 ABA d   1       9.796  36.329  20.005  0.00  0.00     0.087 H 
ATOM     12  N   SAR d   1      10.357  37.856  17.907  0.00  0.00    -0.346 N 
ATOM     13  CA  SAR d   1      10.945  38.629  16.818  0.00  0.00     0.071 C 
ATOM     14  C   SAR d   1       9.899  39.356  15.962  0.00  0.00     0.238 C 
ATOM     15  O   SAR d   1       9.889  40.598  15.995  0.00  0.00    -0.272 OA
ATOM     16  H27 SAR d   1      11.513  37.945  16.170  0.00  0.00     0.079 H 
ATOM     17  H28 SAR d   1      11.627  39.377  17.248  0.00  0.00     0.079 H 
ATOM     18  N   MLE d   1       9.048  38.699  15.147  0.00  0.00    -0.342 N 
ATOM     19  CA  MLE d   1       7.943  39.365  14.440  0.00  0.00     0.091 C 
ATOM     20  C   MLE d   1       6.635  39.045  15.183  0.00  0.00     0.241 C 
ATOM     21  O   MLE d   1       6.035  37.985  14.938  0.00  0.00    -0.271 OA
ATOM     22  N   MLE d   1       2.736  38.717  15.950  0.00  0.00    -0.341 N 
ATOM     23  CA  MLE d   1       1.556  38.935  15.119  0.00  0.00     0.091 C 
ATOM     24  C   MLE d   1       0.335  39.424  15.888  0.00  0.00     0.241 C 
ATOM     25  O   MLE d   1       0.220  39.286  17.116  0.00  0.00    -0.271 OA
ATOM     26  N   MLE d   1      -3.811  36.547  19.170  0.00  0.00    -0.341 N 
ATOM     27  CA  MLE d   1      -3.191  36.103  20.409  0.00  0.00     0.091 C 
ATOM     28  C   MLE d   1      -2.102  35.071  20.139  0.00  0.00     0.243 C 
ATOM     29  O   MLE d   1      -2.291  33.866  20.405  0.00  0.00    -0.271 OA
ATOM     30  N   MLE d   1      -0.961  35.493  19.569  0.00  0.00    -0.341 N 
ATOM     31  CA  MLE d   1       0.048  34.483  19.272  0.00  0.00     0.091 C 
ATOM     32  C   MLE d   1       1.284  34.600  20.157  0.00  0.00     0.243 C 
ATOM     33  O   MLE d   1       1.408  35.592  20.889  0.00  0.00    -0.271 OA
ATOM     34  H35 MLE d   1       8.118  40.451  14.434  0.00  0.00     0.087 H 
ATOM     35  H57 MLE d   1       1.809  39.707  14.377  0.00  0.00     0.087 H 
ATOM     36  H80 MLE d   1      -2.727  36.968  20.905  0.00  0.00     0.087 H 
ATOM     37  H93 MLE d   1      -0.392  33.490  19.447  0.00  0.00     0.087 H 
ATOM     38  N   VAL d   1       6.125  39.857  16.114  0.00  0.00    -0.346 N 
ATOM     39  CA  VAL d   1       4.911  39.464  16.852  0.00  0.00     0.092 C 
ATOM     40  C   VAL d   1       3.646  39.706  16.023  0.00  0.00     0.243 C 
ATOM     41  O   VAL d   1       3.489  40.771  15.402  0.00  0.00    -0.271 OA
ATOM     42  H45 VAL d   1       6.567  40.732  16.310  0.00  0.00     0.163 HD
ATOM     43  H46 VAL d   1       4.985  38.386  17.059  0.00  0.00     0.088 H 
ATOM     44  N   ALA d   1      -0.574  40.090  15.186  0.00  0.00    -0.346 N 
ATOM     45  CA  ALA d   1      -1.825  40.508  15.791  0.00  0.00     0.086 C 
ATOM     46  C   ALA d   1      -2.668  39.318  16.269  0.00  0.00     0.240 C 
ATOM     47  O   ALA d   1      -2.537  38.182  15.789  0.00  0.00    -0.271 OA
ATOM     48  H67 ALA d   1      -0.394  40.307  14.226  0.00  0.00     0.163 HD
ATOM     49  H68 ALA d   1      -1.596  41.148  16.656  0.00  0.00     0.086 H 
ATOM     50  N   DAL d   1      -3.569  39.559  17.218  0.00  0.00    -0.346 N 
ATOM     51  CA  DAL d   1      -4.446  38.505  17.719  0.00  0.00     0.086 C 
ATOM     52  C   DAL d   1      -3.800  37.873  18.937  0.00  0.00     0.242 C 
ATOM     53  O   DAL d   1      -3.271  38.638  19.755  0.00  0.00    -0.271 OA
ATOM     54  H72 DAL d   1      -3.647  40.481  17.596  0.00  0.00     0.163 HD
ATOM     55  H73 DAL d   1      -4.591  37.748  16.934  0.00  0.00     0.086 H 
ATOM     56  N   MVA d   1       2.219  33.634  20.218  0.00  0.00    -0.341 N 
ATOM     57  CA  MVA d   1       3.408  33.920  21.025  0.00  0.00     0.094 C 
ATOM     58  C   MVA d   1       4.706  33.802  20.195  0.00  0.00     0.243 C 
ATOM     59  O   MVA d   1       5.357  32.732  20.198  0.00  0.00    -0.271 OA
ATOM     60 6H10 MVA d   1       3.342  34.956  21.390  0.00  0.00     0.088 H 
ENDROOT
BRANCH   2  61
ATOM     61  CB  DMT d   1       6.283  34.892  17.076  0.00  0.00     0.070 C 
ATOM     62  H5  DMT d   1       7.279  34.737  16.636  0.00  0.00     0.088 H 
BRANCH  61  63
ATOM     63  CG2 DMT d   1       5.297  33.965  16.269  0.00  0.00    -0.016 C 
BRANCH  63  64
ATOM     64  CD1 DMT d   1       5.384  34.351  14.765  0.00  0.00    -0.041 C 
ATOM     65  H6  DMT d   1       5.240  35.439  14.694  0.00  0.00     0.040 H 
ATOM     66  H7  DMT d   1       4.563  33.837  14.243  0.00  0.00     0.040 H 
BRANCH  64  67
ATOM     67  CE  DMT d   1       6.680  34.010  14.031  0.00  0.00    -0.106 C 
ATOM     68  CZ  DMT d   1       7.480  34.828  13.357  0.00  0.00    -0.110 C 
ATOM     69  H15 DMT d   1       7.237  35.887  13.280  0.00  0.00     0.075 H 
ATOM     70  H14 DMT d   1       6.986  32.965  14.065  0.00  0.00     0.076 H 
BRANCH  68  71
ATOM     71  CH  DMT d   1       8.753  34.279  12.683  0.00  0.00    -0.060 C 
ATOM     72  H16 DMT d   1       9.283  35.099  12.177  0.00  0.00     0.032 H 
ATOM     73  H17 DMT d   1       8.476  33.511  11.945  0.00  0.00     0.032 H 
ATOM     74  H18 DMT d   1       9.409  33.834  13.446  0.00  0.00     0.032 H 
ENDBRANCH  68  71
ENDBRANCH  64  67
ENDBRANCH  63  64
BRANCH  63  75
ATOM     75  CD2 DMT d   1       5.584  32.463  16.479  0.00  0.00    -0.067 C 
ATOM     76  H8  DMT d   1       5.515  32.223  17.550  0.00  0.00     0.028 H 
ATOM     77  H9  DMT d   1       6.595  32.228  16.115  0.00  0.00     0.028 H 
ATOM     78  H10 DMT d   1       4.846  31.867  15.921  0.00  0.00     0.028 H 
ENDBRANCH  63  75
BRANCH  63  79
ATOM     79  CD3 DMT d   1       3.797  34.085  16.577  0.00  0.00    -0.067 C 
ATOM     80  H11 DMT d   1       3.481  35.132  16.456  0.00  0.00     0.028 H 
ATOM     81  H12 DMT d   1       3.608  33.762  17.611  0.00  0.00     0.028 H 
ATOM     82  H13 DMT d   1       3.228  33.448  15.884  0.00  0.00     0.028 H 
ENDBRANCH  63  79
ENDBRANCH  61  63
BRANCH  61  83
ATOM     83  OG1 DMT d   1       5.969  36.278  16.983  0.00  0.00    -0.392 OA
ATOM     84  H19 DMT d   1       6.005  36.549  16.073  0.00  0.00     0.210 HD
ENDBRANCH  61  83
ENDBRANCH   2  61
BRANCH   1  85
ATOM     85  CN  DMT d   1       4.567  36.174  19.597  0.00  0.00    -0.015 C 
ATOM     86  H1  DMT d   1       5.010  36.861  18.861  0.00  0.00     0.056 H 
ATOM     87  H2  DMT d   1       4.808  36.519  20.613  0.00  0.00     0.056 H 
ATOM     88  H3  DMT d   1       3.475  36.152  19.467  0.00  0.00     0.056 H 
ENDBRANCH   1  85
BRANCH  57  89
ATOM     89  CB  MVA d   1       3.385  32.963  22.260  0.00  0.00    -0.033 C 
ATOM     90 7H10 MVA d   1       3.517  31.925  21.921  0.00  0.00     0.042 H 
BRANCH  89  91
ATOM     91  CG1 MVA d   1       4.519  33.371  23.196  0.00  0.00    -0.071 C 
ATOM     92 8H10 MVA d   1       4.524  32.711  24.076  0.00  0.00     0.028 H 
ATOM     93 9H10 MVA d   1       4.371  34.412  23.520  0.00  0.00     0.028 H 
ATOM     94 0H11 MVA d   1       5.480  33.285  22.667  0.00  0.00     0.028 H 
ENDBRANCH  89  91
BRANCH  89  95
ATOM     95  CG2 MVA d   1       2.077  33.083  23.077  0.00  0.00    -0.071 C 
ATOM     96 1H11 MVA d   1       1.223  32.798  22.445  0.00  0.00     0.028 H 
ATOM     97 2H11 MVA d   1       1.951  34.121  23.418  0.00  0.00     0.028 H 
ATOM     98 3H11 MVA d   1       2.127  32.414  23.949  0.00  0.00     0.028 H 
ENDBRANCH  89  95
ENDBRANCH  57  89
BRANCH   7  99
ATOM     99  CB  ABA d   1      11.048  34.613  19.588  0.00  0.00    -0.041 C 
ATOM    100  H22 ABA d   1      11.925  35.115  20.023  0.00  0.00     0.036 H 
ATOM    101  H23 ABA d   1      11.358  34.031  18.708  0.00  0.00     0.036 H 
BRANCH  99 102
ATOM    102  CG  ABA d   1      10.452  33.659  20.632  0.00  0.00    -0.074 C 
ATOM    103  H24 ABA d   1      11.207  32.914  20.921  0.00  0.00     0.027 H 
ATOM    104  H25 ABA d   1       9.577  33.147  20.204  0.00  0.00     0.027 H 
ATOM    105  H26 ABA d   1      10.144  34.232  21.519  0.00  0.00     0.027 H 
ENDBRANCH  99 102
ENDBRANCH   7  99
BRANCH  56 106
ATOM    106  CN  MVA d   1       2.062  32.318  19.526  0.00  0.00    -0.015 C 
ATOM    107 3H10 MVA d   1       1.109  32.304  18.977  0.00  0.00     0.056 H 
ATOM    108 4H10 MVA d   1       2.068  31.509  20.271  0.00  0.00     0.056 H 
ATOM    109 5H10 MVA d   1       2.893  32.173  18.820  0.00  0.00     0.056 H 
ENDBRANCH  56 106
BRANCH  12 110
ATOM    110  CN  SAR d   1       9.314  38.521  18.738  0.00  0.00    -0.015 C 
ATOM    111  H29 SAR d   1       8.964  37.824  19.514  0.00  0.00     0.056 H 
ATOM    112  H30 SAR d   1       8.468  38.813  18.099  0.00  0.00     0.056 H 
ATOM    113  H31 SAR d   1       9.740  39.416  19.214  0.00  0.00     0.056 H 
ENDBRANCH  12 110
BRANCH  31 114
ATOM    114  CB  MLE d   1       0.393  34.609  17.787  0.00  0.00    -0.035 C 
ATOM    115  H94 MLE d   1       1.190  33.881  17.574  0.00  0.00     0.037 H 
ATOM    116  H95 MLE d   1       0.775  35.628  17.626  0.00  0.00     0.037 H 
BRANCH 114 117
ATOM    117  CG  MLE d   1      -0.729  34.373  16.756  0.00  0.00    -0.059 C 
ATOM    118  H96 MLE d   1      -1.466  35.186  16.832  0.00  0.00     0.038 H 
BRANCH 117 119
ATOM    119  CD1 MLE d   1      -0.115  34.371  15.369  0.00  0.00    -0.073 C 
ATOM    120  H97 MLE d   1      -0.903  34.204  14.620  0.00  0.00     0.028 H 
ATOM    121  H98 MLE d   1       0.633  33.568  15.300  0.00  0.00     0.028 H 
ATOM    122  H99 MLE d   1       0.370  35.340  15.181  0.00  0.00     0.028 H 
ENDBRANCH 117 119
BRANCH 117 123
ATOM    123  CD2 MLE d   1      -1.434  33.036  16.998  0.00  0.00    -0.073 C 
ATOM    124 0H10 MLE d   1      -1.881  33.034  18.003  0.00  0.00     0.028 H 
ATOM    125 1H10 MLE d   1      -0.704  32.217  16.919  0.00  0.00     0.028 H 
ATOM    126 2H10 MLE d   1      -2.224  32.897  16.245  0.00  0.00     0.028 H 
ENDBRANCH 117 123
ENDBRANCH 114 117
ENDBRANCH  31 114
BRANCH  30 127
ATOM    127  CN  MLE d   1      -0.626  36.931  19.254  0.00  0.00    -0.015 C 
ATOM    128  H90 MLE d   1      -1.475  37.574  19.529  0.00  0.00     0.056 H 
ATOM    129  H91 MLE d   1      -0.423  37.033  18.178  0.00  0.00     0.056 H 
ATOM    130  H92 MLE d   1       0.264  37.234  19.826  0.00  0.00     0.056 H 
ENDBRANCH  30 127
BRANCH  18 131
ATOM    131  CN  MLE d   1       9.284  37.243  14.950  0.00  0.00    -0.015 C 
ATOM    132  H32 MLE d   1      10.146  36.926  15.555  0.00  0.00     0.056 H 
ATOM    133  H33 MLE d   1       9.489  37.045  13.888  0.00  0.00     0.056 H 
ATOM    134  H34 MLE d   1       8.391  36.681  15.262  0.00  0.00     0.056 H 
ENDBRANCH  18 131
BRANCH  27 135
ATOM    135  CB  MLE d   1      -4.284  35.550  21.313  0.00  0.00    -0.035 C 
ATOM    136  H81 MLE d   1      -3.802  35.245  22.253  0.00  0.00     0.037 H 
ATOM    137  H82 MLE d   1      -4.702  34.665  20.811  0.00  0.00     0.037 H 
BRANCH 135 138
ATOM    138  CG  MLE d   1      -5.451  36.445  21.681  0.00  0.00    -0.059 C 
ATOM    139  H83 MLE d   1      -5.883  36.864  20.760  0.00  0.00     0.038 H 
BRANCH 138 140
ATOM    140  CD1 MLE d   1      -6.503  35.611  22.359  0.00  0.00    -0.073 C 
ATOM    141  H84 MLE d   1      -7.357  36.249  22.632  0.00  0.00     0.028 H 
ATOM    142  H85 MLE d   1      -6.081  35.155  23.267  0.00  0.00     0.028 H 
ATOM    143  H86 MLE d   1      -6.841  34.819  21.674  0.00  0.00     0.028 H 
ENDBRANCH 138 140
BRANCH 138 144
ATOM    144  CD2 MLE d   1      -4.963  37.599  22.539  0.00  0.00    -0.073 C 
ATOM    145  H87 MLE d   1      -4.199  38.167  21.989  0.00  0.00     0.028 H 
ATOM    146  H88 MLE d   1      -4.528  37.206  23.470  0.00  0.00     0.028 H 
ATOM    147  H89 MLE d   1      -5.809  38.260  22.780  0.00  0.00     0.028 H 
ENDBRANCH 138 144
ENDBRANCH 135 138
ENDBRANCH  27 135
BRANCH  19 148
ATOM    148  CB  MLE d   1       7.797  38.862  12.982  0.00  0.00    -0.035 C 
ATOM    149  H36 MLE d   1       6.719  38.715  12.817  0.00  0.00     0.037 H 
ATOM    150  H37 MLE d   1       8.310  37.889  12.943  0.00  0.00     0.037 H 
BRANCH 148 151
ATOM    151  CG  MLE d   1       8.305  39.657  11.780  0.00  0.00    -0.059 C 
ATOM    152  H38 MLE d   1       8.032  39.129  10.855  0.00  0.00     0.038 H 
BRANCH 151 153
ATOM    153  CD1 MLE d   1       7.676  41.064  11.762  0.00  0.00    -0.073 C 
ATOM    154  H39 MLE d   1       8.052  41.622  10.892  0.00  0.00     0.028 H 
ATOM    155  H40 MLE d   1       7.946  41.598  12.685  0.00  0.00     0.028 H 
ATOM    156  H41 MLE d   1       6.582  40.976  11.696  0.00  0.00     0.028 H 
ENDBRANCH 151 153
BRANCH 151 157
ATOM    157  CD2 MLE d   1       9.819  39.775  11.865  0.00  0.00    -0.073 C 
ATOM    158  H42 MLE d   1      10.265  38.770  11.878  0.00  0.00     0.028 H 
ATOM    159  H43 MLE d   1      10.094  40.310  12.786  0.00  0.00     0.028 H 
ATOM    160  H44 MLE d   1      10.193  40.331  10.993  0.00  0.00     0.028 H 
ENDBRANCH 151 157
ENDBRANCH 148 151
ENDBRANCH  19 148
BRANCH  26 161
ATOM    161  CN  MLE d   1      -4.398  35.512  18.258  0.00  0.00    -0.015 C 
ATOM    162  H77 MLE d   1      -4.825  36.004  17.372  0.00  0.00     0.056 H 
ATOM    163  H78 MLE d   1      -5.189  34.962  18.789  0.00  0.00     0.056 H 
ATOM    164  H79 MLE d   1      -3.611  34.811  17.945  0.00  0.00     0.056 H 
ENDBRANCH  26 161
BRANCH  51 165
ATOM    165  CB  DAL d   1      -5.812  39.073  18.145  0.00  0.00    -0.049 C 
ATOM    166  H74 DAL d   1      -6.449  38.257  18.517  0.00  0.00     0.030 H 
ATOM    167  H75 DAL d   1      -6.296  39.551  17.281  0.00  0.00     0.030 H 
ATOM    168  H76 DAL d   1      -5.667  39.817  18.942  0.00  0.00     0.030 H 
ENDBRANCH  51 165
BRANCH  39 169
ATOM    169  CB  VAL d   1       4.772  40.217  18.231  0.00  0.00    -0.033 C 
ATOM    170  H47 VAL d   1       3.829  39.913  18.710  0.00  0.00     0.042 H 
BRANCH 169 171
ATOM    171  CG1 VAL d   1       5.945  39.797  19.086  0.00  0.00    -0.071 C 
ATOM    172  H48 VAL d   1       5.887  40.301  20.062  0.00  0.00     0.028 H 
ATOM    173  H49 VAL d   1       6.883  40.076  18.584  0.00  0.00     0.028 H 
ATOM    174  H50 VAL d   1       5.919  38.707  19.235  0.00  0.00     0.028 H 
ENDBRANCH 169 171
BRANCH 169 175
ATOM    175  CG2 VAL d   1       4.787  41.732  18.104  0.00  0.00    -0.071 C 
ATOM    176  H51 VAL d   1       3.938  42.056  17.484  0.00  0.00     0.028 H 
ATOM    177  H52 VAL d   1       5.729  42.051  17.633  0.00  0.00     0.028 H 
ATOM    178  H53 VAL d   1       4.705  42.185  19.103  0.00  0.00     0.028 H 
ENDBRANCH 169 175
ENDBRANCH  39 169
BRANCH  22 179
ATOM    179  CN  MLE d   1       2.783  37.477  16.804  0.00  0.00    -0.015 C 
ATOM    180  H54 MLE d   1       3.728  37.455  17.367  0.00  0.00     0.056 H 
ATOM    181  H55 MLE d   1       2.719  36.587  16.161  0.00  0.00     0.056 H 
ATOM    182  H56 MLE d   1       1.937  37.484  17.507  0.00  0.00     0.056 H 
ENDBRANCH  22 179
BRANCH  45 183
ATOM    183  CB  ALA d   1      -2.646  41.304  14.780  0.00  0.00    -0.049 C 
ATOM    184  H69 ALA d   1      -3.593  41.618  15.243  0.00  0.00     0.030 H 
ATOM    185  H70 ALA d   1      -2.858  40.675  13.903  0.00  0.00     0.030 H 
ATOM    186  H71 ALA d   1      -2.079  42.193  14.465  0.00  0.00     0.030 H 
ENDBRANCH  45 183
BRANCH  23 187
ATOM    187  CB  MLE d   1       1.223  37.636  14.373  0.00  0.00    -0.035 C 
ATOM    188  H58 MLE d   1       0.156  37.691  14.113  0.00  0.00     0.037 H 
ATOM    189  H59 MLE d   1       1.384  36.816  15.088  0.00  0.00     0.037 H 
BRANCH 187 190
ATOM    190  CG  MLE d   1       1.963  37.246  13.091  0.00  0.00    -0.059 C 
ATOM    191  H60 MLE d   1       1.795  36.178  12.890  0.00  0.00     0.038 H 
BRANCH 190 192
ATOM    192  CD1 MLE d   1       1.336  38.084  12.000  0.00  0.00    -0.073 C 
ATOM    193  H61 MLE d   1       1.821  37.857  11.039  0.00  0.00     0.028 H 
ATOM    194  H62 MLE d   1       1.469  39.150  12.235  0.00  0.00     0.028 H 
ATOM    195  H63 MLE d   1       0.262  37.854  11.932  0.00  0.00     0.028 H 
ENDBRANCH 190 192
BRANCH 190 196
ATOM    196  CD2 MLE d   1       3.476  37.495  13.129  0.00  0.00    -0.073 C 
ATOM    197  H64 MLE d   1       3.928  36.884  13.924  0.00  0.00     0.028 H 
ATOM    198  H65 MLE d   1       3.667  38.559  13.331  0.00  0.00     0.028 H 
ATOM    199  H66 MLE d   1       3.917  37.221  12.159  0.00  0.00     0.028 H 
ENDBRANCH 190 196
ENDBRANCH 187 190
ENDBRANCH  23 187
TORSDOF 41
