REMARK WARNING: 32 MAX_TORS EXCEEDED!!!
REMARK  41 active torsions:
REMARK  status: ('A' for Active; 'I' for Inactive)
REMARK    1  A    between atoms: N_1  and  CN_2 
REMARK    2  A    between atoms: CA_3  and  CB_6 
REMARK    3  A    between atoms: CB_6  and  OG1_7 
REMARK    4  A    between atoms: CB_6  and  CG2_8 
REMARK    5  A    between atoms: CG2_8  and  CD1_9 
REMARK    6  A    between atoms: CG2_8  and  CD2_10 
REMARK    7  A    between atoms: CD2_10  and  CE_11 
REMARK    8  A    between atoms: CZ_12  and  CH_13 
REMARK    9  A    between atoms: CA_15  and  CB_18 
REMARK   10  A    between atoms: CB_18  and  CG_19 
REMARK   11  A    between atoms: N_20  and  CN_24 
REMARK   12  A    between atoms: N_25  and  CM1_33 
REMARK   13  A    between atoms: CA_26  and  CB_29 
REMARK   14  A    between atoms: CB_29  and  CG_30 
REMARK   15  A    between atoms: CG_30  and  CD_31 
REMARK   16  A    between atoms: CG_30  and  CM4_34 
REMARK   17  A    between atoms: CD_31  and  CE_32 
REMARK   18  A    between atoms: CA_36  and  CB_39 
REMARK   19  A    between atoms: CB_39  and  CG1_40 
REMARK   20  A    between atoms: CB_39  and  CG2_41 
REMARK   21  A    between atoms: N_42  and  CN_43 
REMARK   22  A    between atoms: CA_44  and  CB_45 
REMARK   23  A    between atoms: CB_45  and  CG_46 
REMARK   24  A    between atoms: CG_46  and  CD1_47 
REMARK   25  A    between atoms: CG_46  and  CD2_48 
REMARK   26  A    between atoms: CA_52  and  CB_55 
REMARK   27  A    between atoms: CA_57  and  CB_58 
REMARK   28  A    between atoms: N_61  and  CN_62 
REMARK   29  A    between atoms: CA_63  and  CB_64 
REMARK   30  A    between atoms: CB_64  and  CG_65 
REMARK   31  A    between atoms: CG_65  and  CD1_66 
REMARK   32  A    between atoms: CG_65  and  CD2_67 
REMARK   33  A    between atoms: N_70  and  CN_71 
REMARK   34  A    between atoms: CA_72  and  CB_73 
REMARK   35  A    between atoms: CB_73  and  CG_74 
REMARK   36  A    between atoms: CG_74  and  CD1_75 
REMARK   37  A    between atoms: CG_74  and  CD2_76 
REMARK   38  A    between atoms: N_79  and  CN_80 
REMARK   39  A    between atoms: CA_81  and  CB_82 
REMARK   40  A    between atoms: CB_82  and  CG1_83 
REMARK   41  A    between atoms: CB_82  and  CG2_84 
ROOT
ATOM      1  N   BMT d   1       5.267  34.704  19.681  0.00  0.00    -0.339 N 
ATOM      2  CA  BMT d   1       6.496  34.585  18.885  0.00  0.00     0.116 C 
ATOM      3  C   BMT d   1       7.715  35.353  19.426  0.00  0.00     0.243 C 
ATOM      4  O   BMT d   1       7.627  36.113  20.385  0.00  0.00    -0.271 OA
ATOM      5  H4  BMT d   1       6.767  33.520  18.929  0.00  0.00     0.091 H 
ATOM      6  N   ABA d   1       8.872  35.101  18.829  0.00  0.00    -0.346 N 
ATOM      7  CA  ABA d   1      10.112  35.739  19.276  0.00  0.00     0.089 C 
ATOM      8  C   ABA d   1      10.743  36.533  18.128  0.00  0.00     0.242 C 
ATOM      9  O   ABA d   1      11.507  35.962  17.351  0.00  0.00    -0.271 OA
ATOM     10  H18 ABA d   1       8.898  34.463  18.059  0.00  0.00     0.163 HD
ATOM     11  H19 ABA d   1       9.891  36.419  20.112  0.00  0.00     0.087 H 
ATOM     12  N   SAR d   1      10.475  37.838  18.044  0.00  0.00    -0.346 N 
ATOM     13  CA  SAR d   1      11.040  38.620  16.957  0.00  0.00     0.071 C 
ATOM     14  C   SAR d   1       9.979  39.411  16.220  0.00  0.00     0.238 C 
ATOM     15  O   SAR d   1      10.076  40.636  16.170  0.00  0.00    -0.272 OA
ATOM     16  H25 SAR d   1      11.533  37.939  16.248  0.00  0.00     0.079 H 
ATOM     17  H26 SAR d   1      11.782  39.319  17.370  0.00  0.00     0.079 H 
ATOM     18  N   MNL d   1       9.154  38.728  15.424  0.00  0.00    -0.342 N 
ATOM     19  CA  MNL d   1       8.078  39.408  14.709  0.00  0.00     0.091 C 
ATOM     20  C   MNL d   1       6.732  39.043  15.347  0.00  0.00     0.241 C 
ATOM     21  O   MNL d   1       6.176  37.982  15.063  0.00  0.00    -0.271 OA
ATOM     22  H30 MNL d   1       8.229  40.495  14.786  0.00  0.00     0.087 H 
ATOM     23  N   VAL d   1       6.295  39.833  16.324  0.00  0.00    -0.346 N 
ATOM     24  CA  VAL d   1       5.028  39.544  17.001  0.00  0.00     0.092 C 
ATOM     25  C   VAL d   1       3.867  39.784  16.050  0.00  0.00     0.243 C 
ATOM     26  O   VAL d   1       3.799  40.835  15.423  0.00  0.00    -0.271 OA
ATOM     27  H45 VAL d   1       6.835  40.629  16.598  0.00  0.00     0.163 HD
ATOM     28  H46 VAL d   1       5.029  38.486  17.303  0.00  0.00     0.088 H 
ATOM     29  N   MLE d   1       3.002  38.793  15.861  0.00  0.00    -0.341 N 
ATOM     30  CA  MLE d   1       1.905  39.009  14.928  0.00  0.00     0.091 C 
ATOM     31  C   MLE d   1       0.573  39.296  15.600  0.00  0.00     0.241 C 
ATOM     32  O   MLE d   1       0.521  39.605  16.800  0.00  0.00    -0.271 OA
ATOM     33  N   MLE d   1      -3.520  36.319  18.948  0.00  0.00    -0.341 N 
ATOM     34  CA  MLE d   1      -2.935  35.898  20.213  0.00  0.00     0.091 C 
ATOM     35  C   MLE d   1      -1.833  34.870  20.010  0.00  0.00     0.243 C 
ATOM     36  O   MLE d   1      -2.009  33.689  20.315  0.00  0.00    -0.271 OA
ATOM     37  N   MLE d   1      -0.684  35.308  19.518  0.00  0.00    -0.341 N 
ATOM     38  CA  MLE d   1       0.394  34.352  19.311  0.00  0.00     0.091 C 
ATOM     39  C   MLE d   1       1.546  34.621  20.261  0.00  0.00     0.243 C 
ATOM     40  O   MLE d   1       1.475  35.571  21.053  0.00  0.00    -0.271 OA
ATOM     41  H57 MLE d   1       2.164  39.903  14.341  0.00  0.00     0.087 H 
ATOM     42  H80 MLE d   1      -2.494  36.782  20.696  0.00  0.00     0.087 H 
ATOM     43  H93 MLE d   1       0.005  33.344  19.520  0.00  0.00     0.087 H 
ATOM     44  N   ALA d   1      -0.350  39.681  14.733  0.00  0.00    -0.346 N 
ATOM     45  CA  ALA d   1      -1.709  39.979  15.142  0.00  0.00     0.086 C 
ATOM     46  C   ALA d   1      -2.332  38.738  15.795  0.00  0.00     0.240 C 
ATOM     47  O   ALA d   1      -2.102  37.602  15.340  0.00  0.00    -0.271 OA
ATOM     48  H67 ALA d   1      -0.103  39.769  13.768  0.00  0.00     0.163 HD
ATOM     49  H68 ALA d   1      -1.701  40.808  15.865  0.00  0.00     0.086 H 
ATOM     50  N   DAL d   1      -3.368  38.998  16.587  0.00  0.00    -0.346 N 
ATOM     51  CA  DAL d   1      -4.110  37.938  17.259  0.00  0.00     0.086 C 
ATOM     52  C   DAL d   1      -3.454  37.599  18.579  0.00  0.00     0.242 C 
ATOM     53  O   DAL d   1      -3.106  38.512  19.341  0.00  0.00    -0.271 OA
ATOM     54  H72 DAL d   1      -3.646  39.948  16.726  0.00  0.00     0.163 HD
ATOM     55  H73 DAL d   1      -4.108  37.042  16.620  0.00  0.00     0.086 H 
ATOM     56  N   MVA d   1       2.436  33.637  20.412  0.00  0.00    -0.341 N 
ATOM     57  CA  MVA d   1       3.599  33.861  21.276  0.00  0.00     0.094 C 
ATOM     58  C   MVA d   1       4.906  33.698  20.483  0.00  0.00     0.243 C 
ATOM     59  O   MVA d   1       5.508  32.618  20.489  0.00  0.00    -0.271 OA
ATOM     60 6H10 MVA d   1       3.554  34.903  21.625  0.00  0.00     0.088 H 
ENDROOT
BRANCH   2  61
ATOM     61  CB  BMT d   1       6.286  34.924  17.371  0.00  0.00     0.067 C 
ATOM     62  H5  BMT d   1       7.196  34.626  16.829  0.00  0.00     0.087 H 
BRANCH  61  63
ATOM     63  OG1 BMT d   1       6.107  36.337  17.224  0.00  0.00    -0.393 OA
ATOM     64  H6  BMT d   1       5.979  36.545  16.306  0.00  0.00     0.210 HD
ENDBRANCH  61  63
BRANCH  61  65
ATOM     65  CG2 BMT d   1       5.093  34.184  16.732  0.00  0.00    -0.027 C 
ATOM     66  H7  BMT d   1       4.167  34.546  17.201  0.00  0.00     0.043 H 
BRANCH  65  67
ATOM     67  CD1 BMT d   1       5.190  32.652  16.966  0.00  0.00    -0.070 C 
ATOM     68  H8  BMT d   1       4.327  32.154  16.499  0.00  0.00     0.028 H 
ATOM     69  H9  BMT d   1       5.192  32.446  18.046  0.00  0.00     0.028 H 
ATOM     70  H10 BMT d   1       6.119  32.271  16.518  0.00  0.00     0.028 H 
ENDBRANCH  65  67
BRANCH  65  71
ATOM     71  CD2 BMT d   1       5.036  34.500  15.223  0.00  0.00    -0.045 C 
ATOM     72  H11 BMT d   1       4.977  35.594  15.123  0.00  0.00     0.039 H 
ATOM     73  H12 BMT d   1       4.114  34.046  14.831  0.00  0.00     0.039 H 
BRANCH  71  74
ATOM     74  CE  BMT d   1       6.182  34.029  14.333  0.00  0.00    -0.106 C 
ATOM     75  CZ  BMT d   1       6.928  34.859  13.608  0.00  0.00    -0.110 C 
ATOM     76  H14 BMT d   1       6.737  35.930  13.657  0.00  0.00     0.075 H 
ATOM     77  H13 BMT d   1       6.400  32.963  14.289  0.00  0.00     0.076 H 
BRANCH  75  78
ATOM     78  CH  BMT d   1       8.028  34.347  12.723  0.00  0.00    -0.060 C 
ATOM     79  H15 BMT d   1       8.515  35.193  12.217  0.00  0.00     0.032 H 
ATOM     80  H16 BMT d   1       7.606  33.664  11.971  0.00  0.00     0.032 H 
ATOM     81  H17 BMT d   1       8.768  33.809  13.333  0.00  0.00     0.032 H 
ENDBRANCH  75  78
ENDBRANCH  71  74
ENDBRANCH  65  71
ENDBRANCH  61  65
ENDBRANCH   2  61
BRANCH   1  82
ATOM     82  CN  BMT d   1       4.723  36.108  19.819  0.00  0.00    -0.015 C 
ATOM     83  H1  BMT d   1       5.170  36.752  19.047  0.00  0.00     0.056 H 
ATOM     84  H2  BMT d   1       4.973  36.502  20.815  0.00  0.00     0.056 H 
ATOM     85  H3  BMT d   1       3.630  36.092  19.695  0.00  0.00     0.056 H 
ENDBRANCH   1  82
BRANCH  57  86
ATOM     86  CB  MVA d   1       3.570  32.948  22.542  0.00  0.00    -0.033 C 
ATOM     87 7H10 MVA d   1       3.787  31.913  22.241  0.00  0.00     0.042 H 
BRANCH  86  88
ATOM     88  CG1 MVA d   1       4.627  33.413  23.541  0.00  0.00    -0.071 C 
ATOM     89 8H10 MVA d   1       4.601  32.766  24.430  0.00  0.00     0.028 H 
ATOM     90 9H10 MVA d   1       4.420  34.452  23.837  0.00  0.00     0.028 H 
ATOM     91 0H11 MVA d   1       5.622  33.356  23.075  0.00  0.00     0.028 H 
ENDBRANCH  86  88
BRANCH  86  92
ATOM     92  CG2 MVA d   1       2.160  32.999  23.226  0.00  0.00    -0.071 C 
ATOM     93 1H11 MVA d   1       1.393  32.665  22.511  0.00  0.00     0.028 H 
ATOM     94 2H11 MVA d   1       1.943  34.030  23.542  0.00  0.00     0.028 H 
ATOM     95 3H11 MVA d   1       2.155  32.338  24.105  0.00  0.00     0.028 H 
ENDBRANCH  86  92
ENDBRANCH  57  86
BRANCH   7  96
ATOM     96  CB  ABA d   1      11.098  34.657  19.740  0.00  0.00    -0.041 C 
ATOM     97  H20 ABA d   1      11.968  35.154  20.194  0.00  0.00     0.036 H 
ATOM     98  H21 ABA d   1      11.421  34.083  18.859  0.00  0.00     0.036 H 
BRANCH  96  99
ATOM     99  CG  ABA d   1      10.518  33.684  20.758  0.00  0.00    -0.074 C 
ATOM    100  H22 ABA d   1      11.284  32.945  21.037  0.00  0.00     0.027 H 
ATOM    101  H23 ABA d   1       9.652  33.167  20.319  0.00  0.00     0.027 H 
ATOM    102  H24 ABA d   1      10.199  34.237  21.654  0.00  0.00     0.027 H 
ENDBRANCH  96  99
ENDBRANCH   7  96
BRANCH  56 103
ATOM    103  CN  MVA d   1       2.343  32.243  19.874  0.00  0.00    -0.015 C 
ATOM    104 3H10 MVA d   1       1.450  32.154  19.239  0.00  0.00     0.056 H 
ATOM    105 4H10 MVA d   1       2.271  31.532  20.710  0.00  0.00     0.056 H 
ATOM    106 5H10 MVA d   1       3.240  32.019  19.278  0.00  0.00     0.056 H 
ENDBRANCH  56 103
BRANCH  12 107
ATOM    107  CN  SAR d   1       9.503  38.633  18.879  0.00  0.00    -0.015 C 
ATOM    108  H27 SAR d   1       9.106  37.997  19.684  0.00  0.00     0.056 H 
ATOM    109  H28 SAR d   1       8.675  38.981  18.245  0.00  0.00     0.056 H 
ATOM    110  H29 SAR d   1      10.019  39.500  19.317  0.00  0.00     0.056 H 
ENDBRANCH  12 107
BRANCH  38 111
ATOM    111  CB  MLE d   1       0.877  34.390  17.849  0.00  0.00    -0.035 C 
ATOM    112  H94 MLE d   1       1.731  33.701  17.771  0.00  0.00     0.037 H 
ATOM    113  H95 MLE d   1       1.215  35.417  17.645  0.00  0.00     0.037 H 
BRANCH 111 114
ATOM    114  CG  MLE d   1      -0.119  34.009  16.735  0.00  0.00    -0.059 C 
ATOM    115  H96 MLE d   1      -0.921  34.761  16.700  0.00  0.00     0.038 H 
BRANCH 114 116
ATOM    116  CD1 MLE d   1       0.645  34.015  15.416  0.00  0.00    -0.073 C 
ATOM    117  H97 MLE d   1      -0.037  33.746  14.596  0.00  0.00     0.028 H 
ATOM    118  H98 MLE d   1       1.466  33.284  15.464  0.00  0.00     0.028 H 
ATOM    119  H99 MLE d   1       1.058  35.019  15.236  0.00  0.00     0.028 H 
ENDBRANCH 114 116
BRANCH 114 120
ATOM    120  CD2 MLE d   1      -0.750  32.639  16.953  0.00  0.00    -0.073 C 
ATOM    121 0H10 MLE d   1      -1.301  32.636  17.905  0.00  0.00     0.028 H 
ATOM    122 1H10 MLE d   1       0.039  31.873  16.984  0.00  0.00     0.028 H 
ATOM    123 2H10 MLE d   1      -1.443  32.419  16.128  0.00  0.00     0.028 H 
ENDBRANCH 114 120
ENDBRANCH 111 114
ENDBRANCH  38 111
BRANCH  37 124
ATOM    124  CN  MLE d   1      -0.346  36.731  19.129  0.00  0.00    -0.015 C 
ATOM    125  H90 MLE d   1      -1.214  37.379  19.319  0.00  0.00     0.056 H 
ATOM    126  H91 MLE d   1      -0.088  36.767  18.060  0.00  0.00     0.056 H 
ATOM    127  H92 MLE d   1       0.510  37.081  19.725  0.00  0.00     0.056 H 
ENDBRANCH  37 124
BRANCH  18 128
ATOM    128  CM1 MNL d   1       9.268  37.268  15.067  0.00  0.00    -0.015 C 
ATOM    129  H39 MNL d   1      10.093  36.815  15.636  0.00  0.00     0.056 H 
ATOM    130  H40 MNL d   1       9.468  37.168  13.990  0.00  0.00     0.056 H 
ATOM    131  H41 MNL d   1       8.327  36.755  15.314  0.00  0.00     0.056 H 
ENDBRANCH  18 128
BRANCH  34 132
ATOM    132  CB  MLE d   1      -4.012  35.333  21.132  0.00  0.00    -0.035 C 
ATOM    133  H81 MLE d   1      -3.521  35.011  22.062  0.00  0.00     0.037 H 
ATOM    134  H82 MLE d   1      -4.454  34.460  20.630  0.00  0.00     0.037 H 
BRANCH 132 135
ATOM    135  CG  MLE d   1      -5.147  36.268  21.511  0.00  0.00    -0.059 C 
ATOM    136  H83 MLE d   1      -5.587  36.689  20.595  0.00  0.00     0.038 H 
BRANCH 135 137
ATOM    137  CD1 MLE d   1      -6.185  35.466  22.229  0.00  0.00    -0.073 C 
ATOM    138  H84 MLE d   1      -7.021  36.121  22.516  0.00  0.00     0.028 H 
ATOM    139  H85 MLE d   1      -5.743  35.019  23.132  0.00  0.00     0.028 H 
ATOM    140  H86 MLE d   1      -6.554  34.668  21.568  0.00  0.00     0.028 H 
ENDBRANCH 135 137
BRANCH 135 141
ATOM    141  CD2 MLE d   1      -4.655  37.408  22.374  0.00  0.00    -0.073 C 
ATOM    142  H87 MLE d   1      -3.894  37.982  21.825  0.00  0.00     0.028 H 
ATOM    143  H88 MLE d   1      -4.214  37.005  23.298  0.00  0.00     0.028 H 
ATOM    144  H89 MLE d   1      -5.499  38.067  22.627  0.00  0.00     0.028 H 
ENDBRANCH 135 141
ENDBRANCH 132 135
ENDBRANCH  34 132
BRANCH  19 145
ATOM    145  CB  MNL d   1       8.082  39.014  13.236  0.00  0.00    -0.035 C 
ATOM    146  H31 MNL d   1       7.047  38.784  12.945  0.00  0.00     0.037 H 
ATOM    147  H32 MNL d   1       8.702  38.112  13.129  0.00  0.00     0.037 H 
BRANCH 145 148
ATOM    148  CG  MNL d   1       8.616  40.066  12.274  0.00  0.00    -0.056 C 
ATOM    149  H33 MNL d   1       9.697  40.199  12.430  0.00  0.00     0.039 H 
BRANCH 148 150
ATOM    150  CD  MNL d   1       8.360  39.532  10.851  0.00  0.00    -0.065 C 
ATOM    151  H34 MNL d   1       7.800  38.589  10.933  0.00  0.00     0.033 H 
ATOM    152  H35 MNL d   1       9.333  39.340  10.375  0.00  0.00     0.033 H 
BRANCH 150 153
ATOM    153  CE  MNL d   1       7.567  40.483   9.952  0.00  0.00    -0.076 C 
ATOM    154  H36 MNL d   1       7.432  40.024   8.962  0.00  0.00     0.027 H 
ATOM    155  H37 MNL d   1       8.116  41.430   9.845  0.00  0.00     0.027 H 
ATOM    156  H38 MNL d   1       6.583  40.679  10.403  0.00  0.00     0.027 H 
ENDBRANCH 150 153
ENDBRANCH 148 150
BRANCH 148 157
ATOM    157  CM4 MNL d   1       7.911  41.415  12.499  0.00  0.00    -0.073 C 
ATOM    158  H42 MNL d   1       8.113  41.768  13.521  0.00  0.00     0.028 H 
ATOM    159  H43 MNL d   1       6.827  41.289  12.362  0.00  0.00     0.028 H 
ATOM    160  H44 MNL d   1       8.289  42.152  11.775  0.00  0.00     0.028 H 
ENDBRANCH 148 157
ENDBRANCH 145 148
ENDBRANCH  19 145
BRANCH  33 161
ATOM    161  CN  MLE d   1      -3.927  35.152  18.064  0.00  0.00    -0.015 C 
ATOM    162  H77 MLE d   1      -4.360  35.535  17.128  0.00  0.00     0.056 H 
ATOM    163  H78 MLE d   1      -4.673  34.537  18.589  0.00  0.00     0.056 H 
ATOM    164  H79 MLE d   1      -3.042  34.539  17.835  0.00  0.00     0.056 H 
ENDBRANCH  33 161
BRANCH  51 165
ATOM    165  CB  DAL d   1      -5.575  38.383  17.494  0.00  0.00    -0.049 C 
ATOM    166  H74 DAL d   1      -6.126  37.577  18.001  0.00  0.00     0.030 H 
ATOM    167  H75 DAL d   1      -6.052  38.601  16.527  0.00  0.00     0.030 H 
ATOM    168  H76 DAL d   1      -5.588  39.287  18.121  0.00  0.00     0.030 H 
ENDBRANCH  51 165
BRANCH  24 169
ATOM    169  CB  VAL d   1       4.845  40.407  18.253  0.00  0.00    -0.033 C 
ATOM    170  H47 VAL d   1       4.841  41.467  17.961  0.00  0.00     0.042 H 
BRANCH 169 171
ATOM    171  CG1 VAL d   1       3.512  40.069  18.920  0.00  0.00    -0.071 C 
ATOM    172  H48 VAL d   1       3.384  40.690  19.819  0.00  0.00     0.028 H 
ATOM    173  H49 VAL d   1       3.503  39.007  19.205  0.00  0.00     0.028 H 
ATOM    174  H50 VAL d   1       2.689  40.267  18.217  0.00  0.00     0.028 H 
ENDBRANCH 169 171
BRANCH 169 175
ATOM    175  CG2 VAL d   1       5.983  40.169  19.214  0.00  0.00    -0.071 C 
ATOM    176  H51 VAL d   1       6.936  40.416  18.723  0.00  0.00     0.028 H 
ATOM    177  H52 VAL d   1       5.991  39.112  19.519  0.00  0.00     0.028 H 
ATOM    178  H53 VAL d   1       5.853  40.806  20.102  0.00  0.00     0.028 H 
ENDBRANCH 169 175
ENDBRANCH  24 169
BRANCH  29 179
ATOM    179  CN  MLE d   1       2.903  37.476  16.583  0.00  0.00    -0.015 C 
ATOM    180  H54 MLE d   1       3.755  37.370  17.270  0.00  0.00     0.056 H 
ATOM    181  H55 MLE d   1       2.918  36.655  15.851  0.00  0.00     0.056 H 
ATOM    182  H56 MLE d   1       1.964  37.441  17.155  0.00  0.00     0.056 H 
ENDBRANCH  29 179
BRANCH  45 183
ATOM    183  CB  ALA d   1      -2.540  40.383  13.904  0.00  0.00    -0.049 C 
ATOM    184  H69 ALA d   1      -3.571  40.609  14.213  0.00  0.00     0.030 H 
ATOM    185  H70 ALA d   1      -2.547  39.554  13.181  0.00  0.00     0.030 H 
ATOM    186  H71 ALA d   1      -2.093  41.273  13.437  0.00  0.00     0.030 H 
ENDBRANCH  45 183
BRANCH  30 187
ATOM    187  CB  MLE d   1       1.764  37.836  13.937  0.00  0.00    -0.035 C 
ATOM    188  H58 MLE d   1       1.017  38.133  13.187  0.00  0.00     0.037 H 
ATOM    189  H59 MLE d   1       1.388  36.974  14.507  0.00  0.00     0.037 H 
BRANCH 187 190
ATOM    190  CG  MLE d   1       3.014  37.364  13.171  0.00  0.00    -0.059 C 
ATOM    191  H60 MLE d   1       3.763  37.043  13.910  0.00  0.00     0.038 H 
BRANCH 190 192
ATOM    192  CD1 MLE d   1       2.668  36.171  12.310  0.00  0.00    -0.073 C 
ATOM    193  H61 MLE d   1       3.565  35.839  11.766  0.00  0.00     0.028 H 
ATOM    194  H62 MLE d   1       1.886  36.453  11.590  0.00  0.00     0.028 H 
ATOM    195  H63 MLE d   1       2.302  35.353  12.947  0.00  0.00     0.028 H 
ENDBRANCH 190 192
BRANCH 190 196
ATOM    196  CD2 MLE d   1       3.633  38.491  12.348  0.00  0.00    -0.073 C 
ATOM    197  H64 MLE d   1       3.870  39.339  13.007  0.00  0.00     0.028 H 
ATOM    198  H65 MLE d   1       2.920  38.816  11.576  0.00  0.00     0.028 H 
ATOM    199  H66 MLE d   1       4.555  38.131  11.868  0.00  0.00     0.028 H 
ENDBRANCH 190 196
ENDBRANCH 187 190
ENDBRANCH  30 187
TORSDOF 41
