REMARK WARNING: 32 MAX_TORS EXCEEDED!!!
REMARK  40 active torsions:
REMARK  status: ('A' for Active; 'I' for Inactive)
REMARK    1  A    between atoms: N_1  and  CN_2 
REMARK    2  A    between atoms: CA_3  and  CB_6 
REMARK    3  A    between atoms: CB_6  and  OG1_7 
REMARK    4  A    between atoms: CB_6  and  CG2_8 
REMARK    5  A    between atoms: CG2_8  and  CD1_9 
REMARK    6  A    between atoms: CG2_8  and  CD2_10 
REMARK    7  A    between atoms: CD2_10  and  CE_11 
REMARK    8  A    between atoms: CZ_12  and  CH_13 
REMARK    9  A    between atoms: CA_15  and  CB_18 
REMARK   10  A    between atoms: CB_18  and  CG_19 
REMARK   11  A    between atoms: N_20  and  CN_24 
REMARK   12  A    between atoms: N_25  and  CN_26 
REMARK   13  A    between atoms: CA_27  and  CB_28 
REMARK   14  A    between atoms: CB_28  and  CG_29 
REMARK   15  A    between atoms: CG_29  and  CD1_30 
REMARK   16  A    between atoms: CG_29  and  CD2_31 
REMARK   17  A    between atoms: CA_35  and  CB_38 
REMARK   18  A    between atoms: CB_38  and  CG1_39 
REMARK   19  A    between atoms: CB_38  and  CG2_40 
REMARK   20  A    between atoms: N_41  and  CN_42 
REMARK   21  A    between atoms: CA_43  and  CB_44 
REMARK   22  A    between atoms: CB_44  and  CG_45 
REMARK   23  A    between atoms: CG_45  and  CD1_46 
REMARK   24  A    between atoms: CG_45  and  CD2_47 
REMARK   25  A    between atoms: CA_51  and  CB_54 
REMARK   26  A    between atoms: CA_56  and  CB_57 
REMARK   27  A    between atoms: N_60  and  CN_61 
REMARK   28  A    between atoms: CA_62  and  CB_63 
REMARK   29  A    between atoms: CB_63  and  CG_64 
REMARK   30  A    between atoms: CG_64  and  CD1_65 
REMARK   31  A    between atoms: CG_64  and  CD2_66 
REMARK   32  A    between atoms: N_69  and  CN_70 
REMARK   33  A    between atoms: CA_71  and  CB_72 
REMARK   34  A    between atoms: CB_72  and  CG_73 
REMARK   35  A    between atoms: CG_73  and  CD1_74 
REMARK   36  A    between atoms: CG_73  and  CD2_75 
REMARK   37  A    between atoms: N_78  and  CN_79 
REMARK   38  A    between atoms: CA_80  and  CB_81 
REMARK   39  A    between atoms: CB_81  and  CG1_82 
REMARK   40  A    between atoms: CB_81  and  CG2_83 
ROOT
ATOM      1  N   BMT d   1      17.781  21.941  36.889  0.00  0.00    -0.339 N 
ATOM      2  CA  BMT d   1      18.334  21.668  35.553  0.00  0.00     0.116 C 
ATOM      3  C   BMT d   1      19.855  21.828  35.403  0.00  0.00     0.243 C 
ATOM      4  O   BMT d   1      20.602  22.252  36.314  0.00  0.00    -0.271 OA
ATOM      5  H4  BMT d   1      18.110  20.613  35.338  0.00  0.00     0.091 H 
ATOM      6  N   ABA d   1      20.365  21.377  34.251  0.00  0.00    -0.346 N 
ATOM      7  CA  ABA d   1      21.804  21.318  34.055  0.00  0.00     0.089 C 
ATOM      8  C   ABA d   1      22.191  22.151  32.841  0.00  0.00     0.242 C 
ATOM      9  O   ABA d   1      22.226  21.635  31.719  0.00  0.00    -0.271 OA
ATOM     10  H18 ABA d   1      19.752  21.078  33.520  0.00  0.00     0.163 HD
ATOM     11  H19 ABA d   1      22.309  21.721  34.946  0.00  0.00     0.087 H 
ATOM     12  N   SAR d   1      22.437  23.455  32.985  0.00  0.00    -0.346 N 
ATOM     13  CA  SAR d   1      22.753  24.231  31.784  0.00  0.00     0.071 C 
ATOM     14  C   SAR d   1      21.889  25.477  31.722  0.00  0.00     0.238 C 
ATOM     15  O   SAR d   1      22.438  26.582  31.824  0.00  0.00    -0.272 OA
ATOM     16  H25 SAR d   1      22.565  23.614  30.893  0.00  0.00     0.079 H 
ATOM     17  H26 SAR d   1      23.813  24.525  31.810  0.00  0.00     0.079 H 
ATOM     18  N   MLE d   1      20.561  25.402  31.563  0.00  0.00    -0.342 N 
ATOM     19  CA  MLE d   1      19.806  26.641  31.636  0.00  0.00     0.091 C 
ATOM     20  C   MLE d   1      19.026  26.662  32.940  0.00  0.00     0.241 C 
ATOM     21  O   MLE d   1      17.940  26.087  33.019  0.00  0.00    -0.271 OA
ATOM     22  N   MLE d   1      16.420  27.764  35.527  0.00  0.00    -0.341 N 
ATOM     23  CA  MLE d   1      15.317  28.706  35.318  0.00  0.00     0.091 C 
ATOM     24  C   MLE d   1      14.775  29.246  36.633  0.00  0.00     0.241 C 
ATOM     25  O   MLE d   1      15.397  29.076  37.691  0.00  0.00    -0.271 OA
ATOM     26  N   MLE d   1      11.412  26.449  41.248  0.00  0.00    -0.341 N 
ATOM     27  CA  MLE d   1      12.194  25.439  41.950  0.00  0.00     0.091 C 
ATOM     28  C   MLE d   1      12.499  24.278  41.018  0.00  0.00     0.243 C 
ATOM     29  O   MLE d   1      11.909  23.194  41.105  0.00  0.00    -0.271 OA
ATOM     30  N   MLE d   1      13.404  24.483  40.057  0.00  0.00    -0.341 N 
ATOM     31  CA  MLE d   1      13.689  23.365  39.160  0.00  0.00     0.091 C 
ATOM     32  C   MLE d   1      15.071  22.759  39.400  0.00  0.00     0.243 C 
ATOM     33  O   MLE d   1      15.857  23.322  40.180  0.00  0.00    -0.271 OA
ATOM     34  H33 MLE d   1      20.511  27.485  31.615  0.00  0.00     0.087 H 
ATOM     35  H55 MLE d   1      15.707  29.558  34.742  0.00  0.00     0.087 H 
ATOM     36  H78 MLE d   1      13.141  25.887  42.286  0.00  0.00     0.087 H 
ATOM     37  H91 MLE d   1      12.943  22.578  39.345  0.00  0.00     0.087 H 
ATOM     38  N   VAL d   1      19.551  27.283  33.987  0.00  0.00    -0.346 N 
ATOM     39  CA  VAL d   1      18.855  27.265  35.273  0.00  0.00     0.092 C 
ATOM     40  C   VAL d   1      17.639  28.197  35.155  0.00  0.00     0.243 C 
ATOM     41  O   VAL d   1      17.823  29.333  34.668  0.00  0.00    -0.271 OA
ATOM     42  H43 VAL d   1      20.423  27.764  33.897  0.00  0.00     0.163 HD
ATOM     43  H44 VAL d   1      18.506  26.246  35.496  0.00  0.00     0.088 H 
ATOM     44  N   ALA d   1      13.656  29.959  36.613  0.00  0.00    -0.346 N 
ATOM     45  CA  ALA d   1      13.101  30.487  37.845  0.00  0.00     0.086 C 
ATOM     46  C   ALA d   1      12.248  29.446  38.556  0.00  0.00     0.240 C 
ATOM     47  O   ALA d   1      11.865  28.413  37.993  0.00  0.00    -0.271 OA
ATOM     48  H65 ALA d   1      13.193  30.133  35.744  0.00  0.00     0.163 HD
ATOM     49  H66 ALA d   1      13.926  30.791  38.506  0.00  0.00     0.086 H 
ATOM     50  N   DSN d   1      11.929  29.681  39.824  0.00  0.00    -0.346 N 
ATOM     51  CA  DSN d   1      11.011  28.814  40.531  0.00  0.00     0.086 C 
ATOM     52  C   DSN d   1      11.824  27.737  41.233  0.00  0.00     0.242 C 
ATOM     53  O   DSN d   1      12.887  28.090  41.754  0.00  0.00    -0.271 OA
ATOM     54  H70 DSN d   1      12.328  30.467  40.296  0.00  0.00     0.163 HD
ATOM     55  H71 DSN d   1      10.310  28.347  39.823  0.00  0.00     0.086 H 
ATOM     56  N   MVA d   1      15.425  21.597  38.828  0.00  0.00    -0.341 N 
ATOM     57  CA  MVA d   1      16.805  21.125  39.033  0.00  0.00     0.094 C 
ATOM     58  C   MVA d   1      17.400  20.875  37.634  0.00  0.00     0.243 C 
ATOM     59  O   MVA d   1      17.433  19.704  37.172  0.00  0.00    -0.271 OA
ATOM     60 4H10 MVA d   1      17.383  21.902  39.555  0.00  0.00     0.088 H 
ENDROOT
BRANCH   2  61
ATOM     61  CB  BMT d   1      17.610  22.530  34.477  0.00  0.00     0.067 C 
ATOM     62  H5  BMT d   1      17.872  22.157  33.476  0.00  0.00     0.087 H 
BRANCH  61  63
ATOM     63  OG1 BMT d   1      18.056  23.886  34.624  0.00  0.00    -0.393 OA
ATOM     64  H6  BMT d   1      17.626  24.432  33.976  0.00  0.00     0.210 HD
ENDBRANCH  61  63
BRANCH  61  65
ATOM     65  CG2 BMT d   1      16.057  22.484  34.649  0.00  0.00    -0.027 C 
ATOM     66  H7  BMT d   1      15.803  22.847  35.656  0.00  0.00     0.043 H 
BRANCH  65  67
ATOM     67  CD1 BMT d   1      15.588  21.039  34.513  0.00  0.00    -0.070 C 
ATOM     68  H8  BMT d   1      14.495  20.995  34.633  0.00  0.00     0.028 H 
ATOM     69  H9  BMT d   1      16.067  20.424  35.289  0.00  0.00     0.028 H 
ATOM     70  H10 BMT d   1      15.864  20.656  33.519  0.00  0.00     0.028 H 
ENDBRANCH  65  67
BRANCH  65  71
ATOM     71  CD2 BMT d   1      15.350  23.378  33.620  0.00  0.00    -0.045 C 
ATOM     72  H11 BMT d   1      15.744  24.400  33.718  0.00  0.00     0.039 H 
ATOM     73  H12 BMT d   1      14.272  23.378  33.841  0.00  0.00     0.039 H 
BRANCH  71  74
ATOM     74  CE  BMT d   1      15.548  22.918  32.172  0.00  0.00    -0.106 C 
ATOM     75  CZ  BMT d   1      15.752  23.765  31.173  0.00  0.00    -0.110 C 
ATOM     76  H14 BMT d   1      15.776  24.834  31.381  0.00  0.00     0.075 H 
ATOM     77  H13 BMT d   1      15.520  21.851  31.955  0.00  0.00     0.076 H 
BRANCH  75  78
ATOM     78  CH  BMT d   1      15.954  23.284  29.740  0.00  0.00    -0.060 C 
ATOM     79  H15 BMT d   1      16.105  24.151  29.080  0.00  0.00     0.032 H 
ATOM     80  H16 BMT d   1      15.066  22.724  29.412  0.00  0.00     0.032 H 
ATOM     81  H17 BMT d   1      16.837  22.630  29.694  0.00  0.00     0.032 H 
ENDBRANCH  75  78
ENDBRANCH  71  74
ENDBRANCH  65  71
ENDBRANCH  61  65
ENDBRANCH   2  61
BRANCH   1  82
ATOM     82  CN  BMT d   1      17.918  23.295  37.531  0.00  0.00    -0.015 C 
ATOM     83  H1  BMT d   1      18.233  24.029  36.775  0.00  0.00     0.056 H 
ATOM     84  H2  BMT d   1      18.671  23.247  38.332  0.00  0.00     0.056 H 
ATOM     85  H3  BMT d   1      16.950  23.599  37.956  0.00  0.00     0.056 H 
ENDBRANCH   1  82
BRANCH  57  86
ATOM     86  CB  MVA d   1      16.868  19.815  39.858  0.00  0.00    -0.033 C 
ATOM     87 5H10 MVA d   1      16.503  18.983  39.238  0.00  0.00     0.042 H 
BRANCH  86  88
ATOM     88  CG1 MVA d   1      18.328  19.572  40.235  0.00  0.00    -0.071 C 
ATOM     89 6H10 MVA d   1      18.405  18.646  40.823  0.00  0.00     0.028 H 
ATOM     90 7H10 MVA d   1      18.698  20.418  40.833  0.00  0.00     0.028 H 
ATOM     91 8H10 MVA d   1      18.932  19.477  39.321  0.00  0.00     0.028 H 
ENDBRANCH  86  88
BRANCH  86  92
ATOM     92  CG2 MVA d   1      16.020  19.889  41.128  0.00  0.00    -0.071 C 
ATOM     93 9H10 MVA d   1      14.968  20.064  40.857  0.00  0.00     0.028 H 
ATOM     94 0H11 MVA d   1      16.378  20.715  41.760  0.00  0.00     0.028 H 
ATOM     95 1H11 MVA d   1      16.103  18.941  41.680  0.00  0.00     0.028 H 
ENDBRANCH  86  92
ENDBRANCH  57  86
BRANCH   7  96
ATOM     96  CB  ABA d   1      22.233  19.859  33.847  0.00  0.00    -0.041 C 
ATOM     97  H20 ABA d   1      23.325  19.837  33.718  0.00  0.00     0.036 H 
ATOM     98  H21 ABA d   1      21.749  19.486  32.932  0.00  0.00     0.036 H 
BRANCH  96  99
ATOM     99  CG  ABA d   1      21.865  18.907  35.011  0.00  0.00    -0.074 C 
ATOM    100  H22 ABA d   1      22.209  17.889  34.775  0.00  0.00     0.027 H 
ATOM    101  H23 ABA d   1      20.774  18.902  35.150  0.00  0.00     0.027 H 
ATOM    102  H24 ABA d   1      22.350  19.253  35.935  0.00  0.00     0.027 H 
ENDBRANCH  96  99
ENDBRANCH   7  96
BRANCH  56 103
ATOM    103  CN  MVA d   1      14.422  20.691  38.164  0.00  0.00    -0.015 C 
ATOM    104 1H10 MVA d   1      13.452  21.206  38.095  0.00  0.00     0.056 H 
ATOM    105 2H10 MVA d   1      14.308  19.772  38.758  0.00  0.00     0.056 H 
ATOM    106 3H10 MVA d   1      14.773  20.434  37.154  0.00  0.00     0.056 H 
ENDBRANCH  56 103
BRANCH  12 107
ATOM    107  CN  SAR d   1      22.504  24.133  34.324  0.00  0.00    -0.015 C 
ATOM    108  H27 SAR d   1      22.239  23.413  35.113  0.00  0.00     0.056 H 
ATOM    109  H28 SAR d   1      21.797  24.976  34.344  0.00  0.00     0.056 H 
ATOM    110  H29 SAR d   1      23.524  24.506  34.495  0.00  0.00     0.056 H 
ENDBRANCH  12 107
BRANCH  31 111
ATOM    111  CB  MLE d   1      13.535  23.854  37.686  0.00  0.00    -0.035 C 
ATOM    112  H92 MLE d   1      13.831  23.025  37.026  0.00  0.00     0.037 H 
ATOM    113  H93 MLE d   1      14.221  24.701  37.541  0.00  0.00     0.037 H 
BRANCH 111 114
ATOM    114  CG  MLE d   1      12.121  24.315  37.257  0.00  0.00    -0.059 C 
ATOM    115  H94 MLE d   1      11.831  25.186  37.863  0.00  0.00     0.038 H 
BRANCH 114 116
ATOM    116  CD1 MLE d   1      12.152  24.723  35.803  0.00  0.00    -0.073 C 
ATOM    117  H95 MLE d   1      11.149  25.052  35.493  0.00  0.00     0.028 H 
ATOM    118  H96 MLE d   1      12.463  23.866  35.188  0.00  0.00     0.028 H 
ATOM    119  H97 MLE d   1      12.866  25.549  35.669  0.00  0.00     0.028 H 
ENDBRANCH 114 116
BRANCH 114 120
ATOM    120  CD2 MLE d   1      11.110  23.208  37.488  0.00  0.00    -0.073 C 
ATOM    121  H98 MLE d   1      11.107  22.930  38.552  0.00  0.00     0.028 H 
ATOM    122  H99 MLE d   1      11.381  22.332  36.881  0.00  0.00     0.028 H 
ATOM    123 0H10 MLE d   1      10.109  23.559  37.198  0.00  0.00     0.028 H 
ENDBRANCH 114 120
ENDBRANCH 111 114
ENDBRANCH  31 111
BRANCH  30 124
ATOM    124  CN  MLE d   1      14.181  25.770  39.851  0.00  0.00    -0.015 C 
ATOM    125  H88 MLE d   1      13.861  26.515  40.595  0.00  0.00     0.056 H 
ATOM    126  H89 MLE d   1      13.989  26.156  38.839  0.00  0.00     0.056 H 
ATOM    127  H90 MLE d   1      15.257  25.572  39.970  0.00  0.00     0.056 H 
ENDBRANCH  30 124
BRANCH  18 128
ATOM    128  CN  MLE d   1      19.806  24.118  31.411  0.00  0.00    -0.015 C 
ATOM    129  H30 MLE d   1      20.515  23.278  31.371  0.00  0.00     0.056 H 
ATOM    130  H31 MLE d   1      19.218  24.146  30.482  0.00  0.00     0.056 H 
ATOM    131  H32 MLE d   1      19.130  23.987  32.269  0.00  0.00     0.056 H 
ENDBRANCH  18 128
BRANCH  27 132
ATOM    132  CB  MLE d   1      11.416  24.944  43.169  0.00  0.00    -0.035 C 
ATOM    133  H79 MLE d   1      11.989  24.119  43.618  0.00  0.00     0.037 H 
ATOM    134  H80 MLE d   1      10.446  24.566  42.814  0.00  0.00     0.037 H 
BRANCH 132 135
ATOM    135  CG  MLE d   1      11.137  25.978  44.279  0.00  0.00    -0.059 C 
ATOM    136  H81 MLE d   1      10.667  26.866  43.831  0.00  0.00     0.038 H 
BRANCH 135 137
ATOM    137  CD1 MLE d   1      10.182  25.388  45.308  0.00  0.00    -0.073 C 
ATOM    138  H82 MLE d   1       9.988  26.131  46.096  0.00  0.00     0.028 H 
ATOM    139  H83 MLE d   1      10.633  24.489  45.754  0.00  0.00     0.028 H 
ATOM    140  H84 MLE d   1       9.235  25.118  44.817  0.00  0.00     0.028 H 
ENDBRANCH 135 137
BRANCH 135 141
ATOM    141  CD2 MLE d   1      12.440  26.392  44.925  0.00  0.00    -0.073 C 
ATOM    142  H85 MLE d   1      13.110  26.814  44.161  0.00  0.00     0.028 H 
ATOM    143  H86 MLE d   1      12.916  25.514  45.386  0.00  0.00     0.028 H 
ATOM    144  H87 MLE d   1      12.242  27.149  45.698  0.00  0.00     0.028 H 
ENDBRANCH 135 141
ENDBRANCH 132 135
ENDBRANCH  27 132
BRANCH  19 145
ATOM    145  CB  MLE d   1      18.802  26.798  30.463  0.00  0.00    -0.035 C 
ATOM    146  H34 MLE d   1      18.301  27.765  30.616  0.00  0.00     0.037 H 
ATOM    147  H35 MLE d   1      18.070  25.985  30.576  0.00  0.00     0.037 H 
BRANCH 145 148
ATOM    148  CG  MLE d   1      19.241  26.774  29.007  0.00  0.00    -0.059 C 
ATOM    149  H36 MLE d   1      19.443  25.736  28.702  0.00  0.00     0.038 H 
BRANCH 148 150
ATOM    150  CD1 MLE d   1      18.109  27.333  28.207  0.00  0.00    -0.073 C 
ATOM    151  H37 MLE d   1      18.380  27.336  27.141  0.00  0.00     0.028 H 
ATOM    152  H38 MLE d   1      17.901  28.362  28.536  0.00  0.00     0.028 H 
ATOM    153  H39 MLE d   1      17.213  26.712  28.356  0.00  0.00     0.028 H 
ENDBRANCH 148 150
BRANCH 148 154
ATOM    154  CD2 MLE d   1      20.475  27.604  28.766  0.00  0.00    -0.073 C 
ATOM    155  H40 MLE d   1      21.311  27.196  29.353  0.00  0.00     0.028 H 
ATOM    156  H41 MLE d   1      20.284  28.643  29.073  0.00  0.00     0.028 H 
ATOM    157  H42 MLE d   1      20.731  27.579  27.697  0.00  0.00     0.028 H 
ENDBRANCH 148 154
ENDBRANCH 145 148
ENDBRANCH  19 145
BRANCH  26 158
ATOM    158  CN  MLE d   1      10.146  25.979  40.587  0.00  0.00    -0.015 C 
ATOM    159  H75 MLE d   1       9.652  26.830  40.095  0.00  0.00     0.056 H 
ATOM    160  H76 MLE d   1       9.473  25.552  41.345  0.00  0.00     0.056 H 
ATOM    161  H77 MLE d   1      10.387  25.211  39.837  0.00  0.00     0.056 H 
ENDBRANCH  26 158
BRANCH  51 162
ATOM    162  CB  DSN d   1      10.231  29.654  41.547  0.00  0.00    -0.049 C 
ATOM    163  H72 DSN d   1       9.528  29.009  42.093  0.00  0.00     0.030 H 
ATOM    164  H73 DSN d   1       9.672  30.441  41.020  0.00  0.00     0.030 H 
ATOM    165  H74 DSN d   1      10.933  30.115  42.257  0.00  0.00     0.030 H 
ENDBRANCH  51 162
BRANCH  39 166
ATOM    166  CB  VAL d   1      19.857  27.712  36.391  0.00  0.00    -0.033 C 
ATOM    167  H45 VAL d   1      20.224  28.726  36.174  0.00  0.00     0.042 H 
BRANCH 166 168
ATOM    168  CG1 VAL d   1      19.248  27.657  37.781  0.00  0.00    -0.071 C 
ATOM    169  H46 VAL d   1      19.994  27.980  38.521  0.00  0.00     0.028 H 
ATOM    170  H47 VAL d   1      18.934  26.627  38.003  0.00  0.00     0.028 H 
ATOM    171  H48 VAL d   1      18.375  28.324  37.825  0.00  0.00     0.028 H 
ENDBRANCH 166 168
BRANCH 166 172
ATOM    172  CG2 VAL d   1      20.995  26.713  36.435  0.00  0.00    -0.071 C 
ATOM    173  H49 VAL d   1      21.498  26.687  35.457  0.00  0.00     0.028 H 
ATOM    174  H50 VAL d   1      20.598  25.714  36.669  0.00  0.00     0.028 H 
ATOM    175  H51 VAL d   1      21.716  27.012  37.210  0.00  0.00     0.028 H 
ENDBRANCH 166 172
ENDBRANCH  39 166
BRANCH  22 176
ATOM    176  CN  MLE d   1      16.099  26.421  36.146  0.00  0.00    -0.015 C 
ATOM    177  H52 MLE d   1      17.022  25.830  36.238  0.00  0.00     0.056 H 
ATOM    178  H53 MLE d   1      15.382  25.885  35.507  0.00  0.00     0.056 H 
ATOM    179  H54 MLE d   1      15.660  26.572  37.143  0.00  0.00     0.056 H 
ENDBRANCH  22 176
BRANCH  45 180
ATOM    180  CB  ALA d   1      12.233  31.686  37.539  0.00  0.00    -0.049 C 
ATOM    181  H67 ALA d   1      11.814  32.084  38.475  0.00  0.00     0.030 H 
ATOM    182  H68 ALA d   1      11.414  31.384  36.870  0.00  0.00     0.030 H 
ATOM    183  H69 ALA d   1      12.839  32.462  37.050  0.00  0.00     0.030 H 
ENDBRANCH  45 180
BRANCH  23 184
ATOM    184  CB  MLE d   1      14.177  28.032  34.476  0.00  0.00    -0.035 C 
ATOM    185  H56 MLE d   1      13.376  28.775  34.348  0.00  0.00     0.037 H 
ATOM    186  H57 MLE d   1      13.796  27.179  35.057  0.00  0.00     0.037 H 
BRANCH 184 187
ATOM    187  CG  MLE d   1      14.556  27.507  33.070  0.00  0.00    -0.059 C 
ATOM    188  H58 MLE d   1      15.406  26.816  33.166  0.00  0.00     0.038 H 
BRANCH 187 189
ATOM    189  CD1 MLE d   1      13.392  26.764  32.483  0.00  0.00    -0.073 C 
ATOM    190  H59 MLE d   1      13.661  26.391  31.484  0.00  0.00     0.028 H 
ATOM    191  H60 MLE d   1      12.529  27.441  32.401  0.00  0.00     0.028 H 
ATOM    192  H61 MLE d   1      13.133  25.916  33.133  0.00  0.00     0.028 H 
ENDBRANCH 187 189
BRANCH 187 193
ATOM    193  CD2 MLE d   1      14.966  28.661  32.161  0.00  0.00    -0.073 C 
ATOM    194  H62 MLE d   1      15.819  29.193  32.607  0.00  0.00     0.028 H 
ATOM    195  H63 MLE d   1      14.120  29.355  32.046  0.00  0.00     0.028 H 
ATOM    196  H64 MLE d   1      15.254  28.267  31.175  0.00  0.00     0.028 H 
ENDBRANCH 187 193
ENDBRANCH 184 187
ENDBRANCH  23 184
TORSDOF 40
