REMARK  4 active torsions:
REMARK  status: ('A' for Active; 'I' for Inactive)
REMARK    1  A    between atoms: C1_1  and  C2_2 
REMARK    2  A    between atoms: C2_2  and  C3_3 
REMARK    3  A    between atoms: C3_3  and  C4_4 
REMARK    4  A    between atoms: C4_4  and  C5_5 
ROOT
ATOM      1  C3  GUA d   1      22.961  10.842 -12.517  0.00  0.00    -0.047 C 
ATOM      2  H3  GUA d   1      23.296  11.876 -12.348  0.00  0.00     0.034 H 
ATOM      3  H4  GUA d   1      21.876  10.833 -12.696  0.00  0.00     0.034 H 
ENDROOT
BRANCH   1   4
ATOM      4  C2  GUA d   1      23.297   9.996 -11.350  0.00  0.00     0.016 C 
ATOM      5  H1  GUA d   1      22.611  10.255 -10.530  0.00  0.00     0.049 H 
ATOM      6  H2  GUA d   1      23.148   8.944 -11.634  0.00  0.00     0.049 H 
BRANCH   4   7
ATOM      7  C1  GUA d   1      24.703  10.153 -10.853  0.00  0.00     0.172 C 
ATOM      8  O1  GUA d   1      25.506  10.949 -11.404  0.00  0.00    -0.648 OA
ATOM      9  O2  GUA d   1      25.004   9.450  -9.884  0.00  0.00    -0.648 OA
ENDBRANCH   4   7
ENDBRANCH   1   4
BRANCH   1  10
ATOM     10  C4  GUA d   1      23.699  10.233 -13.705  0.00  0.00     0.016 C 
ATOM     11  H5  GUA d   1      22.980   9.684 -14.331  0.00  0.00     0.049 H 
ATOM     12  H6  GUA d   1      24.466   9.538 -13.332  0.00  0.00     0.049 H 
BRANCH  10  13
ATOM     13  C5  GUA d   1      24.359  11.286 -14.533  0.00  0.00     0.172 C 
ATOM     14  O3  GUA d   1      23.852  12.408 -14.519  0.00  0.00    -0.648 OA
ATOM     15  O4  GUA d   1      25.379  11.016 -15.206  0.00  0.00    -0.648 OA
ENDBRANCH  10  13
ENDBRANCH   1  10
TORSDOF 4
