REMARK  3 active torsions:
REMARK  status: ('A' for Active; 'I' for Inactive)
REMARK    1  A    between atoms: C1_1  and  C2_4 
REMARK    2  A    between atoms: C2_4  and  C3_5 
REMARK    3  A    between atoms: C3_5  and  C4_6 
ROOT
ATOM      1  C2  SIN d   1      23.639   9.902 -12.111  0.00  0.00     0.025 C 
ATOM      2  H1  SIN d   1      22.759  10.560 -12.076  0.00  0.00     0.049 H 
ATOM      3  H2  SIN d   1      23.322   8.858 -11.969  0.00  0.00     0.049 H 
ENDROOT
BRANCH   1   4
ATOM      4  C1  SIN d   1      24.550  10.278 -10.929  0.00  0.00     0.173 C 
ATOM      5  O1  SIN d   1      24.132  10.192  -9.798  0.00  0.00    -0.648 OA
ATOM      6  O2  SIN d   1      25.688  10.654 -11.149  0.00  0.00    -0.648 OA
ENDBRANCH   1   4
BRANCH   1   7
ATOM      7  C3  SIN d   1      24.259  10.018 -13.532  0.00  0.00     0.025 C 
ATOM      8  H3  SIN d   1      23.721   9.295 -14.163  0.00  0.00     0.049 H 
ATOM      9  H4  SIN d   1      25.311   9.710 -13.436  0.00  0.00     0.049 H 
BRANCH   7  10
ATOM     10  C4  SIN d   1      24.268  11.343 -14.308  0.00  0.00     0.173 C 
ATOM     11  O3  SIN d   1      24.784  11.342 -15.388  0.00  0.00    -0.648 OA
ATOM     12  O4  SIN d   1      23.770  12.331 -13.824  0.00  0.00    -0.648 OA
ENDBRANCH   7  10
ENDBRANCH   1   7
TORSDOF 3
