REMARK  12 active torsions:
REMARK  status: ('A' for Active; 'I' for Inactive)
REMARK    1  A    between atoms: C7_11  and  C7M_12 
REMARK    2  A    between atoms: C8_13  and  C8M_14 
REMARK    3  A    between atoms: N10_17  and  C1_19 
REMARK    4  A    between atoms: C1_19  and  C2_20 
REMARK    5  A    between atoms: C2_20  and  O2_21 
REMARK    6  A    between atoms: C2_20  and  C3_22 
REMARK    7  A    between atoms: C3_22  and  O3_23 
REMARK    8  A    between atoms: C3_22  and  C4_24 
REMARK    9  A    between atoms: C4_24  and  O4_25 
REMARK   10  A    between atoms: C4_24  and  C5_26 
REMARK   11  A    between atoms: C5_26  and  O5_27 
REMARK   12  A    between atoms: O5_27  and  P_28 
ROOT
ATOM      1  N1  FMN d   1       1.329  44.548  53.495  0.00  0.00    -0.173 NA
ATOM      2  C2  FMN d   1       0.415  45.355  54.115  0.00  0.00     0.350 A 
ATOM      3  O2  FMN d   1      -0.693  44.954  54.396  0.00  0.00    -0.244 OA
ATOM      4  N3  FMN d   1       0.737  46.663  54.440  0.00  0.00    -0.272 N 
ATOM      5  C4  FMN d   1       1.934  47.260  54.157  0.00  0.00     0.282 A 
ATOM      6  O4  FMN d   1       2.143  48.403  54.484  0.00  0.00    -0.265 OA
ATOM      7  C4A FMN d   1       2.927  46.420  53.463  0.00  0.00     0.171 A 
ATOM      8  N5  FMN d   1       4.147  46.870  53.268  0.00  0.00    -0.237 NA
ATOM      9  C5A FMN d   1       5.055  46.022  52.667  0.00  0.00     0.085 A 
ATOM     10  C6  FMN d   1       6.361  46.476  52.400  0.00  0.00    -0.047 A 
ATOM     11  C7  FMN d   1       7.358  45.663  51.893  0.00  0.00    -0.054 A 
ATOM     12  C8  FMN d   1       7.056  44.285  51.616  0.00  0.00    -0.054 A 
ATOM     13  C9  FMN d   1       5.772  43.802  51.827  0.00  0.00    -0.048 A 
ATOM     14  C9A FMN d   1       4.757  44.655  52.361  0.00  0.00     0.065 A 
ATOM     15  N10 FMN d   1       3.455  44.230  52.595  0.00  0.00    -0.325 N 
ATOM     16  C10 FMN d   1       2.502  45.059  53.167  0.00  0.00     0.170 A 
ATOM     17  H1  FMN d   1       0.046  47.208  54.914  0.00  0.00     0.174 HD
ATOM     18  H2  FMN d   1       6.596  47.515  52.602  0.00  0.00     0.088 H 
ATOM     19  H9  FMN d   1       5.538  42.772  51.585  0.00  0.00     0.087 H 
ENDROOT
BRANCH  15  20
ATOM     20  C1  FMN d   1       3.095  42.850  52.197  0.00  0.00     0.028 C 
ATOM     21  H10 FMN d   1       2.225  42.519  52.783  0.00  0.00     0.069 H 
ATOM     22  H11 FMN d   1       3.946  42.182  52.395  0.00  0.00     0.069 H 
BRANCH  20  23
ATOM     23  C2  FMN d   1       2.749  42.799  50.706  0.00  0.00     0.078 C 
ATOM     24  H12 FMN d   1       3.613  43.198  50.154  0.00  0.00     0.089 H 
BRANCH  23  25
ATOM     25  O2  FMN d   1       1.607  43.583  50.341  0.00  0.00    -0.391 OA
ATOM     26  H13 FMN d   1       1.766  44.494  50.560  0.00  0.00     0.210 HD
ENDBRANCH  23  25
BRANCH  23  27
ATOM     27  C3  FMN d   1       2.533  41.352  50.279  0.00  0.00     0.088 C 
ATOM     28  H14 FMN d   1       1.868  40.925  51.044  0.00  0.00     0.091 H 
BRANCH  27  29
ATOM     29  O3  FMN d   1       3.774  40.641  50.355  0.00  0.00    -0.390 OA
ATOM     30  H15 FMN d   1       3.638  39.739  50.089  0.00  0.00     0.210 HD
ENDBRANCH  27  29
BRANCH  27  31
ATOM     31  C4  FMN d   1       1.852  41.043  48.945  0.00  0.00     0.084 C 
ATOM     32  H16 FMN d   1       0.844  41.483  48.956  0.00  0.00     0.090 H 
BRANCH  31  33
ATOM     33  O4  FMN d   1       1.729  39.623  48.802  0.00  0.00    -0.391 OA
ATOM     34  H17 FMN d   1       2.593  39.228  48.820  0.00  0.00     0.210 HD
ENDBRANCH  31  33
BRANCH  31  35
ATOM     35  C5  FMN d   1       2.623  41.650  47.777  0.00  0.00     0.059 C 
ATOM     36  H18 FMN d   1       3.613  41.176  47.701  0.00  0.00     0.079 H 
ATOM     37  H19 FMN d   1       2.745  42.731  47.936  0.00  0.00     0.079 H 
BRANCH  35  38
ATOM     38  O5  FMN d   1       1.883  41.420  46.569  0.00  0.00    -0.280 OA
BRANCH  38  39
ATOM     39  P   FMN d   1       2.564  41.696  45.161  0.00  0.00     0.422 P 
ATOM     40  O1P FMN d   1       3.318  40.491  44.849  0.00  0.00    -0.617 OA
ATOM     41  O2P FMN d   1       3.142  43.043  44.988  0.00  0.00    -0.617 OA
ATOM     42  O3P FMN d   1       1.287  41.645  44.290  0.00  0.00    -0.617 OA
ENDBRANCH  38  39
ENDBRANCH  35  38
ENDBRANCH  31  35
ENDBRANCH  27  31
ENDBRANCH  23  27
ENDBRANCH  20  23
ENDBRANCH  15  20
BRANCH  12  43
ATOM     43  C8M FMN d   1       8.125  43.344  51.112  0.00  0.00    -0.051 C 
ATOM     44  H6  FMN d   1       7.692  42.344  50.964  0.00  0.00     0.033 H 
ATOM     45  H7  FMN d   1       8.939  43.286  51.849  0.00  0.00     0.033 H 
ATOM     46  H8  FMN d   1       8.521  43.718  50.156  0.00  0.00     0.033 H 
ENDBRANCH  12  43
BRANCH  11  47
ATOM     47  C7M FMN d   1       8.756  46.242  51.618  0.00  0.00    -0.051 C 
ATOM     48  H3  FMN d   1       8.774  47.306  51.898  0.00  0.00     0.033 H 
ATOM     49  H4  FMN d   1       8.991  46.141  50.548  0.00  0.00     0.033 H 
ATOM     50  H5  FMN d   1       9.503  45.694  52.211  0.00  0.00     0.033 H 
ENDBRANCH  11  47
TORSDOF 12
