REMARK  12 active torsions:
REMARK  status: ('A' for Active; 'I' for Inactive)
REMARK    1  A    between atoms: C7_11  and  C7M_12 
REMARK    2  A    between atoms: C8_13  and  C8M_14 
REMARK    3  A    between atoms: N10_17  and  C1_19 
REMARK    4  A    between atoms: C1_19  and  C2_20 
REMARK    5  A    between atoms: C2_20  and  O2_21 
REMARK    6  A    between atoms: C2_20  and  C3_22 
REMARK    7  A    between atoms: C3_22  and  O3_23 
REMARK    8  A    between atoms: C3_22  and  C4_24 
REMARK    9  A    between atoms: C4_24  and  O4_25 
REMARK   10  A    between atoms: C4_24  and  C5_26 
REMARK   11  A    between atoms: C5_26  and  O5_27 
REMARK   12  A    between atoms: O5_27  and  P_28 
ROOT
ATOM      1  N1  FMN d   1       1.348  44.079  53.357  0.00  0.00    -0.173 NA
ATOM      2  C2  FMN d   1       0.390  44.912  53.960  0.00  0.00     0.350 A 
ATOM      3  O2  FMN d   1      -0.733  44.506  54.274  0.00  0.00    -0.244 OA
ATOM      4  N3  FMN d   1       0.706  46.267  54.244  0.00  0.00    -0.272 N 
ATOM      5  C4  FMN d   1       1.952  46.827  53.999  0.00  0.00     0.282 A 
ATOM      6  O4  FMN d   1       2.183  48.001  54.280  0.00  0.00    -0.265 OA
ATOM      7  C4A FMN d   1       2.969  45.918  53.368  0.00  0.00     0.171 A 
ATOM      8  N5  FMN d   1       4.190  46.381  53.113  0.00  0.00    -0.237 NA
ATOM      9  C5A FMN d   1       5.142  45.550  52.545  0.00  0.00     0.085 A 
ATOM     10  C6  FMN d   1       6.466  46.041  52.307  0.00  0.00    -0.047 A 
ATOM     11  C7  FMN d   1       7.467  45.223  51.793  0.00  0.00    -0.054 A 
ATOM     12  C8  FMN d   1       7.141  43.853  51.494  0.00  0.00    -0.054 A 
ATOM     13  C9  FMN d   1       5.852  43.369  51.693  0.00  0.00    -0.048 A 
ATOM     14  C9A FMN d   1       4.831  44.198  52.217  0.00  0.00     0.065 A 
ATOM     15  N10 FMN d   1       3.500  43.763  52.471  0.00  0.00    -0.325 N 
ATOM     16  C10 FMN d   1       2.554  44.557  53.086  0.00  0.00     0.170 A 
ATOM     17  H1  FMN d   1      -0.005  46.847  54.641  0.00  0.00     0.174 HD
ATOM     18  H2  FMN d   1       6.694  47.076  52.533  0.00  0.00     0.088 H 
ATOM     19  H9  FMN d   1       5.625  42.339  51.442  0.00  0.00     0.087 H 
ENDROOT
BRANCH  15  20
ATOM     20  C1  FMN d   1       3.151  42.390  52.107  0.00  0.00     0.028 C 
ATOM     21  H10 FMN d   1       2.268  42.075  52.682  0.00  0.00     0.069 H 
ATOM     22  H11 FMN d   1       3.997  41.726  52.340  0.00  0.00     0.069 H 
BRANCH  20  23
ATOM     23  C2  FMN d   1       2.838  42.302  50.616  0.00  0.00     0.078 C 
ATOM     24  H12 FMN d   1       3.719  42.683  50.078  0.00  0.00     0.089 H 
BRANCH  23  25
ATOM     25  O2  FMN d   1       1.713  43.079  50.183  0.00  0.00    -0.391 OA
ATOM     26  H13 FMN d   1       1.871  43.996  50.374  0.00  0.00     0.210 HD
ENDBRANCH  23  25
BRANCH  23  27
ATOM     27  C3  FMN d   1       2.637  40.838  50.223  0.00  0.00     0.088 C 
ATOM     28  H14 FMN d   1       1.937  40.425  50.964  0.00  0.00     0.091 H 
BRANCH  27  29
ATOM     29  O3  FMN d   1       3.875  40.129  50.365  0.00  0.00    -0.390 OA
ATOM     30  H15 FMN d   1       3.748  39.220  50.120  0.00  0.00     0.210 HD
ENDBRANCH  27  29
BRANCH  27  31
ATOM     31  C4  FMN d   1       2.009  40.535  48.843  0.00  0.00     0.084 C 
ATOM     32  H16 FMN d   1       1.006  40.985  48.821  0.00  0.00     0.090 H 
BRANCH  31  33
ATOM     33  O4  FMN d   1       1.854  39.122  48.693  0.00  0.00    -0.391 OA
ATOM     34  H17 FMN d   1       2.704  38.703  48.754  0.00  0.00     0.210 HD
ENDBRANCH  31  33
BRANCH  31  35
ATOM     35  C5  FMN d   1       2.818  41.170  47.706  0.00  0.00     0.059 C 
ATOM     36  H18 FMN d   1       3.800  40.680  47.635  0.00  0.00     0.079 H 
ATOM     37  H19 FMN d   1       2.957  42.242  47.907  0.00  0.00     0.079 H 
BRANCH  35  38
ATOM     38  O5  FMN d   1       2.108  41.002  46.475  0.00  0.00    -0.280 OA
BRANCH  38  39
ATOM     39  P   FMN d   1       2.711  41.148  45.006  0.00  0.00     0.422 P 
ATOM     40  O1P FMN d   1       3.453  39.923  44.701  0.00  0.00    -0.617 OA
ATOM     41  O2P FMN d   1       3.305  42.478  44.780  0.00  0.00    -0.617 OA
ATOM     42  O3P FMN d   1       1.444  41.099  44.118  0.00  0.00    -0.617 OA
ENDBRANCH  38  39
ENDBRANCH  35  38
ENDBRANCH  31  35
ENDBRANCH  27  31
ENDBRANCH  23  27
ENDBRANCH  20  23
ENDBRANCH  15  20
BRANCH  12  43
ATOM     43  C8M FMN d   1       8.187  42.908  50.972  0.00  0.00    -0.051 C 
ATOM     44  H6  FMN d   1       7.737  41.917  50.809  0.00  0.00     0.033 H 
ATOM     45  H7  FMN d   1       9.004  42.824  51.704  0.00  0.00     0.033 H 
ATOM     46  H8  FMN d   1       8.585  43.291  50.021  0.00  0.00     0.033 H 
ENDBRANCH  12  43
BRANCH  11  47
ATOM     47  C7M FMN d   1       8.870  45.766  51.551  0.00  0.00    -0.051 C 
ATOM     48  H3  FMN d   1       8.908  46.826  51.843  0.00  0.00     0.033 H 
ATOM     49  H4  FMN d   1       9.121  45.670  50.484  0.00  0.00     0.033 H 
ATOM     50  H5  FMN d   1       9.593  45.194  52.151  0.00  0.00     0.033 H 
ENDBRANCH  11  47
TORSDOF 12
