REMARK  12 active torsions:
REMARK  status: ('A' for Active; 'I' for Inactive)
REMARK    1  A    between atoms: C7_11  and  C7M_12 
REMARK    2  A    between atoms: C8_13  and  C8M_14 
REMARK    3  A    between atoms: N10_17  and  C1_19 
REMARK    4  A    between atoms: C1_19  and  C2_20 
REMARK    5  A    between atoms: C2_20  and  O2_21 
REMARK    6  A    between atoms: C2_20  and  C3_22 
REMARK    7  A    between atoms: C3_22  and  O3_23 
REMARK    8  A    between atoms: C3_22  and  C4_24 
REMARK    9  A    between atoms: C4_24  and  O4_25 
REMARK   10  A    between atoms: C4_24  and  C5_26 
REMARK   11  A    between atoms: C5_26  and  O5_27 
REMARK   12  A    between atoms: O5_27  and  P_28 
ROOT
ATOM      1  N1  FMN d   1      61.472  33.257 -17.031  0.00  0.00    -0.292 N 
ATOM      2  C2  FMN d   1      62.039  34.453 -17.395  0.00  0.00     0.328 C 
ATOM      3  O2  FMN d   1      62.188  35.346 -16.565  0.00  0.00    -0.247 OA
ATOM      4  N3  FMN d   1      62.433  34.667 -18.773  0.00  0.00    -0.273 N 
ATOM      5  C4  FMN d   1      62.154  33.832 -19.854  0.00  0.00     0.280 C 
ATOM      6  O4  FMN d   1      62.538  34.112 -21.010  0.00  0.00    -0.265 OA
ATOM      7  C4A FMN d   1      61.414  32.589 -19.478  0.00  0.00     0.146 C 
ATOM      8  N5  FMN d   1      61.066  31.725 -20.419  0.00  0.00    -0.347 N 
ATOM      9  C5A FMN d   1      60.582  30.514 -19.986  0.00  0.00     0.060 A 
ATOM     10  C6  FMN d   1      60.498  29.444 -20.931  0.00  0.00    -0.049 A 
ATOM     11  C7  FMN d   1      60.191  28.133 -20.533  0.00  0.00    -0.054 A 
ATOM     12  C8  FMN d   1      60.003  27.861 -19.121  0.00  0.00    -0.054 A 
ATOM     13  C9  FMN d   1      60.119  28.896 -18.180  0.00  0.00    -0.049 A 
ATOM     14  C9A FMN d   1      60.375  30.209 -18.591  0.00  0.00     0.063 A 
ATOM     15  N10 FMN d   1      60.573  31.224 -17.653  0.00  0.00    -0.327 N 
ATOM     16  C10 FMN d   1      61.145  32.405 -18.012  0.00  0.00     0.145 C 
ATOM     17  H1  FMN d   1      61.309  33.030 -16.071  0.00  0.00     0.172 HD
ATOM     18  H2  FMN d   1      62.957  35.496 -18.968  0.00  0.00     0.173 HD
ATOM     19  H3  FMN d   1      61.153  31.948 -21.421  0.00  0.00     0.166 HD
ATOM     20  H4  FMN d   1      60.676  29.650 -21.980  0.00  0.00     0.087 H 
ATOM     21  H11 FMN d   1      60.009  28.676 -17.124  0.00  0.00     0.087 H 
ENDROOT
BRANCH  15  22
ATOM     22  C1  FMN d   1      60.178  31.000 -16.251  0.00  0.00     0.028 C 
ATOM     23  H12 FMN d   1      60.773  31.663 -15.606  0.00  0.00     0.069 H 
ATOM     24  H13 FMN d   1      60.383  29.952 -15.989  0.00  0.00     0.069 H 
BRANCH  22  25
ATOM     25  C2  FMN d   1      58.697  31.284 -16.013  0.00  0.00     0.078 C 
ATOM     26  H14 FMN d   1      58.119  30.675 -16.724  0.00  0.00     0.089 H 
BRANCH  25  27
ATOM     27  O2  FMN d   1      58.337  32.653 -16.216  0.00  0.00    -0.391 OA
ATOM     28  H15 FMN d   1      58.534  32.902 -17.111  0.00  0.00     0.210 HD
ENDBRANCH  25  27
BRANCH  25  29
ATOM     29  C3  FMN d   1      58.321  30.865 -14.593  0.00  0.00     0.088 C 
ATOM     30  H16 FMN d   1      59.089  31.310 -13.943  0.00  0.00     0.091 H 
BRANCH  29  31
ATOM     31  O3  FMN d   1      58.431  29.440 -14.463  0.00  0.00    -0.390 OA
ATOM     32  H17 FMN d   1      58.196  29.185 -13.579  0.00  0.00     0.210 HD
ENDBRANCH  29  31
BRANCH  29  33
ATOM     33  C4  FMN d   1      56.985  31.340 -14.025  0.00  0.00     0.084 C 
ATOM     34  H18 FMN d   1      57.003  32.439 -13.989  0.00  0.00     0.090 H 
BRANCH  33  35
ATOM     35  O4  FMN d   1      56.844  30.865 -12.683  0.00  0.00    -0.391 OA
ATOM     36  H19 FMN d   1      56.871  29.915 -12.680  0.00  0.00     0.210 HD
ENDBRANCH  33  35
BRANCH  33  37
ATOM     37  C5  FMN d   1      55.822  30.936 -14.932  0.00  0.00     0.059 C 
ATOM     38  H20 FMN d   1      55.684  29.845 -14.897  0.00  0.00     0.079 H 
ATOM     39  H21 FMN d   1      56.032  31.246 -15.966  0.00  0.00     0.079 H 
BRANCH  37  40
ATOM     40  O5  FMN d   1      54.635  31.591 -14.460  0.00  0.00    -0.280 OA
BRANCH  40  41
ATOM     41  P   FMN d   1      53.146  31.151 -14.744  0.00  0.00     0.422 P 
ATOM     42  O1P FMN d   1      52.989  29.894 -14.027  0.00  0.00    -0.617 OA
ATOM     43  O2P FMN d   1      52.238  32.238 -14.328  0.00  0.00    -0.617 OA
ATOM     44  O3P FMN d   1      52.946  30.863 -16.274  0.00  0.00    -0.617 OA
ENDBRANCH  40  41
ENDBRANCH  37  40
ENDBRANCH  33  37
ENDBRANCH  29  33
ENDBRANCH  25  29
ENDBRANCH  22  25
ENDBRANCH  15  22
BRANCH  12  45
ATOM     45  C8M FMN d   1      59.632  26.490 -18.633  0.00  0.00    -0.051 C 
ATOM     46  H8  FMN d   1      59.540  26.503 -17.537  0.00  0.00     0.033 H 
ATOM     47  H9  FMN d   1      60.413  25.773 -18.927  0.00  0.00     0.033 H 
ATOM     48  H10 FMN d   1      58.672  26.190 -19.078  0.00  0.00     0.033 H 
ENDBRANCH  12  45
BRANCH  11  49
ATOM     49  C7M FMN d   1      60.020  27.034 -21.555  0.00  0.00    -0.051 C 
ATOM     50  H5  FMN d   1      60.204  27.438 -22.562  0.00  0.00     0.033 H 
ATOM     51  H6  FMN d   1      58.995  26.638 -21.500  0.00  0.00     0.033 H 
ATOM     52  H7  FMN d   1      60.737  26.226 -21.348  0.00  0.00     0.033 H 
ENDBRANCH  11  49
TORSDOF 12
