REMARK  12 active torsions:
REMARK  status: ('A' for Active; 'I' for Inactive)
REMARK    1  A    between atoms: C7_11  and  C7M_12 
REMARK    2  A    between atoms: C8_13  and  C8M_14 
REMARK    3  A    between atoms: N10_17  and  C1_19 
REMARK    4  A    between atoms: C1_19  and  C2_20 
REMARK    5  A    between atoms: C2_20  and  O2_21 
REMARK    6  A    between atoms: C2_20  and  C3_22 
REMARK    7  A    between atoms: C3_22  and  O3_23 
REMARK    8  A    between atoms: C3_22  and  C4_24 
REMARK    9  A    between atoms: C4_24  and  O4_25 
REMARK   10  A    between atoms: C4_24  and  C5_26 
REMARK   11  A    between atoms: C5_26  and  O5_27 
REMARK   12  A    between atoms: O5_27  and  P_28 
ROOT
ATOM      1  N1  FMN d   1       1.480  44.153  53.505  0.00  0.00    -0.173 NA
ATOM      2  C2  FMN d   1       0.536  44.964  54.103  0.00  0.00     0.350 A 
ATOM      3  O2  FMN d   1      -0.588  44.558  54.370  0.00  0.00    -0.244 OA
ATOM      4  N3  FMN d   1       0.868  46.290  54.413  0.00  0.00    -0.272 N 
ATOM      5  C4  FMN d   1       2.081  46.873  54.156  0.00  0.00     0.282 A 
ATOM      6  O4  FMN d   1       2.302  48.048  54.446  0.00  0.00    -0.265 OA
ATOM      7  C4A FMN d   1       3.098  45.997  53.507  0.00  0.00     0.171 A 
ATOM      8  N5  FMN d   1       4.305  46.472  53.259  0.00  0.00    -0.237 NA
ATOM      9  C5A FMN d   1       5.228  45.631  52.678  0.00  0.00     0.085 A 
ATOM     10  C6  FMN d   1       6.528  46.111  52.424  0.00  0.00    -0.047 A 
ATOM     11  C7  FMN d   1       7.501  45.322  51.842  0.00  0.00    -0.054 A 
ATOM     12  C8  FMN d   1       7.182  43.957  51.528  0.00  0.00    -0.054 A 
ATOM     13  C9  FMN d   1       5.904  43.468  51.733  0.00  0.00    -0.048 A 
ATOM     14  C9A FMN d   1       4.908  44.286  52.323  0.00  0.00     0.065 A 
ATOM     15  N10 FMN d   1       3.597  43.841  52.586  0.00  0.00    -0.325 N 
ATOM     16  C10 FMN d   1       2.672  44.638  53.220  0.00  0.00     0.170 A 
ATOM     17  H1  FMN d   1       0.168  46.852  54.854  0.00  0.00     0.174 HD
ATOM     18  H2  FMN d   1       6.772  47.132  52.694  0.00  0.00     0.088 H 
ATOM     19  H9  FMN d   1       5.663  42.453  51.440  0.00  0.00     0.087 H 
ENDROOT
BRANCH  15  20
ATOM     20  C1  FMN d   1       3.204  42.479  52.175  0.00  0.00     0.028 C 
ATOM     21  H10 FMN d   1       2.334  42.164  52.771  0.00  0.00     0.069 H 
ATOM     22  H11 FMN d   1       4.044  41.794  52.362  0.00  0.00     0.069 H 
BRANCH  20  23
ATOM     23  C2  FMN d   1       2.835  42.417  50.686  0.00  0.00     0.078 C 
ATOM     24  H12 FMN d   1       3.715  42.785  50.138  0.00  0.00     0.089 H 
BRANCH  23  25
ATOM     25  O2  FMN d   1       1.728  43.218  50.248  0.00  0.00    -0.391 OA
ATOM     26  H13 FMN d   1       1.911  44.133  50.426  0.00  0.00     0.210 HD
ENDBRANCH  23  25
BRANCH  23  27
ATOM     27  C3  FMN d   1       2.608  40.968  50.276  0.00  0.00     0.088 C 
ATOM     28  H14 FMN d   1       1.937  40.543  51.037  0.00  0.00     0.091 H 
BRANCH  27  29
ATOM     29  O3  FMN d   1       3.845  40.244  50.343  0.00  0.00    -0.390 OA
ATOM     30  H15 FMN d   1       3.697  39.341  50.086  0.00  0.00     0.210 HD
ENDBRANCH  27  29
BRANCH  27  31
ATOM     31  C4  FMN d   1       1.928  40.707  48.928  0.00  0.00     0.084 C 
ATOM     32  H16 FMN d   1       0.931  41.172  48.929  0.00  0.00     0.090 H 
BRANCH  31  33
ATOM     33  O4  FMN d   1       1.805  39.297  48.735  0.00  0.00    -0.391 OA
ATOM     34  H17 FMN d   1       2.669  38.901  48.741  0.00  0.00     0.210 HD
ENDBRANCH  31  33
BRANCH  31  35
ATOM     35  C5  FMN d   1       2.753  41.279  47.773  0.00  0.00     0.059 C 
ATOM     36  H18 FMN d   1       3.706  40.735  47.695  0.00  0.00     0.079 H 
ATOM     37  H19 FMN d   1       2.953  42.345  47.955  0.00  0.00     0.079 H 
BRANCH  35  38
ATOM     38  O5  FMN d   1       2.010  41.129  46.551  0.00  0.00    -0.280 OA
BRANCH  38  39
ATOM     39  P   FMN d   1       2.618  41.314  45.121  0.00  0.00     0.422 P 
ATOM     40  O1P FMN d   1       3.327  40.092  44.771  0.00  0.00    -0.617 OA
ATOM     41  O2P FMN d   1       3.236  42.630  44.935  0.00  0.00    -0.617 OA
ATOM     42  O3P FMN d   1       1.336  41.291  44.244  0.00  0.00    -0.617 OA
ENDBRANCH  38  39
ENDBRANCH  35  38
ENDBRANCH  31  35
ENDBRANCH  27  31
ENDBRANCH  23  27
ENDBRANCH  20  23
ENDBRANCH  15  20
BRANCH  12  43
ATOM     43  C8M FMN d   1       8.230  43.013  50.982  0.00  0.00    -0.051 C 
ATOM     44  H6  FMN d   1       7.779  42.024  50.811  0.00  0.00     0.033 H 
ATOM     45  H7  FMN d   1       9.053  42.921  51.706  0.00  0.00     0.033 H 
ATOM     46  H8  FMN d   1       8.619  43.407  50.032  0.00  0.00     0.033 H 
ENDBRANCH  12  43
BRANCH  11  47
ATOM     47  C7M FMN d   1       8.872  45.907  51.537  0.00  0.00    -0.051 C 
ATOM     48  H3  FMN d   1       8.901  46.959  51.856  0.00  0.00     0.033 H 
ATOM     49  H4  FMN d   1       9.064  45.847  50.456  0.00  0.00     0.033 H 
ATOM     50  H5  FMN d   1       9.642  45.338  52.079  0.00  0.00     0.033 H 
ENDBRANCH  11  47
TORSDOF 12
