REMARK  12 active torsions:
REMARK  status: ('A' for Active; 'I' for Inactive)
REMARK    1  A    between atoms: C7_11  and  C7M_12 
REMARK    2  A    between atoms: C8_13  and  C8M_14 
REMARK    3  A    between atoms: N10_17  and  C1_19 
REMARK    4  A    between atoms: C1_19  and  C2_20 
REMARK    5  A    between atoms: C2_20  and  O2_21 
REMARK    6  A    between atoms: C2_20  and  C3_22 
REMARK    7  A    between atoms: C3_22  and  O3_23 
REMARK    8  A    between atoms: C3_22  and  C4_24 
REMARK    9  A    between atoms: C4_24  and  O4_25 
REMARK   10  A    between atoms: C4_24  and  C5_26 
REMARK   11  A    between atoms: C5_26  and  O5_27 
REMARK   12  A    between atoms: O5_27  and  P_28 
ROOT
ATOM      1  N1  FMN d   1      14.674  21.779  42.420  0.00  0.00    -0.292 N 
ATOM      2  C2  FMN d   1      15.631  21.781  43.389  0.00  0.00     0.328 A 
ATOM      3  O2  FMN d   1      16.825  21.932  43.118  0.00  0.00    -0.247 OA
ATOM      4  N3  FMN d   1      15.288  21.575  44.710  0.00  0.00    -0.273 N 
ATOM      5  C4  FMN d   1      14.012  21.323  45.134  0.00  0.00     0.280 A 
ATOM      6  O4  FMN d   1      13.826  21.130  46.311  0.00  0.00    -0.265 OA
ATOM      7  C4A FMN d   1      12.937  21.307  44.105  0.00  0.00     0.146 A 
ATOM      8  N5  FMN d   1      11.656  21.159  44.462  0.00  0.00    -0.347 N 
ATOM      9  C5A FMN d   1      10.707  21.306  43.430  0.00  0.00     0.060 A 
ATOM     10  C6  FMN d   1       9.296  21.335  43.759  0.00  0.00    -0.049 A 
ATOM     11  C7  FMN d   1       8.346  21.538  42.758  0.00  0.00    -0.054 A 
ATOM     12  C8  FMN d   1       8.756  21.641  41.385  0.00  0.00    -0.054 A 
ATOM     13  C9  FMN d   1      10.112  21.577  41.043  0.00  0.00    -0.049 A 
ATOM     14  C9A FMN d   1      11.078  21.456  42.048  0.00  0.00     0.063 A 
ATOM     15  N10 FMN d   1      12.448  21.572  41.744  0.00  0.00    -0.327 N 
ATOM     16  C10 FMN d   1      13.403  21.537  42.743  0.00  0.00     0.145 A 
ATOM     17  H1  FMN d   1      14.924  21.959  41.468  0.00  0.00     0.172 HD
ATOM     18  H2  FMN d   1      16.014  21.612  45.397  0.00  0.00     0.173 HD
ATOM     19  H3  FMN d   1      11.380  20.950  45.432  0.00  0.00     0.166 HD
ATOM     20  H4  FMN d   1       8.978  21.198  44.786  0.00  0.00     0.087 H 
ATOM     21  H11 FMN d   1      10.413  21.621  40.002  0.00  0.00     0.087 H 
ENDROOT
BRANCH  15  22
ATOM     22  C1  FMN d   1      12.833  21.806  40.351  0.00  0.00     0.028 C 
ATOM     23  H12 FMN d   1      13.813  22.306  40.347  0.00  0.00     0.069 H 
ATOM     24  H13 FMN d   1      12.081  22.467  39.895  0.00  0.00     0.069 H 
BRANCH  22  25
ATOM     25  C2  FMN d   1      12.940  20.544  39.491  0.00  0.00     0.078 C 
ATOM     26  H14 FMN d   1      11.971  20.027  39.558  0.00  0.00     0.089 H 
BRANCH  25  27
ATOM     27  O2  FMN d   1      13.943  19.609  39.910  0.00  0.00    -0.391 OA
ATOM     28  H15 FMN d   1      13.755  19.321  40.795  0.00  0.00     0.210 HD
ENDBRANCH  25  27
BRANCH  25  29
ATOM     29  C3  FMN d   1      13.168  20.927  38.038  0.00  0.00     0.088 C 
ATOM     30  H16 FMN d   1      13.942  21.709  38.033  0.00  0.00     0.091 H 
BRANCH  29  31
ATOM     31  O3  FMN d   1      11.967  21.491  37.490  0.00  0.00    -0.390 OA
ATOM     32  H17 FMN d   1      12.116  21.728  36.582  0.00  0.00     0.210 HD
ENDBRANCH  29  31
BRANCH  29  33
ATOM     33  C4  FMN d   1      13.673  19.798  37.133  0.00  0.00     0.084 C 
ATOM     34  H18 FMN d   1      14.643  19.448  37.516  0.00  0.00     0.090 H 
BRANCH  33  35
ATOM     35  O4  FMN d   1      13.854  20.294  35.803  0.00  0.00    -0.391 OA
ATOM     36  H19 FMN d   1      13.025  20.618  35.472  0.00  0.00     0.210 HD
ENDBRANCH  33  35
BRANCH  33  37
ATOM     37  C5  FMN d   1      12.697  18.619  37.129  0.00  0.00     0.059 C 
ATOM     38  H20 FMN d   1      11.736  18.931  36.694  0.00  0.00     0.079 H 
ATOM     39  H21 FMN d   1      12.536  18.264  38.157  0.00  0.00     0.079 H 
BRANCH  37  40
ATOM     40  O5  FMN d   1      13.277  17.568  36.333  0.00  0.00    -0.280 OA
BRANCH  40  41
ATOM     41  P   FMN d   1      12.411  16.301  35.801  0.00  0.00     0.422 P 
ATOM     42  O1P FMN d   1      11.738  16.597  34.548  0.00  0.00    -0.617 OA
ATOM     43  O2P FMN d   1      11.722  15.618  36.915  0.00  0.00    -0.617 OA
ATOM     44  O3P FMN d   1      13.618  15.411  35.334  0.00  0.00    -0.617 OA
ENDBRANCH  40  41
ENDBRANCH  37  40
ENDBRANCH  33  37
ENDBRANCH  29  33
ENDBRANCH  25  29
ENDBRANCH  22  25
ENDBRANCH  15  22
BRANCH  12  45
ATOM     45  C8M FMN d   1       7.771  21.830  40.260  0.00  0.00    -0.051 C 
ATOM     46  H8  FMN d   1       8.312  21.881  39.304  0.00  0.00     0.033 H 
ATOM     47  H9  FMN d   1       7.212  22.764  40.416  0.00  0.00     0.033 H 
ATOM     48  H10 FMN d   1       7.071  20.982  40.240  0.00  0.00     0.033 H 
ENDBRANCH  12  45
BRANCH  11  49
ATOM     49  C7M FMN d   1       6.879  21.648  43.123  0.00  0.00    -0.051 C 
ATOM     50  H5  FMN d   1       6.763  21.545  44.212  0.00  0.00     0.033 H 
ATOM     51  H6  FMN d   1       6.315  20.851  42.617  0.00  0.00     0.033 H 
ATOM     52  H7  FMN d   1       6.494  22.628  42.804  0.00  0.00     0.033 H 
ENDBRANCH  11  49
TORSDOF 12
