REMARK  7 active torsions:
REMARK  status: ('A' for Active; 'I' for Inactive)
REMARK    1  A    between atoms: N1_1  and  C9_10 
REMARK    2  A    between atoms: N4_4  and  C7_7 
REMARK    3  A    between atoms: C7_7  and  C8_8 
REMARK    4  A    between atoms: C8_8  and  O8_9 
REMARK    5  A    between atoms: C9_10  and  C10_11 
REMARK    6  A    between atoms: C10_11  and  S_12 
REMARK    7  A    between atoms: S_12  and  O1S_13 
ROOT
ATOM      1  N1  EPE d   1      -4.149   2.244  29.294  0.00  0.00    -0.067 N 
ATOM      2  C2  EPE d   1      -4.734   2.595  28.011  0.00  0.00     0.106 C 
ATOM      3  C3  EPE d   1      -6.029   3.387  28.302  0.00  0.00     0.106 C 
ATOM      4  N4  EPE d   1      -6.995   2.591  29.115  0.00  0.00    -0.066 N 
ATOM      5  C5  EPE d   1      -6.320   2.138  30.375  0.00  0.00     0.106 C 
ATOM      6  C6  EPE d   1      -5.037   1.362  30.078  0.00  0.00     0.106 C 
ATOM      7  H1  EPE d   1      -4.240   3.116  29.791  0.00  0.00     0.280 HD
ATOM      8  H2  EPE d   1      -4.969   1.684  27.442  0.00  0.00     0.078 H 
ATOM      9  H3  EPE d   1      -4.033   3.217  27.434  0.00  0.00     0.078 H 
ATOM     10  H4  EPE d   1      -6.504   3.656  27.347  0.00  0.00     0.078 H 
ATOM     11  H5  EPE d   1      -5.770   4.303  28.853  0.00  0.00     0.078 H 
ATOM     12  H6  EPE d   1      -7.269   1.775  28.591  0.00  0.00     0.280 HD
ATOM     13  H7  EPE d   1      -7.008   1.488  30.935  0.00  0.00     0.078 H 
ATOM     14  H8  EPE d   1      -6.071   3.020  30.984  0.00  0.00     0.078 H 
ATOM     15  H9  EPE d   1      -4.545   1.077  31.020  0.00  0.00     0.078 H 
ATOM     16  H10 EPE d   1      -5.272   0.457  29.499  0.00  0.00     0.078 H 
ENDROOT
BRANCH   1  17
ATOM     17  C9  EPE d   1      -2.710   2.033  29.420  0.00  0.00     0.097 C 
ATOM     18  H16 EPE d   1      -2.488   2.089  30.496  0.00  0.00     0.077 H 
ATOM     19  H17 EPE d   1      -2.233   2.878  28.902  0.00  0.00     0.077 H 
BRANCH  17  20
ATOM     20  C10 EPE d   1      -2.016   0.788  28.915  0.00  0.00     0.061 C 
ATOM     21  H18 EPE d   1      -2.076   0.708  27.820  0.00  0.00     0.061 H 
ATOM     22  H19 EPE d   1      -2.434  -0.121  29.372  0.00  0.00     0.061 H 
BRANCH  20  23
ATOM     23  S   EPE d   1      -0.325   1.090  29.466  0.00  0.00     0.095 S 
ATOM     24  O2S EPE d   1       0.347  -0.181  29.640  0.00  0.00    -0.601 OA
ATOM     25  O3S EPE d   1       0.290   1.903  28.427  0.00  0.00    -0.601 OA
BRANCH  23  26
ATOM     26  O1S EPE d   1      -0.412   1.864  30.739  0.00  0.00    -0.296 OA
ATOM     27  H20 EPE d   1      -0.858   2.687  30.578  0.00  0.00     0.232 HD
ENDBRANCH  23  26
ENDBRANCH  20  23
ENDBRANCH  17  20
ENDBRANCH   1  17
BRANCH   4  28
ATOM     28  C7  EPE d   1      -8.213   3.403  29.381  0.00  0.00     0.103 C 
ATOM     29  H11 EPE d   1      -8.661   3.673  28.413  0.00  0.00     0.079 H 
ATOM     30  H12 EPE d   1      -7.905   4.317  29.910  0.00  0.00     0.079 H 
BRANCH  28  31
ATOM     31  C8  EPE d   1      -9.268   2.715  30.210  0.00  0.00     0.039 C 
ATOM     32  H13 EPE d   1     -10.114   3.409  30.323  0.00  0.00     0.076 H 
ATOM     33  H14 EPE d   1      -8.834   2.501  31.198  0.00  0.00     0.076 H 
BRANCH  31  34
ATOM     34  O8  EPE d   1      -9.777   1.487  29.680  0.00  0.00    -0.399 OA
ATOM     35  H15 EPE d   1     -10.431   1.135  30.272  0.00  0.00     0.209 HD
ENDBRANCH  31  34
ENDBRANCH  28  31
ENDBRANCH   4  28
TORSDOF 7
