REMARK  3 active torsions:
REMARK  status: ('A' for Active; 'I' for Inactive)
REMARK    1  A    between atoms: C10_11  and  C19_21 
REMARK    2  A    between atoms: C13_14  and  C18_20 
REMARK    3  A    between atoms: C17_18  and  O17_19 
ROOT
ATOM      1  C1  DHT d   1      24.117  10.029  30.871  0.00  0.00    -0.051 C 
ATOM      2  C2  DHT d   1      25.617  10.208  30.707  0.00  0.00    -0.009 C 
ATOM      3  C3  DHT d   1      25.924  11.688  30.926  0.00  0.00     0.127 C 
ATOM      4  O3  DHT d   1      26.749  12.216  30.197  0.00  0.00    -0.298 OA
ATOM      5  C4  DHT d   1      25.328  12.355  32.098  0.00  0.00    -0.006 C 
ATOM      6  C5  DHT d   1      23.815  12.113  32.210  0.00  0.00    -0.041 C 
ATOM      7  C6  DHT d   1      23.168  12.812  33.411  0.00  0.00    -0.060 C 
ATOM      8  C7  DHT d   1      21.655  12.694  33.348  0.00  0.00    -0.061 C 
ATOM      9  C8  DHT d   1      21.215  11.215  33.253  0.00  0.00    -0.046 C 
ATOM     10  C9  DHT d   1      21.931  10.495  32.079  0.00  0.00    -0.043 C 
ATOM     11  C10 DHT d   1      23.482  10.586  32.152  0.00  0.00    -0.036 C 
ATOM     12  C11 DHT d   1      21.395   9.053  31.952  0.00  0.00    -0.060 C 
ATOM     13  C12 DHT d   1      19.895   8.869  31.912  0.00  0.00    -0.055 C 
ATOM     14  C13 DHT d   1      19.209   9.618  33.045  0.00  0.00    -0.014 C 
ATOM     15  C14 DHT d   1      19.714  11.076  33.065  0.00  0.00    -0.041 C 
ATOM     16  C15 DHT d   1      18.801  11.714  34.111  0.00  0.00    -0.058 C 
ATOM     17  C16 DHT d   1      17.427  11.093  33.807  0.00  0.00    -0.040 C 
ATOM     18  C17 DHT d   1      17.732   9.909  32.867  0.00  0.00     0.043 C 
ATOM     19  H1  DHT d   1      23.907   8.950  30.839  0.00  0.00     0.034 H 
ATOM     20  H2  DHT d   1      23.629  10.523  30.018  0.00  0.00     0.034 H 
ATOM     21  H3  DHT d   1      25.924   9.906  29.695  0.00  0.00     0.044 H 
ATOM     22  H4  DHT d   1      26.152   9.598  31.450  0.00  0.00     0.044 H 
ATOM     23  H5  DHT d   1      25.506  13.437  32.016  0.00  0.00     0.044 H 
ATOM     24  H6  DHT d   1      25.814  11.971  33.007  0.00  0.00     0.044 H 
ATOM     25  H7  DHT d   1      23.363  12.566  31.315  0.00  0.00     0.041 H 
ATOM     26  H8  DHT d   1      23.448  13.876  33.404  0.00  0.00     0.033 H 
ATOM     27  H9  DHT d   1      23.529  12.344  34.339  0.00  0.00     0.033 H 
ATOM     28  H10 DHT d   1      21.289  13.235  32.463  0.00  0.00     0.033 H 
ATOM     29  H11 DHT d   1      21.222  13.140  34.255  0.00  0.00     0.033 H 
ATOM     30  H12 DHT d   1      21.495  10.717  34.193  0.00  0.00     0.041 H 
ATOM     31  H13 DHT d   1      21.640  11.022  31.158  0.00  0.00     0.041 H 
ATOM     32  H14 DHT d   1      21.774   8.483  32.813  0.00  0.00     0.033 H 
ATOM     33  H15 DHT d   1      21.804   8.630  31.023  0.00  0.00     0.033 H 
ATOM     34  H16 DHT d   1      19.664   7.797  32.001  0.00  0.00     0.034 H 
ATOM     35  H17 DHT d   1      19.514   9.247  30.952  0.00  0.00     0.034 H 
ATOM     36  H18 DHT d   1      19.492  11.540  32.093  0.00  0.00     0.042 H 
ATOM     37  H19 DHT d   1      18.773  12.808  33.996  0.00  0.00     0.033 H 
ATOM     38  H20 DHT d   1      19.131  11.461  35.129  0.00  0.00     0.033 H 
ATOM     39  H21 DHT d   1      16.772  11.824  33.310  0.00  0.00     0.036 H 
ATOM     40  H22 DHT d   1      16.947  10.740  34.732  0.00  0.00     0.036 H 
ATOM     41  H23 DHT d   1      17.558  10.214  31.825  0.00  0.00     0.084 H 
ENDROOT
BRANCH  11  42
ATOM     42  C19 DHT d   1      24.006   9.879  33.424  0.00  0.00    -0.068 C 
ATOM     43  H28 DHT d   1      25.103   9.953  33.459  0.00  0.00     0.028 H 
ATOM     44  H29 DHT d   1      23.711   8.820  33.403  0.00  0.00     0.028 H 
ATOM     45  H30 DHT d   1      23.577  10.361  34.315  0.00  0.00     0.028 H 
ENDBRANCH  11  42
BRANCH  14  46
ATOM     46  C18 DHT d   1      19.469   8.936  34.412  0.00  0.00    -0.066 C 
ATOM     47  H25 DHT d   1      20.545   8.733  34.522  0.00  0.00     0.028 H 
ATOM     48  H26 DHT d   1      18.911   7.989  34.462  0.00  0.00     0.028 H 
ATOM     49  H27 DHT d   1      19.136   9.601  35.223  0.00  0.00     0.028 H 
ENDBRANCH  14  46
BRANCH  18  50
ATOM     50  O17 DHT d   1      16.863   8.809  33.148  0.00  0.00    -0.395 OA
ATOM     51  H24 DHT d   1      17.064   8.090  32.561  0.00  0.00     0.210 HD
ENDBRANCH  18  50
TORSDOF 3
