REMARK  11 active torsions:
REMARK  status: ('A' for Active; 'I' for Inactive)
REMARK    1  A    between atoms: C10_11  and  C8_8 
REMARK    2  A    between atoms: C9_9  and  C7_10 
REMARK    3  A    between atoms: C7_10  and  C13_20 
REMARK    4  A    between atoms: O2_17  and  C16_14 
REMARK    5  A    between atoms: C24_18  and  O2_17 
REMARK    6  A    between atoms: C34_38  and  C24_18 
REMARK    7  A    between atoms: C19_23  and  O3_25 
REMARK    8  A    between atoms: O3_25  and  C25_26 
REMARK    9  A    between atoms: C25_26  and  C33_37 
REMARK   10  A    between atoms: C33_37  and  N2_30 
REMARK   11  A    between atoms: N3_33  and  C34_38 
ROOT
ATOM      1  C1  BT2 d   1     -24.423 -31.407  24.221  0.00  0.00    -0.082 A 
ATOM      2  C2  BT2 d   1     -24.665 -32.417  23.081  0.00  0.00    -0.066 A 
ATOM      3  C3  BT2 d   1     -23.679 -32.608  21.990  0.00  0.00     0.016 A 
ATOM      4  C4  BT2 d   1     -22.419 -31.841  21.937  0.00  0.00    -0.011 A 
ATOM      5  C5  BT2 d   1     -22.177 -30.835  22.960  0.00  0.00    -0.071 A 
ATOM      6  C6  BT2 d   1     -23.153 -30.566  24.133  0.00  0.00    -0.082 A 
ATOM      7  S1  BT2 d   1     -23.647 -33.800  20.824  0.00  0.00    -0.088 SA
ATOM      8  C8  BT2 d   1     -22.088 -33.452  20.154  0.00  0.00     0.023 A 
ATOM      9  C9  BT2 d   1     -21.532 -32.350  20.890  0.00  0.00    -0.024 A 
ATOM     10  H1  BT2 d   1     -25.120 -31.300  25.044  0.00  0.00     0.083 H 
ATOM     11  H2  BT2 d   1     -25.578 -33.001  23.077  0.00  0.00     0.085 H 
ATOM     12  H3  BT2 d   1     -21.270 -30.245  22.898  0.00  0.00     0.084 H 
ATOM     13  H4  BT2 d   1     -22.939 -29.801  24.871  0.00  0.00     0.083 H 
ENDROOT
BRANCH   9  14
ATOM     14  C7  BT2 d   1     -20.033 -31.889  20.721  0.00  0.00    -0.015 C 
ATOM     15  H5  BT2 d   1     -19.947 -30.893  21.181  0.00  0.00     0.047 H 
ATOM     16  H6  BT2 d   1     -19.838 -31.812  19.641  0.00  0.00     0.047 H 
BRANCH  14  17
ATOM     17  C13 BT2 d   1     -18.890 -32.784  21.336  0.00  0.00    -0.054 C 
ATOM     18  C11 BT2 d   1     -19.082 -34.127  22.000  0.00  0.00    -0.074 C 
ATOM     19  C21 BT2 d   1     -17.920 -34.949  22.497  0.00  0.00    -0.050 C 
ATOM     20  H13 BT2 d   1     -20.088 -34.512  22.123  0.00  0.00     0.084 H 
ATOM     21  C19 BT2 d   1     -16.477 -34.532  22.293  0.00  0.00     0.068 C 
ATOM     22  H16 BT2 d   1     -18.125 -35.875  23.021  0.00  0.00     0.087 H 
ATOM     23  C32 BT2 d   1     -16.242 -33.129  21.723  0.00  0.00    -0.050 C 
ATOM     24  C15 BT2 d   1     -17.442 -32.293  21.236  0.00  0.00    -0.074 C 
ATOM     25  H15 BT2 d   1     -15.237 -32.727  21.663  0.00  0.00     0.087 H 
ATOM     26  H14 BT2 d   1     -17.253 -31.317  20.805  0.00  0.00     0.084 H 
BRANCH  21  27
ATOM     27  O3  BT2 d   1     -15.451 -35.462  22.497  0.00  0.00    -0.350 OA
BRANCH  27  28
ATOM     28  C25 BT2 d   1     -15.498 -36.317  23.687  0.00  0.00     0.049 C 
ATOM     29  H17 BT2 d   1     -15.764 -37.334  23.364  0.00  0.00     0.077 H 
ATOM     30  H18 BT2 d   1     -16.281 -35.928  24.354  0.00  0.00     0.077 H 
BRANCH  28  31
ATOM     31  C33 BT2 d   1     -14.186 -36.401  24.491  0.00  0.00     0.103 C 
ATOM     32  H37 BT2 d   1     -13.336 -36.325  23.797  0.00  0.00     0.079 H 
ATOM     33  H38 BT2 d   1     -14.148 -37.368  25.013  0.00  0.00     0.079 H 
BRANCH  31  34
ATOM     34  N2  BT2 d   1     -14.091 -35.305  25.495  0.00  0.00    -0.069 N 
ATOM     35  C26 BT2 d   1     -13.544 -33.974  24.971  0.00  0.00     0.084 C 
ATOM     36  C23 BT2 d   1     -13.374 -33.164  26.240  0.00  0.00    -0.041 C 
ATOM     37  H23 BT2 d   1     -12.581 -34.115  24.458  0.00  0.00     0.076 H 
ATOM     38  H24 BT2 d   1     -14.258 -33.493  24.286  0.00  0.00     0.076 H 
ATOM     39  C17 BT2 d   1     -13.688 -34.042  27.453  0.00  0.00    -0.041 C 
ATOM     40  H21 BT2 d   1     -12.337 -32.803  26.308  0.00  0.00     0.035 H 
ATOM     41  H22 BT2 d   1     -14.061 -32.305  26.221  0.00  0.00     0.035 H 
ATOM     42  C27 BT2 d   1     -14.085 -35.463  26.990  0.00  0.00     0.084 C 
ATOM     43  H19 BT2 d   1     -14.520 -33.598  28.018  0.00  0.00     0.035 H 
ATOM     44  H20 BT2 d   1     -12.799 -34.104  28.097  0.00  0.00     0.035 H 
ATOM     45  H26 BT2 d   1     -15.079 -35.745  27.367  0.00  0.00     0.076 H 
ATOM     46  H27 BT2 d   1     -13.345 -36.211  27.311  0.00  0.00     0.076 H 
ATOM     47  H25 BT2 d   1     -15.068 -35.062  25.442  0.00  0.00     0.280 HD
ENDBRANCH  31  34
ENDBRANCH  28  31
ENDBRANCH  27  28
ENDBRANCH  21  27
ENDBRANCH  14  17
ENDBRANCH   9  14
BRANCH   8  48
ATOM     48  C10 BT2 d   1     -21.426 -34.130  18.955  0.00  0.00    -0.018 A 
ATOM     49  C12 BT2 d   1     -20.673 -33.405  17.861  0.00  0.00    -0.069 A 
ATOM     50  C14 BT2 d   1     -19.873 -34.118  16.758  0.00  0.00    -0.050 A 
ATOM     51  H7  BT2 d   1     -20.699 -32.321  17.854  0.00  0.00     0.085 H 
ATOM     52  C16 BT2 d   1     -19.862 -35.642  16.760  0.00  0.00     0.068 A 
ATOM     53  H8  BT2 d   1     -19.335 -33.555  16.004  0.00  0.00     0.087 H 
ATOM     54  C18 BT2 d   1     -20.600 -36.364  17.907  0.00  0.00    -0.050 A 
ATOM     55  C20 BT2 d   1     -21.385 -35.592  18.953  0.00  0.00    -0.069 A 
ATOM     56  H9  BT2 d   1     -20.557 -37.446  17.967  0.00  0.00     0.087 H 
ATOM     57  H10 BT2 d   1     -21.928 -36.138  19.716  0.00  0.00     0.085 H 
BRANCH  52  58
ATOM     58  O2  BT2 d   1     -19.278 -36.329  15.679  0.00  0.00    -0.350 OA
BRANCH  58  59
ATOM     59  C24 BT2 d   1     -19.740 -37.738  15.447  0.00  0.00     0.049 C 
ATOM     60  H11 BT2 d   1     -20.729 -37.691  14.967  0.00  0.00     0.077 H 
ATOM     61  H12 BT2 d   1     -19.832 -38.226  16.429  0.00  0.00     0.077 H 
BRANCH  59  62
ATOM     62  C34 BT2 d   1     -18.837 -38.619  14.571  0.00  0.00     0.103 C 
ATOM     63  H39 BT2 d   1     -18.610 -38.049  13.658  0.00  0.00     0.079 H 
ATOM     64  H40 BT2 d   1     -19.413 -39.519  14.308  0.00  0.00     0.079 H 
BRANCH  62  65
ATOM     65  N3  BT2 d   1     -17.519 -39.081  15.153  0.00  0.00    -0.069 N 
ATOM     66  C22 BT2 d   1     -16.582 -39.715  14.110  0.00  0.00     0.084 C 
ATOM     67  C30 BT2 d   1     -16.740 -41.204  14.432  0.00  0.00    -0.041 C 
ATOM     68  H28 BT2 d   1     -15.543 -39.381  14.246  0.00  0.00     0.076 H 
ATOM     69  H29 BT2 d   1     -16.908 -39.488  13.084  0.00  0.00     0.076 H 
ATOM     70  C29 BT2 d   1     -17.329 -41.350  15.845  0.00  0.00    -0.041 C 
ATOM     71  H35 BT2 d   1     -15.758 -41.697  14.389  0.00  0.00     0.035 H 
ATOM     72  H36 BT2 d   1     -17.416 -41.670  13.700  0.00  0.00     0.035 H 
ATOM     73  C28 BT2 d   1     -17.798 -39.978  16.355  0.00  0.00     0.084 C 
ATOM     74  H33 BT2 d   1     -18.184 -42.041  15.815  0.00  0.00     0.035 H 
ATOM     75  H34 BT2 d   1     -16.559 -41.748  16.523  0.00  0.00     0.035 H 
ATOM     76  H31 BT2 d   1     -18.869 -39.989  16.605  0.00  0.00     0.076 H 
ATOM     77  H32 BT2 d   1     -17.219 -39.659  17.235  0.00  0.00     0.076 H 
ATOM     78  H30 BT2 d   1     -17.043 -38.262  15.498  0.00  0.00     0.280 HD
ENDBRANCH  62  65
ENDBRANCH  59  62
ENDBRANCH  58  59
ENDBRANCH  52  58
ENDBRANCH   8  48
TORSDOF 11
