REMARK WARNING: 32 MAX_TORS EXCEEDED!!!
REMARK  58 active torsions:
REMARK  status: ('A' for Active; 'I' for Inactive)
REMARK    1  A    between atoms: N_1  and  CA_2 
REMARK    2  A    between atoms: CA_2  and  C_3 
REMARK    3  A    between atoms: CA_2  and  CB_5 
REMARK       I    between atoms: C_3  and  N_10 
REMARK    4  A    between atoms: CB_5  and  CG_6 
REMARK    5  A    between atoms: CG_6  and  CD_7 
REMARK    6  A    between atoms: CD_7  and  CE_8 
REMARK    7  A    between atoms: CE_8  and  NZ_9 
REMARK    8  A    between atoms: N_10  and  CA_11 
REMARK    9  A    between atoms: CA_11  and  C_12 
REMARK   10  A    between atoms: CA_11  and  CB_14 
REMARK       I    between atoms: C_12  and  N_16 
REMARK   11  A    between atoms: CB_14  and  OG_15 
REMARK   12  A    between atoms: N_16  and  CA_17 
REMARK   13  A    between atoms: CA_17  and  C_18 
REMARK   14  A    between atoms: CA_17  and  CB_20 
REMARK       I    between atoms: C_18  and  N_24 
REMARK   15  A    between atoms: CB_20  and  CG_21 
REMARK   16  A    between atoms: CG_21  and  CD1_22 
REMARK   17  A    between atoms: CG_21  and  CD2_23 
REMARK   18  A    between atoms: N_24  and  CA_25 
REMARK   19  A    between atoms: CA_25  and  C_26 
REMARK   20  A    between atoms: CA_25  and  CB_28 
REMARK       I    between atoms: C_26  and  N_31 
REMARK   21  A    between atoms: CB_28  and  OG1_29 
REMARK   22  A    between atoms: CB_28  and  CG2_30 
REMARK   23  A    between atoms: N_31  and  CA_32 
REMARK   24  A    between atoms: CA_32  and  C_33 
REMARK   25  A    between atoms: CA_32  and  CB_35 
REMARK       I    between atoms: C_33  and  N_39 
REMARK   26  A    between atoms: CB_35  and  CG1_36 
REMARK   27  A    between atoms: CB_35  and  CG2_37 
REMARK   28  A    between atoms: CG1_36  and  CD1_38 
REMARK   29  A    between atoms: N_39  and  CA_40 
REMARK   30  A    between atoms: CA_40  and  C_41 
REMARK   31  A    between atoms: CA_40  and  CB_43 
REMARK       I    between atoms: C_41  and  N_51 
REMARK   32  A    between atoms: CB_43  and  CG_44 
REMARK   33  A    between atoms: CZ_49  and  OH_50 
REMARK   34  A    between atoms: N_51  and  CA_52 
REMARK   35  A    between atoms: CA_52  and  C_53 
REMARK   36  A    between atoms: CA_52  and  CB_55 
REMARK       I    between atoms: C_53  and  N_56 
REMARK   37  A    between atoms: N_56  and  CA_57 
REMARK   38  A    between atoms: CA_57  and  C_58 
REMARK   39  A    between atoms: CA_57  and  CB_60 
REMARK       I    between atoms: C_58  and  N_65 
REMARK   40  A    between atoms: CB_60  and  CG_61 
REMARK   41  A    between atoms: CG_61  and  CD_62 
REMARK       I    between atoms: CD_62  and  NE2_64 
REMARK   42  A    between atoms: N_65  and  CA_66 
REMARK   43  A    between atoms: CA_66  and  C_67 
REMARK   44  A    between atoms: CA_66  and  CB_69 
REMARK       I    between atoms: C_67  and  N_72 
REMARK   45  A    between atoms: CB_69  and  CG1_70 
REMARK   46  A    between atoms: CB_69  and  CG2_71 
REMARK   47  A    between atoms: N_72  and  CA_73 
REMARK   48  A    between atoms: CA_73  and  C_74 
REMARK   49  A    between atoms: CA_73  and  CB_76 
REMARK       I    between atoms: C_74  and  N_81 
REMARK   50  A    between atoms: CB_76  and  CG_77 
REMARK   51  A    between atoms: CG_77  and  CD_78 
REMARK       I    between atoms: CD_78  and  NE2_80 
REMARK   52  A    between atoms: N_81  and  CA_82 
REMARK   53  A    between atoms: CA_82  and  C_83 
REMARK   54  A    between atoms: CA_82  and  CB_85 
REMARK   55  A    between atoms: CB_85  and  CG_86 
REMARK   56  A    between atoms: CG_86  and  CD_87 
REMARK   57  A    between atoms: CD_87  and  CE_88 
REMARK   58  A    between atoms: CE_88  and  NZ_89 
ROOT
ATOM      1  CA  TYR d   1      12.918  -4.104   7.622  0.00  0.00     0.093 C 
ATOM      2  H51 TYR d   1      12.130  -3.825   8.337  0.00  0.00     0.088 H 
ENDROOT
BRANCH   1   3
ATOM      3  N   TYR d   1      13.017  -5.563   7.612  0.00  0.00    -0.346 N 
ATOM      4  C   ILE d   1      11.929  -6.297   7.452  0.00  0.00     0.241 C 
ATOM      5  O   ILE d   1      10.802  -5.815   7.480  0.00  0.00    -0.271 OA
ATOM      6  H50 TYR d   1      13.907  -6.005   7.726  0.00  0.00     0.163 HD
BRANCH   4   7
ATOM      7  CA  ILE d   1      12.101  -7.808   7.306  0.00  0.00     0.092 C 
ATOM      8  H40 ILE d   1      13.161  -8.036   7.121  0.00  0.00     0.088 H 
BRANCH   7   9
ATOM      9  N   ILE d   1      11.699  -8.402   8.572  0.00  0.00    -0.346 N 
ATOM     10  C   THR d   1      12.501  -9.102   9.356  0.00  0.00     0.243 C 
ATOM     11  O   THR d   1      13.671  -9.407   9.078  0.00  0.00    -0.271 OA
ATOM     12  H39 ILE d   1      10.753  -8.272   8.869  0.00  0.00     0.163 HD
BRANCH  10  13
ATOM     13  CA  THR d   1      11.888  -9.580  10.658  0.00  0.00     0.113 C 
ATOM     14  H33 THR d   1      10.804  -9.393  10.638  0.00  0.00     0.091 H 
BRANCH  13  15
ATOM     15  N   THR d   1      12.124 -11.019  10.844  0.00  0.00    -0.344 N 
ATOM     16  C   LEU d   1      11.240 -11.932  10.544  0.00  0.00     0.241 C 
ATOM     17  O   LEU d   1      10.118 -11.639  10.140  0.00  0.00    -0.271 OA
ATOM     18  H32 THR d   1      13.004 -11.313  11.218  0.00  0.00     0.163 HD
BRANCH  16  19
ATOM     19  CA  LEU d   1      11.645 -13.391  10.746  0.00  0.00     0.089 C 
ATOM     20  H22 LEU d   1      11.563 -13.905   9.777  0.00  0.00     0.087 H 
BRANCH  19  21
ATOM     21  N   LEU d   1      13.003 -13.579  11.217  0.00  0.00    -0.346 N 
ATOM     22  C   SER d   1      13.999 -13.675  10.344  0.00  0.00     0.243 C 
ATOM     23  O   SER d   1      13.830 -13.739   9.141  0.00  0.00    -0.271 OA
ATOM     24  H21 LEU d   1      13.190 -13.636  12.198  0.00  0.00     0.163 HD
BRANCH  22  25
ATOM     25  CA  SER d   1      15.395 -13.654  10.977  0.00  0.00     0.109 C 
ATOM     26  H17 SER d   1      15.326 -13.958  12.032  0.00  0.00     0.090 H 
BRANCH  25  27
ATOM     27  N   SER d   1      16.260 -14.575  10.244  0.00  0.00    -0.344 N 
ATOM     28  C   LYS d   1      16.382 -15.831  10.579  0.00  0.00     0.249 C 
ATOM     29  O   LYS d   1      16.068 -16.177  11.713  0.00  0.00    -0.271 OA
ATOM     30  H16 SER d   1      16.776 -14.232   9.459  0.00  0.00     0.163 HD
BRANCH  28  31
ATOM     31  CA  LYS d   1      16.909 -16.870   9.574  0.00  0.00     0.176 C 
ATOM     32  H4  LYS d   1      16.068 -17.538   9.337  0.00  0.00     0.099 H 
BRANCH  31  33
ATOM     33  N   LYS d   1      17.305 -16.248   8.312  0.00  0.00    -0.067 N 
ATOM     34  H1  LYS d   1      17.644 -16.956   7.680  0.00  0.00     0.275 HD
ATOM     35  H2  LYS d   1      18.035 -15.574   8.484  0.00  0.00     0.275 HD
ATOM     36  H3  LYS d   1      16.509 -15.784   7.902  0.00  0.00     0.275 HD
ENDBRANCH  31  33
BRANCH  31  37
ATOM     37  CB  LYS d   1      17.973 -17.732  10.193  0.00  0.00    -0.030 C 
ATOM     38  H5  LYS d   1      17.846 -18.693   9.674  0.00  0.00     0.036 H 
ATOM     39  H6  LYS d   1      17.636 -17.831  11.235  0.00  0.00     0.036 H 
BRANCH  37  40
ATOM     40  CG  LYS d   1      19.425 -17.620  10.326  0.00  0.00    -0.061 C 
ATOM     41  H7  LYS d   1      19.784 -18.614  10.632  0.00  0.00     0.033 H 
ATOM     42  H8  LYS d   1      19.605 -16.899  11.137  0.00  0.00     0.033 H 
BRANCH  40  43
ATOM     43  CD  LYS d   1      20.280 -17.201   9.204  0.00  0.00    -0.043 C 
ATOM     44  H9  LYS d   1      20.398 -16.108   9.252  0.00  0.00     0.035 H 
ATOM     45  H10 LYS d   1      19.773 -17.474   8.266  0.00  0.00     0.035 H 
BRANCH  43  46
ATOM     46  CE  LYS d   1      21.646 -17.819   9.194  0.00  0.00     0.080 C 
ATOM     47  H11 LYS d   1      21.734 -18.506   8.339  0.00  0.00     0.075 H 
ATOM     48  H12 LYS d   1      21.806 -18.376  10.129  0.00  0.00     0.075 H 
BRANCH  46  49
ATOM     49  NZ  LYS d   1      22.672 -16.734   9.074  0.00  0.00    -0.079 N 
ATOM     50  H13 LYS d   1      23.593 -17.142   9.067  0.00  0.00     0.274 HD
ATOM     51  H14 LYS d   1      22.589 -16.105   9.857  0.00  0.00     0.274 HD
ATOM     52  H15 LYS d   1      22.523 -16.224   8.217  0.00  0.00     0.274 HD
ENDBRANCH  46  49
ENDBRANCH  43  46
ENDBRANCH  40  43
ENDBRANCH  37  40
ENDBRANCH  31  37
ENDBRANCH  28  31
ENDBRANCH  25  27
BRANCH  25  53
ATOM     53  CB  SER d   1      15.997 -12.283  10.883  0.00  0.00     0.044 C 
ATOM     54  H18 SER d   1      16.351 -12.115   9.855  0.00  0.00     0.077 H 
ATOM     55  H19 SER d   1      16.846 -12.214  11.579  0.00  0.00     0.077 H 
BRANCH  53  56
ATOM     56  OG  SER d   1      15.077 -11.320  11.203  0.00  0.00    -0.398 OA
ATOM     57  H20 SER d   1      14.343 -11.373  10.602  0.00  0.00     0.209 HD
ENDBRANCH  53  56
ENDBRANCH  25  53
ENDBRANCH  22  25
ENDBRANCH  19  21
BRANCH  19  58
ATOM     58  CB  LEU d   1      10.621 -14.010  11.721  0.00  0.00    -0.035 C 
ATOM     59  H23 LEU d   1       9.600 -13.816  11.362  0.00  0.00     0.037 H 
ATOM     60  H24 LEU d   1      10.747 -13.572  12.722  0.00  0.00     0.037 H 
BRANCH  58  61
ATOM     61  CG  LEU d   1      10.887 -15.612  11.784  0.00  0.00    -0.059 C 
ATOM     62  H25 LEU d   1      11.896 -15.890  12.121  0.00  0.00     0.038 H 
BRANCH  61  63
ATOM     63  CD1 LEU d   1       9.743 -16.058  12.768  0.00  0.00    -0.073 C 
ATOM     64  H26 LEU d   1       9.791 -17.147  12.916  0.00  0.00     0.028 H 
ATOM     65  H27 LEU d   1       8.766 -15.789  12.340  0.00  0.00     0.028 H 
ATOM     66  H28 LEU d   1       9.873 -15.550  13.735  0.00  0.00     0.028 H 
ENDBRANCH  61  63
BRANCH  61  67
ATOM     67  CD2 LEU d   1      10.513 -16.229  10.192  0.00  0.00    -0.073 C 
ATOM     68  H29 LEU d   1      11.302 -15.928   9.487  0.00  0.00     0.028 H 
ATOM     69  H30 LEU d   1       9.548 -15.821   9.858  0.00  0.00     0.028 H 
ATOM     70  H31 LEU d   1      10.454 -17.327  10.229  0.00  0.00     0.028 H 
ENDBRANCH  61  67
ENDBRANCH  58  61
ENDBRANCH  19  58
ENDBRANCH  16  19
ENDBRANCH  13  15
BRANCH  13  71
ATOM     71  CB  THR d   1      12.517  -8.801  11.813  0.00  0.00     0.060 C 
ATOM     72  H34 THR d   1      13.514  -9.227  11.999  0.00  0.00     0.086 H 
BRANCH  71  73
ATOM     73  OG1 THR d   1      11.721  -8.935  12.994  0.00  0.00    -0.393 OA
ATOM     74  H35 THR d   1      11.663  -9.853  13.233  0.00  0.00     0.210 HD
ENDBRANCH  71  73
BRANCH  71  75
ATOM     75  CG2 THR d   1      12.676  -7.301  11.552  0.00  0.00    -0.050 C 
ATOM     76  H36 THR d   1      13.134  -6.822  12.430  0.00  0.00     0.031 H 
ATOM     77  H37 THR d   1      11.688  -6.855  11.365  0.00  0.00     0.031 H 
ATOM     78  H38 THR d   1      13.320  -7.148  10.674  0.00  0.00     0.031 H 
ENDBRANCH  71  75
ENDBRANCH  13  71
ENDBRANCH  10  13
ENDBRANCH   7   9
BRANCH   7  79
ATOM     79  CB  ILE d   1      11.283  -8.353   6.135  0.00  0.00    -0.030 C 
ATOM     80  H41 ILE d   1      10.222  -8.147   6.337  0.00  0.00     0.043 H 
BRANCH  79  81
ATOM     81  CG1 ILE d   1      11.443  -9.854   5.977  0.00  0.00    -0.063 C 
ATOM     82  H42 ILE d   1      11.188 -10.315   6.943  0.00  0.00     0.033 H 
ATOM     83  H43 ILE d   1      12.500 -10.049   5.745  0.00  0.00     0.033 H 
BRANCH  81  84
ATOM     84  CD1 ILE d   1      10.627 -10.530   4.933  0.00  0.00    -0.076 C 
ATOM     85  H47 ILE d   1      10.848 -11.608   4.936  0.00  0.00     0.027 H 
ATOM     86  H48 ILE d   1      10.871 -10.108   3.947  0.00  0.00     0.027 H 
ATOM     87  H49 ILE d   1       9.559 -10.374   5.144  0.00  0.00     0.027 H 
ENDBRANCH  81  84
ENDBRANCH  79  81
BRANCH  79  88
ATOM     88  CG2 ILE d   1      11.674  -7.630   4.848  0.00  0.00    -0.071 C 
ATOM     89  H44 ILE d   1      11.551  -6.545   4.985  0.00  0.00     0.028 H 
ATOM     90  H45 ILE d   1      11.029  -7.971   4.025  0.00  0.00     0.028 H 
ATOM     91  H46 ILE d   1      12.724  -7.852   4.607  0.00  0.00     0.028 H 
ENDBRANCH  79  88
ENDBRANCH   7  79
ENDBRANCH   4   7
ENDBRANCH   1   3
BRANCH   1  92
ATOM     92  C   TYR d   1      12.476  -3.631   6.240  0.00  0.00     0.241 C 
ATOM     93  O   TYR d   1      13.016  -4.065   5.216  0.00  0.00    -0.271 OA
ATOM     94  N   ALA d   1      11.500  -2.767   6.208  0.00  0.00    -0.346 N 
ATOM     95  H59 ALA d   1      11.211  -2.341   7.065  0.00  0.00     0.163 HD
BRANCH  94  96
ATOM     96  CA  ALA d   1      10.815  -2.397   4.984  0.00  0.00     0.086 C 
ATOM     97  H60 ALA d   1      11.443  -2.665   4.122  0.00  0.00     0.086 H 
BRANCH  96  98
ATOM     98  C   ALA d   1      10.577  -0.889   4.965  0.00  0.00     0.240 C 
ATOM     99  O   ALA d   1      10.663  -0.156   5.937  0.00  0.00    -0.271 OA
ATOM    100  N   GLN d   1      10.269  -0.425   3.742  0.00  0.00    -0.346 N 
ATOM    101  H64 GLN d   1      10.217  -1.074   2.983  0.00  0.00     0.163 HD
BRANCH 100 102
ATOM    102  CA  GLN d   1      10.010   0.967   3.478  0.00  0.00     0.090 C 
ATOM    103  H65 GLN d   1      10.023   1.525   4.426  0.00  0.00     0.087 H 
BRANCH 102 104
ATOM    104  C   GLN d   1       8.639   1.094   2.828  0.00  0.00     0.241 C 
ATOM    105  O   GLN d   1       8.216   0.252   2.070  0.00  0.00    -0.271 OA
ATOM    106  N   VAL d   1       7.978   2.214   3.123  0.00  0.00    -0.346 N 
ATOM    107  H72 VAL d   1       8.370   2.848   3.790  0.00  0.00     0.163 HD
BRANCH 106 108
ATOM    108  CA  VAL d   1       6.697   2.542   2.500  0.00  0.00     0.092 C 
ATOM    109  H73 VAL d   1       6.024   1.678   2.600  0.00  0.00     0.088 H 
BRANCH 108 110
ATOM    110  C   VAL d   1       6.935   2.799   1.006  0.00  0.00     0.241 C 
ATOM    111  O   VAL d   1       7.829   3.557   0.649  0.00  0.00    -0.271 OA
ATOM    112  N   GLN d   1       6.123   2.178   0.168  0.00  0.00    -0.346 N 
ATOM    113  H81 GLN d   1       5.314   1.720   0.537  0.00  0.00     0.163 HD
BRANCH 112 114
ATOM    114  CA  GLN d   1       6.353   2.131  -1.263  0.00  0.00     0.090 C 
ATOM    115  H82 GLN d   1       7.405   2.396  -1.445  0.00  0.00     0.087 H 
BRANCH 114 116
ATOM    116  C   GLN d   1       5.495   3.068  -2.067  0.00  0.00     0.241 C 
ATOM    117  O   GLN d   1       5.747   3.166  -3.297  0.00  0.00    -0.271 OA
ATOM    118  N   LYS d   1       4.495   3.731  -1.499  0.00  0.00    -0.345 N 
ATOM    119  H89 LYS d   1       4.368   3.585  -0.518  0.00  0.00     0.163 HD
BRANCH 118 120
ATOM    120  CA  LYS d   1       3.568   4.640  -2.137  0.00  0.00     0.096 C 
ATOM    121  H90 LYS d   1       4.026   4.993  -3.073  0.00  0.00     0.089 H 
BRANCH 120 122
ATOM    122  C   LYS d   1       3.273   5.840  -1.247  0.00  0.00     0.196 C 
ATOM    123  O   LYS d   1       3.623   5.771  -0.063  0.00  0.00    -0.646 OA
ATOM    124  OXT LYS d   1       2.660   6.795  -1.771  0.00  0.00    -0.646 OA
ENDBRANCH 120 122
BRANCH 120 125
ATOM    125  CB  LYS d   1       2.200   3.947  -2.474  0.00  0.00    -0.037 C 
ATOM    126  H91 LYS d   1       1.638   4.617  -3.141  0.00  0.00     0.036 H 
ATOM    127  H92 LYS d   1       1.646   3.818  -1.532  0.00  0.00     0.036 H 
BRANCH 125 128
ATOM    128  CG  LYS d   1       2.294   2.613  -3.137  0.00  0.00    -0.061 C 
ATOM    129  H93 LYS d   1       2.891   1.955  -2.489  0.00  0.00     0.033 H 
ATOM    130  H94 LYS d   1       2.811   2.749  -4.098  0.00  0.00     0.033 H 
BRANCH 128 131
ATOM    131  CD  LYS d   1       0.993   1.933  -3.408  0.00  0.00    -0.043 C 
ATOM    132  H95 LYS d   1       0.627   1.517  -2.458  0.00  0.00     0.035 H 
ATOM    133  H96 LYS d   1       1.183   1.114  -4.117  0.00  0.00     0.035 H 
BRANCH 131 134
ATOM    134  CE  LYS d   1      -0.084   2.785  -3.976  0.00  0.00     0.080 C 
ATOM    135  H97 LYS d   1      -0.132   3.729  -3.413  0.00  0.00     0.075 H 
ATOM    136  H98 LYS d   1      -1.045   2.257  -3.889  0.00  0.00     0.075 H 
BRANCH 134 137
ATOM    137  NZ  LYS d   1       0.178   3.081  -5.393  0.00  0.00    -0.079 N 
ATOM    138  H99 LYS d   1      -0.563   3.659  -5.758  0.00  0.00     0.274 HD
ATOM    139 0H10 LYS d   1       0.220   2.219  -5.914  0.00  0.00     0.274 HD
ATOM    140 1H10 LYS d   1       1.056   3.568  -5.478  0.00  0.00     0.274 HD
ENDBRANCH 134 137
ENDBRANCH 131 134
ENDBRANCH 128 131
ENDBRANCH 125 128
ENDBRANCH 120 125
ENDBRANCH 118 120
ENDBRANCH 114 116
BRANCH 114 141
ATOM    141  CB  GLN d   1       6.103   0.687  -1.755  0.00  0.00    -0.030 C 
ATOM    142  H83 GLN d   1       6.208   0.666  -2.850  0.00  0.00     0.037 H 
ATOM    143  H84 GLN d   1       5.079   0.395  -1.479  0.00  0.00     0.037 H 
BRANCH 141 144
ATOM    144  CG  GLN d   1       7.074  -0.321  -1.155  0.00  0.00     0.011 C 
ATOM    145  H85 GLN d   1       6.778  -1.332  -1.471  0.00  0.00     0.047 H 
ATOM    146  H86 GLN d   1       7.027  -0.251  -0.058  0.00  0.00     0.047 H 
BRANCH 144 147
ATOM    147  CD  GLN d   1       8.503  -0.064  -1.603  0.00  0.00     0.215 C 
ATOM    148  OE1 GLN d   1       8.735   0.137  -2.808  0.00  0.00    -0.274 OA
ATOM    149  NE2 GLN d   1       9.404  -0.080  -0.642  0.00  0.00    -0.370 N 
ATOM    150  H87 GLN d   1      10.367   0.081  -0.857  0.00  0.00     0.159 HD
ATOM    151  H88 GLN d   1       9.125  -0.253   0.302  0.00  0.00     0.159 HD
ENDBRANCH 144 147
ENDBRANCH 141 144
ENDBRANCH 114 141
ENDBRANCH 112 114
ENDBRANCH 108 110
BRANCH 108 152
ATOM    152  CB  VAL d   1       6.033   3.748   3.215  0.00  0.00    -0.033 C 
ATOM    153  H74 VAL d   1       6.731   4.597   3.159  0.00  0.00     0.042 H 
BRANCH 152 154
ATOM    154  CG1 VAL d   1       4.753   4.137   2.530  0.00  0.00    -0.071 C 
ATOM    155  H75 VAL d   1       4.302   4.992   3.054  0.00  0.00     0.028 H 
ATOM    156  H76 VAL d   1       4.055   3.287   2.547  0.00  0.00     0.028 H 
ATOM    157  H77 VAL d   1       4.965   4.416   1.488  0.00  0.00     0.028 H 
ENDBRANCH 152 154
BRANCH 152 158
ATOM    158  CG2 VAL d   1       5.740   3.468   4.694  0.00  0.00    -0.071 C 
ATOM    159  H78 VAL d   1       6.671   3.182   5.205  0.00  0.00     0.028 H 
ATOM    160  H79 VAL d   1       5.011   2.648   4.775  0.00  0.00     0.028 H 
ATOM    161  H80 VAL d   1       5.327   4.373   5.164  0.00  0.00     0.028 H 
ENDBRANCH 152 158
ENDBRANCH 108 152
ENDBRANCH 106 108
ENDBRANCH 102 104
BRANCH 102 162
ATOM    162  CB  GLN d   1      11.074   1.558   2.526  0.00  0.00    -0.030 C 
ATOM    163  H66 GLN d   1      10.911   2.643   2.451  0.00  0.00     0.037 H 
ATOM    164  H67 GLN d   1      10.948   1.099   1.534  0.00  0.00     0.037 H 
BRANCH 162 165
ATOM    165  CG  GLN d   1      12.509   1.315   2.994  0.00  0.00     0.011 C 
ATOM    166  H68 GLN d   1      12.683   0.229   3.013  0.00  0.00     0.047 H 
ATOM    167  H69 GLN d   1      12.610   1.720   4.012  0.00  0.00     0.047 H 
BRANCH 165 168
ATOM    168  CD  GLN d   1      13.580   1.949   2.126  0.00  0.00     0.215 C 
ATOM    169  OE1 GLN d   1      13.546   1.808   0.885  0.00  0.00    -0.274 OA
ATOM    170  NE2 GLN d   1      14.539   2.665   2.700  0.00  0.00    -0.370 N 
ATOM    171  H70 GLN d   1      15.251   3.088   2.139  0.00  0.00     0.159 HD
ATOM    172  H71 GLN d   1      14.550   2.781   3.693  0.00  0.00     0.159 HD
ENDBRANCH 165 168
ENDBRANCH 162 165
ENDBRANCH 102 162
ENDBRANCH 100 102
ENDBRANCH  96  98
BRANCH  96 173
ATOM    173  CB  ALA d   1       9.496  -3.180   4.899  0.00  0.00    -0.049 C 
ATOM    174  H61 ALA d   1       8.967  -2.908   3.974  0.00  0.00     0.030 H 
ATOM    175  H62 ALA d   1       8.867  -2.934   5.767  0.00  0.00     0.030 H 
ATOM    176  H63 ALA d   1       9.710  -4.259   4.895  0.00  0.00     0.030 H 
ENDBRANCH  96 173
ENDBRANCH  94  96
ENDBRANCH   1  92
BRANCH   1 177
ATOM    177  CB  TYR d   1      14.242  -3.422   8.111  0.00  0.00    -0.014 C 
ATOM    178  H52 TYR d   1      14.210  -2.345   7.892  0.00  0.00     0.043 H 
ATOM    179  H53 TYR d   1      15.105  -3.874   7.601  0.00  0.00     0.043 H 
BRANCH 177 180
ATOM    180  CG  TYR d   1      14.359  -3.643   9.634  0.00  0.00    -0.056 A 
ATOM    181  CD1 TYR d   1      15.128  -4.632  10.167  0.00  0.00    -0.074 A 
ATOM    182  CE1 TYR d   1      15.185  -4.790  11.579  0.00  0.00    -0.051 A 
ATOM    183  H54 TYR d   1      15.692  -5.294   9.520  0.00  0.00     0.084 H 
ATOM    184  CZ  TYR d   1      14.427  -3.954  12.373  0.00  0.00     0.065 A 
ATOM    185  H56 TYR d   1      15.813  -5.554  12.024  0.00  0.00     0.087 H 
ATOM    186  CE2 TYR d   1      13.646  -2.973  11.857  0.00  0.00    -0.051 A 
ATOM    187  CD2 TYR d   1      13.622  -2.828  10.483  0.00  0.00    -0.074 A 
ATOM    188  H57 TYR d   1      13.061  -2.325  12.500  0.00  0.00     0.087 H 
ATOM    189  H55 TYR d   1      13.005  -2.049  10.052  0.00  0.00     0.084 H 
BRANCH 184 190
ATOM    190  OH  TYR d   1      14.404  -4.084  13.775  0.00  0.00    -0.361 OA
ATOM    191  H58 TYR d   1      14.979  -4.793  14.036  0.00  0.00     0.217 HD
ENDBRANCH 184 190
ENDBRANCH 177 180
ENDBRANCH   1 177
TORSDOF 58
