REMARK WARNING: 32 MAX_TORS EXCEEDED!!!
REMARK  52 active torsions:
REMARK  status: ('A' for Active; 'I' for Inactive)
REMARK    1  A    between atoms: N_1  and  CA_2 
REMARK    2  A    between atoms: CA_2  and  C_3 
REMARK    3  A    between atoms: CA_2  and  CB_5 
REMARK       I    between atoms: C_3  and  N_7 
REMARK    4  A    between atoms: CB_5  and  OG_6 
REMARK    5  A    between atoms: N_7  and  CA_8 
REMARK    6  A    between atoms: CA_8  and  C_9 
REMARK    7  A    between atoms: CA_8  and  CB_11 
REMARK       I    between atoms: C_9  and  N_15 
REMARK    8  A    between atoms: CB_11  and  CG_12 
REMARK    9  A    between atoms: CG_12  and  CD1_13 
REMARK   10  A    between atoms: CG_12  and  CD2_14 
REMARK   11  A    between atoms: N_15  and  CA_16 
REMARK   12  A    between atoms: CA_16  and  C_17 
REMARK   13  A    between atoms: CA_16  and  CB_19 
REMARK       I    between atoms: C_17  and  N_22 
REMARK   14  A    between atoms: CB_19  and  OG1_20 
REMARK   15  A    between atoms: CB_19  and  CG2_21 
REMARK   16  A    between atoms: N_22  and  CA_23 
REMARK   17  A    between atoms: CA_23  and  C_24 
REMARK   18  A    between atoms: CA_23  and  CB_26 
REMARK       I    between atoms: C_24  and  N_30 
REMARK   19  A    between atoms: CB_26  and  CG1_27 
REMARK   20  A    between atoms: CB_26  and  CG2_28 
REMARK   21  A    between atoms: CG1_27  and  CD1_29 
REMARK   22  A    between atoms: N_30  and  CA_31 
REMARK   23  A    between atoms: CA_31  and  C_32 
REMARK   24  A    between atoms: CA_31  and  CB_34 
REMARK       I    between atoms: C_32  and  N_46 
REMARK   25  A    between atoms: CB_34  and  CG_35 
REMARK   26  A    between atoms: CZ_40  and  OH_41 
REMARK   27  A    between atoms: OH_41  and  P_42 
REMARK   28  A    between atoms: N_46  and  CA_47 
REMARK   29  A    between atoms: CA_47  and  C_48 
REMARK   30  A    between atoms: CA_47  and  CB_50 
REMARK       I    between atoms: C_48  and  N_51 
REMARK   31  A    between atoms: N_51  and  CA_52 
REMARK   32  A    between atoms: CA_52  and  C_53 
REMARK   33  A    between atoms: CA_52  and  CB_55 
REMARK       I    between atoms: C_53  and  N_60 
REMARK   34  A    between atoms: CB_55  and  CG_56 
REMARK   35  A    between atoms: CG_56  and  CD_57 
REMARK       I    between atoms: CD_57  and  NE2_59 
REMARK   36  A    between atoms: N_60  and  CA_61 
REMARK   37  A    between atoms: CA_61  and  C_62 
REMARK   38  A    between atoms: CA_61  and  CB_64 
REMARK       I    between atoms: C_62  and  N_67 
REMARK   39  A    between atoms: CB_64  and  CG1_65 
REMARK   40  A    between atoms: CB_64  and  CG2_66 
REMARK   41  A    between atoms: N_67  and  CA_68 
REMARK   42  A    between atoms: CA_68  and  C_69 
REMARK   43  A    between atoms: CA_68  and  CB_71 
REMARK       I    between atoms: C_69  and  N_76 
REMARK   44  A    between atoms: CB_71  and  CG_72 
REMARK   45  A    between atoms: CG_72  and  CD_73 
REMARK       I    between atoms: CD_73  and  NE2_75 
REMARK   46  A    between atoms: N_76  and  CA_77 
REMARK   47  A    between atoms: CA_77  and  C_78 
REMARK   48  A    between atoms: CA_77  and  CB_80 
REMARK   49  A    between atoms: CB_80  and  CG_81 
REMARK   50  A    between atoms: CG_81  and  CD_82 
REMARK   51  A    between atoms: CD_82  and  CE_83 
REMARK   52  A    between atoms: CE_83  and  NZ_84 
ROOT
ATOM      1  CA  PTR d   1       4.652  -0.449  11.065  0.00  0.00     0.093 C 
ATOM      2  H38 PTR d   1       5.726  -0.621  11.228  0.00  0.00     0.088 H 
ENDROOT
BRANCH   1   3
ATOM      3  N   PTR d   1       3.987  -1.740  11.160  0.00  0.00    -0.346 N 
ATOM      4  C   ILE d   1       4.335  -2.675  12.019  0.00  0.00     0.241 C 
ATOM      5  O   ILE d   1       5.337  -2.600  12.719  0.00  0.00    -0.271 OA
ATOM      6  H37 PTR d   1       3.225  -1.927  10.540  0.00  0.00     0.163 HD
BRANCH   4   7
ATOM      7  CA  ILE d   1       3.503  -3.954  12.090  0.00  0.00     0.092 C 
ATOM      8  H27 ILE d   1       2.709  -3.887  11.331  0.00  0.00     0.088 H 
BRANCH   7   9
ATOM      9  N   ILE d   1       4.360  -5.101  11.755  0.00  0.00    -0.346 N 
ATOM     10  C   THR d   1       4.096  -5.905  10.719  0.00  0.00     0.243 C 
ATOM     11  O   THR d   1       3.044  -5.809  10.059  0.00  0.00    -0.271 OA
ATOM     12  H26 ILE d   1       5.165  -5.286  12.319  0.00  0.00     0.163 HD
BRANCH  10  13
ATOM     13  CA  THR d   1       5.158  -6.940  10.382  0.00  0.00     0.113 C 
ATOM     14  H20 THR d   1       5.891  -6.955  11.202  0.00  0.00     0.091 H 
BRANCH  13  15
ATOM     15  N   THR d   1       4.586  -8.282  10.251  0.00  0.00    -0.344 N 
ATOM     16  C   LEU d   1       4.404  -9.064  11.303  0.00  0.00     0.241 C 
ATOM     17  O   LEU d   1       4.776  -8.769  12.444  0.00  0.00    -0.271 OA
ATOM     18  H19 THR d   1       4.327  -8.615   9.345  0.00  0.00     0.163 HD
BRANCH  16  19
ATOM     19  CA  LEU d   1       3.682 -10.393  11.125  0.00  0.00     0.089 C 
ATOM     20  H9  LEU d   1       2.944 -10.495  11.934  0.00  0.00     0.087 H 
BRANCH  19  21
ATOM     21  N   LEU d   1       2.965 -10.457   9.862  0.00  0.00    -0.346 N 
ATOM     22  C   SER d   1       1.693 -10.091   9.726  0.00  0.00     0.251 C 
ATOM     23  O   SER d   1       0.959  -9.665  10.630  0.00  0.00    -0.271 OA
ATOM     24  H8  LEU d   1       3.452 -10.793   9.056  0.00  0.00     0.163 HD
BRANCH  22  25
ATOM     25  CA  SER d   1       1.103 -10.220   8.325  0.00  0.00     0.195 C 
ATOM     26  H4  SER d   1       1.847 -10.710   7.680  0.00  0.00     0.102 H 
BRANCH  25  27
ATOM     27  N   SER d   1      -0.104 -11.054   8.352  0.00  0.00    -0.064 N 
ATOM     28  H1  SER d   1      -0.481 -11.129   7.420  0.00  0.00     0.275 HD
ATOM     29  H2  SER d   1      -0.790 -10.633   8.959  0.00  0.00     0.275 HD
ATOM     30  H3  SER d   1       0.130 -11.973   8.695  0.00  0.00     0.275 HD
ENDBRANCH  25  27
BRANCH  25  31
ATOM     31  CB  SER d   1       0.794  -8.841   7.740  0.00  0.00     0.051 C 
ATOM     32  H5  SER d   1      -0.202  -8.871   7.273  0.00  0.00     0.077 H 
ATOM     33  H6  SER d   1       1.550  -8.604   6.977  0.00  0.00     0.077 H 
BRANCH  31  34
ATOM     34  OG  SER d   1       0.805  -7.822   8.721  0.00  0.00    -0.398 OA
ATOM     35  H7  SER d   1       0.150  -8.013   9.382  0.00  0.00     0.209 HD
ENDBRANCH  31  34
ENDBRANCH  25  31
ENDBRANCH  22  25
ENDBRANCH  19  21
BRANCH  19  36
ATOM     36  CB  LEU d   1       4.698 -11.534  11.253  0.00  0.00    -0.035 C 
ATOM     37  H10 LEU d   1       5.268 -11.385  12.182  0.00  0.00     0.037 H 
ATOM     38  H11 LEU d   1       5.380 -11.486  10.392  0.00  0.00     0.037 H 
BRANCH  36  39
ATOM     39  CG  LEU d   1       4.074 -12.935  11.293  0.00  0.00    -0.059 C 
ATOM     40  H12 LEU d   1       3.697 -13.169  10.286  0.00  0.00     0.038 H 
BRANCH  39  41
ATOM     41  CD1 LEU d   1       5.104 -13.986  11.667  0.00  0.00    -0.073 C 
ATOM     42  H13 LEU d   1       4.626 -14.977  11.687  0.00  0.00     0.028 H 
ATOM     43  H14 LEU d   1       5.516 -13.758  12.661  0.00  0.00     0.028 H 
ATOM     44  H15 LEU d   1       5.915 -13.985  10.924  0.00  0.00     0.028 H 
ENDBRANCH  39  41
BRANCH  39  45
ATOM     45  CD2 LEU d   1       2.903 -12.973  12.258  0.00  0.00    -0.073 C 
ATOM     46  H16 LEU d   1       2.168 -12.206  11.973  0.00  0.00     0.028 H 
ATOM     47  H17 LEU d   1       3.262 -12.774  13.278  0.00  0.00     0.028 H 
ATOM     48  H18 LEU d   1       2.430 -13.966  12.222  0.00  0.00     0.028 H 
ENDBRANCH  39  45
ENDBRANCH  36  39
ENDBRANCH  19  36
ENDBRANCH  16  19
ENDBRANCH  13  15
BRANCH  13  49
ATOM     49  CB  THR d   1       5.893  -6.571   9.073  0.00  0.00     0.060 C 
ATOM     50  H21 THR d   1       5.280  -6.890   8.217  0.00  0.00     0.086 H 
BRANCH  49  51
ATOM     51  OG1 THR d   1       7.174  -7.229   9.039  0.00  0.00    -0.393 OA
ATOM     52  H22 THR d   1       7.047  -8.170   9.077  0.00  0.00     0.210 HD
ENDBRANCH  49  51
BRANCH  49  53
ATOM     53  CG2 THR d   1       6.176  -5.070   8.970  0.00  0.00    -0.050 C 
ATOM     54  H23 THR d   1       6.698  -4.859   8.025  0.00  0.00     0.031 H 
ATOM     55  H24 THR d   1       6.807  -4.757   9.815  0.00  0.00     0.031 H 
ATOM     56  H25 THR d   1       5.226  -4.515   8.996  0.00  0.00     0.031 H 
ENDBRANCH  49  53
ENDBRANCH  13  49
ENDBRANCH  10  13
ENDBRANCH   7   9
BRANCH   7  57
ATOM     57  CB  ILE d   1       2.822  -4.128  13.455  0.00  0.00    -0.030 C 
ATOM     58  H28 ILE d   1       3.592  -4.486  14.154  0.00  0.00     0.043 H 
BRANCH  57  59
ATOM     59  CG1 ILE d   1       1.686  -5.174  13.423  0.00  0.00    -0.063 C 
ATOM     60  H29 ILE d   1       2.019  -6.040  12.832  0.00  0.00     0.033 H 
ATOM     61  H30 ILE d   1       0.803  -4.723  12.947  0.00  0.00     0.033 H 
BRANCH  59  62
ATOM     62  CD1 ILE d   1       1.304  -5.647  14.809  0.00  0.00    -0.076 C 
ATOM     63  H34 ILE d   1       0.494  -6.388  14.733  0.00  0.00     0.027 H 
ATOM     64  H35 ILE d   1       0.962  -4.790  15.408  0.00  0.00     0.027 H 
ATOM     65  H36 ILE d   1       2.178  -6.107  15.293  0.00  0.00     0.027 H 
ENDBRANCH  59  62
ENDBRANCH  57  59
BRANCH  57  66
ATOM     66  CG2 ILE d   1       2.254  -2.830  14.012  0.00  0.00    -0.071 C 
ATOM     67  H31 ILE d   1       3.046  -2.067  14.045  0.00  0.00     0.028 H 
ATOM     68  H32 ILE d   1       1.870  -3.004  15.028  0.00  0.00     0.028 H 
ATOM     69  H33 ILE d   1       1.435  -2.481  13.366  0.00  0.00     0.028 H 
ENDBRANCH  57  66
ENDBRANCH   7  57
ENDBRANCH   4   7
ENDBRANCH   1   3
BRANCH   1  70
ATOM     70  C   PTR d   1       4.187   0.547  12.131  0.00  0.00     0.241 C 
ATOM     71  O   PTR d   1       3.117   1.151  12.029  0.00  0.00    -0.271 OA
ATOM     72  N   ALA d   1       5.048   0.727  13.166  0.00  0.00    -0.346 N 
ATOM     73  H45 ALA d   1       5.957   0.312  13.136  0.00  0.00     0.163 HD
BRANCH  72  74
ATOM     74  CA  ALA d   1       4.648   1.528  14.329  0.00  0.00     0.086 C 
ATOM     75  H46 ALA d   1       3.565   1.716  14.294  0.00  0.00     0.086 H 
BRANCH  74  76
ATOM     76  C   ALA d   1       5.379   2.858  14.233  0.00  0.00     0.240 C 
ATOM     77  O   ALA d   1       6.176   3.010  13.304  0.00  0.00    -0.271 OA
ATOM     78  N   GLN d   1       5.137   3.786  15.117  0.00  0.00    -0.346 N 
ATOM     79  H50 GLN d   1       4.500   3.548  15.850  0.00  0.00     0.163 HD
BRANCH  78  80
ATOM     80  CA  GLN d   1       5.693   5.128  15.151  0.00  0.00     0.090 C 
ATOM     81  H51 GLN d   1       6.531   5.194  14.441  0.00  0.00     0.087 H 
BRANCH  80  82
ATOM     82  C   GLN d   1       6.203   5.416  16.558  0.00  0.00     0.241 C 
ATOM     83  O   GLN d   1       5.617   4.912  17.523  0.00  0.00    -0.271 OA
ATOM     84  N   VAL d   1       7.284   6.192  16.639  0.00  0.00    -0.346 N 
ATOM     85  H58 VAL d   1       7.731   6.516  15.805  0.00  0.00     0.163 HD
BRANCH  84  86
ATOM     86  CA  VAL d   1       7.816   6.569  17.946  0.00  0.00     0.092 C 
ATOM     87  H59 VAL d   1       8.039   5.654  18.514  0.00  0.00     0.088 H 
BRANCH  86  88
ATOM     88  C   VAL d   1       6.750   7.368  18.694  0.00  0.00     0.241 C 
ATOM     89  O   VAL d   1       6.242   8.336  18.104  0.00  0.00    -0.271 OA
ATOM     90  N   GLN d   1       6.401   7.007  19.926  0.00  0.00    -0.346 N 
ATOM     91  H67 GLN d   1       6.936   6.309  20.402  0.00  0.00     0.163 HD
BRANCH  90  92
ATOM     92  CA  GLN d   1       5.247   7.612  20.601  0.00  0.00     0.090 C 
ATOM     93  H68 GLN d   1       4.623   8.088  19.831  0.00  0.00     0.087 H 
BRANCH  92  94
ATOM     94  C   GLN d   1       5.611   8.669  21.636  0.00  0.00     0.241 C 
ATOM     95  O   GLN d   1       4.669   9.255  22.203  0.00  0.00    -0.271 OA
ATOM     96  N   LYS d   1       6.882   8.916  21.900  0.00  0.00    -0.345 N 
ATOM     97  H75 LYS d   1       7.556   8.371  21.400  0.00  0.00     0.163 HD
BRANCH  96  98
ATOM     98  CA  LYS d   1       7.406   9.893  22.838  0.00  0.00     0.096 C 
ATOM     99  H76 LYS d   1       6.630  10.659  22.982  0.00  0.00     0.089 H 
BRANCH  98 100
ATOM    100  C   LYS d   1       8.676  10.571  22.323  0.00  0.00     0.196 C 
ATOM    101  O   LYS d   1       9.238  10.117  21.309  0.00  0.00    -0.646 OA
ATOM    102  OXT LYS d   1       9.103  11.560  22.964  0.00  0.00    -0.646 OA
ENDBRANCH  98 100
BRANCH  98 103
ATOM    103  CB  LYS d   1       7.760   9.294  24.205  0.00  0.00    -0.037 C 
ATOM    104  H77 LYS d   1       7.922  10.125  24.908  0.00  0.00     0.036 H 
ATOM    105  H78 LYS d   1       8.692   8.721  24.093  0.00  0.00     0.036 H 
BRANCH 103 106
ATOM    106  CG  LYS d   1       6.714   8.373  24.803  0.00  0.00    -0.061 C 
ATOM    107  H79 LYS d   1       6.767   7.400  24.293  0.00  0.00     0.033 H 
ATOM    108  H80 LYS d   1       5.720   8.817  24.645  0.00  0.00     0.033 H 
BRANCH 106 109
ATOM    109  CD  LYS d   1       6.922   8.154  26.305  0.00  0.00    -0.043 C 
ATOM    110  H81 LYS d   1       7.131   9.117  26.794  0.00  0.00     0.035 H 
ATOM    111  H82 LYS d   1       7.769   7.470  26.465  0.00  0.00     0.035 H 
BRANCH 109 112
ATOM    112  CE  LYS d   1       5.655   7.546  26.892  0.00  0.00     0.080 C 
ATOM    113  H83 LYS d   1       5.184   6.916  26.123  0.00  0.00     0.075 H 
ATOM    114  H84 LYS d   1       4.972   8.364  27.164  0.00  0.00     0.075 H 
BRANCH 112 115
ATOM    115  NZ  LYS d   1       5.894   6.712  28.101  0.00  0.00    -0.079 N 
ATOM    116  H85 LYS d   1       5.017   6.344  28.434  0.00  0.00     0.274 HD
ATOM    117  H86 LYS d   1       6.316   7.277  28.821  0.00  0.00     0.274 HD
ATOM    118  H87 LYS d   1       6.511   5.950  27.867  0.00  0.00     0.274 HD
ENDBRANCH 112 115
ENDBRANCH 109 112
ENDBRANCH 106 109
ENDBRANCH 103 106
ENDBRANCH  98 103
ENDBRANCH  96  98
ENDBRANCH  92  94
BRANCH  92 119
ATOM    119  CB  GLN d   1       4.422   6.531  21.313  0.00  0.00    -0.030 C 
ATOM    120  H69 GLN d   1       3.586   7.028  21.826  0.00  0.00     0.037 H 
ATOM    121  H70 GLN d   1       5.072   6.046  22.056  0.00  0.00     0.037 H 
BRANCH 119 122
ATOM    122  CG  GLN d   1       3.839   5.439  20.417  0.00  0.00     0.011 C 
ATOM    123  H71 GLN d   1       3.510   4.600  21.048  0.00  0.00     0.047 H 
ATOM    124  H72 GLN d   1       4.620   5.093  19.725  0.00  0.00     0.047 H 
BRANCH 122 125
ATOM    125  CD  GLN d   1       2.656   5.939  19.610  0.00  0.00     0.215 C 
ATOM    126  OE1 GLN d   1       1.916   6.777  20.128  0.00  0.00    -0.274 OA
ATOM    127  NE2 GLN d   1       2.466   5.462  18.386  0.00  0.00    -0.370 N 
ATOM    128  H73 GLN d   1       1.691   5.780  17.840  0.00  0.00     0.159 HD
ATOM    129  H74 GLN d   1       3.098   4.784  18.010  0.00  0.00     0.159 HD
ENDBRANCH 122 125
ENDBRANCH 119 122
ENDBRANCH  92 119
ENDBRANCH  90  92
ENDBRANCH  86  88
BRANCH  86 130
ATOM    130  CB  VAL d   1       9.118   7.389  17.816  0.00  0.00    -0.033 C 
ATOM    131  H60 VAL d   1       8.896   8.287  17.221  0.00  0.00     0.042 H 
BRANCH 130 132
ATOM    132  CG1 VAL d   1       9.610   7.834  19.177  0.00  0.00    -0.071 C 
ATOM    133  H61 VAL d   1      10.537   8.415  19.060  0.00  0.00     0.028 H 
ATOM    134  H62 VAL d   1       9.808   6.951  19.802  0.00  0.00     0.028 H 
ATOM    135  H63 VAL d   1       8.843   8.459  19.658  0.00  0.00     0.028 H 
ENDBRANCH 130 132
BRANCH 130 136
ATOM    136  CG2 VAL d   1      10.200   6.595  17.089  0.00  0.00    -0.071 C 
ATOM    137  H64 VAL d   1       9.825   6.281  16.104  0.00  0.00     0.028 H 
ATOM    138  H65 VAL d   1      10.463   5.706  17.681  0.00  0.00     0.028 H 
ATOM    139  H66 VAL d   1      11.092   7.226  16.958  0.00  0.00     0.028 H 
ENDBRANCH 130 136
ENDBRANCH  86 130
ENDBRANCH  84  86
ENDBRANCH  80  82
BRANCH  80 140
ATOM    140  CB  GLN d   1       4.619   6.146  14.754  0.00  0.00    -0.030 C 
ATOM    141  H52 GLN d   1       5.046   7.156  14.838  0.00  0.00     0.037 H 
ATOM    142  H53 GLN d   1       3.770   6.048  15.446  0.00  0.00     0.037 H 
BRANCH 140 143
ATOM    143  CG  GLN d   1       4.110   5.951  13.330  0.00  0.00     0.011 C 
ATOM    144  H54 GLN d   1       3.600   4.979  13.255  0.00  0.00     0.047 H 
ATOM    145  H55 GLN d   1       4.960   5.974  12.633  0.00  0.00     0.047 H 
BRANCH 143 146
ATOM    146  CD  GLN d   1       3.133   7.062  12.970  0.00  0.00     0.215 C 
ATOM    147  OE1 GLN d   1       2.235   7.358  13.761  0.00  0.00    -0.274 OA
ATOM    148  NE2 GLN d   1       3.320   7.633  11.796  0.00  0.00    -0.370 N 
ATOM    149  H56 GLN d   1       2.714   8.370  11.496  0.00  0.00     0.159 HD
ATOM    150  H57 GLN d   1       4.068   7.329  11.206  0.00  0.00     0.159 HD
ENDBRANCH 143 146
ENDBRANCH 140 143
ENDBRANCH  80 140
ENDBRANCH  78  80
ENDBRANCH  74  76
BRANCH  74 151
ATOM    151  CB  ALA d   1       4.959   0.761  15.596  0.00  0.00    -0.049 C 
ATOM    152  H47 ALA d   1       4.660   1.359  16.469  0.00  0.00     0.030 H 
ATOM    153  H48 ALA d   1       6.038   0.555  15.645  0.00  0.00     0.030 H 
ATOM    154  H49 ALA d   1       4.404  -0.189  15.595  0.00  0.00     0.030 H 
ENDBRANCH  74 151
ENDBRANCH  72  74
ENDBRANCH   1  70
BRANCH   1 155
ATOM    155  CB  PTR d   1       4.482   0.131   9.666  0.00  0.00    -0.014 C 
ATOM    156  H39 PTR d   1       4.639   1.219   9.712  0.00  0.00     0.043 H 
ATOM    157  H40 PTR d   1       3.460  -0.078   9.318  0.00  0.00     0.043 H 
BRANCH 155 158
ATOM    158  CG  PTR d   1       5.466  -0.463   8.677  0.00  0.00    -0.056 A 
ATOM    159  CD1 PTR d   1       5.099  -1.554   7.913  0.00  0.00    -0.074 A 
ATOM    160  CE1 PTR d   1       5.988  -2.215   7.072  0.00  0.00    -0.050 A 
ATOM    161  H41 PTR d   1       4.077  -1.909   7.971  0.00  0.00     0.084 H 
ATOM    162  CZ  PTR d   1       7.295  -1.743   7.012  0.00  0.00     0.082 A 
ATOM    163  H43 PTR d   1       5.673  -3.069   6.483  0.00  0.00     0.087 H 
ATOM    164  CE2 PTR d   1       7.681  -0.644   7.764  0.00  0.00    -0.050 A 
ATOM    165  CD2 PTR d   1       6.783   0.014   8.603  0.00  0.00    -0.074 A 
ATOM    166  H44 PTR d   1       8.703  -0.289   7.698  0.00  0.00     0.087 H 
ATOM    167  H42 PTR d   1       7.095   0.874   9.184  0.00  0.00     0.084 H 
BRANCH 162 168
ATOM    168  OH  PTR d   1       8.258  -2.417   6.165  0.00  0.00    -0.240 OA
BRANCH 168 169
ATOM    169  P   PTR d   1       8.544  -1.886   4.656  0.00  0.00     0.427 P 
ATOM    170  O1P PTR d   1       7.272  -2.229   3.948  0.00  0.00    -0.617 OA
ATOM    171  O2P PTR d   1       9.670  -2.721   4.167  0.00  0.00    -0.617 OA
ATOM    172  O3P PTR d   1       8.783  -0.450   4.648  0.00  0.00    -0.617 OA
ENDBRANCH 168 169
ENDBRANCH 162 168
ENDBRANCH 155 158
ENDBRANCH   1 155
TORSDOF 52
