REMARK  8 active torsions:
REMARK  status: ('A' for Active; 'I' for Inactive)
REMARK    1  A    between atoms: C1_1  and  S9_9 
REMARK    2  A    between atoms: C4_4  and  O7_7 
REMARK    3  A    between atoms: O7_7  and  C8_8 
REMARK    4  A    between atoms: S9_9  and  N12_12 
REMARK    5  A    between atoms: C13_13  and  C_21 
REMARK    6  A    between atoms: C14_14  and  C19_19 
REMARK    7  A    between atoms: C14_14  and  C20_20 
REMARK       I    between atoms: C_21  and  NA_22 
REMARK    8  A    between atoms: NA_22  and  OA_23 
ROOT
ATOM      1  N12 MM3 d   1      -8.288  22.002  28.129  0.00  0.00    -0.291 N 
ATOM      2  C13 MM3 d   1      -7.270  22.738  27.364  0.00  0.00     0.116 C 
ATOM      3  C14 MM3 d   1      -7.603  24.240  27.237  0.00  0.00     0.031 C 
ATOM      4  S15 MM3 d   1      -9.428  24.280  27.277  0.00  0.00    -0.157 SA
ATOM      5  C16 MM3 d   1     -10.467  23.011  26.466  0.00  0.00    -0.021 C 
ATOM      6  C17 MM3 d   1     -10.456  21.630  27.130  0.00  0.00    -0.042 C 
ATOM      7  C18 MM3 d   1      -9.047  21.109  27.253  0.00  0.00     0.007 C 
ATOM      8  H8  MM3 d   1      -7.388  22.357  26.339  0.00  0.00     0.091 H 
ATOM      9  H9  MM3 d   1     -10.113  22.893  25.431  0.00  0.00     0.049 H 
ATOM     10  H10 MM3 d   1     -11.505  23.376  26.459  0.00  0.00     0.049 H 
ATOM     11  H11 MM3 d   1     -11.047  20.931  26.520  0.00  0.00     0.036 H 
ATOM     12  H12 MM3 d   1     -10.901  21.708  28.133  0.00  0.00     0.036 H 
ATOM     13  H13 MM3 d   1      -9.064  20.096  27.682  0.00  0.00     0.065 H 
ATOM     14  H14 MM3 d   1      -8.576  21.078  26.259  0.00  0.00     0.065 H 
ENDROOT
BRANCH   1  15
ATOM     15  S9  MM3 d   1      -8.316  21.408  29.766  0.00  0.00     0.261 S 
ATOM     16  O10 MM3 d   1      -9.910  20.748  30.194  0.00  0.00    -0.200 OA
ATOM     17  O11 MM3 d   1      -8.054  22.859  30.581  0.00  0.00    -0.200 OA
BRANCH  15  18
ATOM     18  C1  MM3 d   1      -7.122  20.144  30.197  0.00  0.00     0.079 A 
ATOM     19  C2  MM3 d   1      -7.602  18.789  29.988  0.00  0.00    -0.058 A 
ATOM     20  C3  MM3 d   1      -6.684  17.695  30.286  0.00  0.00    -0.049 A 
ATOM     21  H1  MM3 d   1      -8.605  18.598  29.624  0.00  0.00     0.086 H 
ATOM     22  C4  MM3 d   1      -5.346  18.076  30.749  0.00  0.00     0.068 A 
ATOM     23  H2  MM3 d   1      -6.975  16.657  30.171  0.00  0.00     0.087 H 
ATOM     24  C5  MM3 d   1      -4.923  19.457  30.961  0.00  0.00    -0.049 A 
ATOM     25  C6  MM3 d   1      -5.824  20.550  30.681  0.00  0.00    -0.058 A 
ATOM     26  H3  MM3 d   1      -3.925  19.663  31.331  0.00  0.00     0.087 H 
ATOM     27  H4  MM3 d   1      -5.549  21.589  30.822  0.00  0.00     0.086 H 
BRANCH  22  28
ATOM     28  O7  MM3 d   1      -4.390  17.148  30.889  0.00  0.00    -0.356 OA
BRANCH  28  29
ATOM     29  C8  MM3 d   1      -4.605  15.830  30.856  0.00  0.00     0.010 C 
ATOM     30  H5  MM3 d   1      -3.652  15.299  30.996  0.00  0.00     0.066 H 
ATOM     31  H6  MM3 d   1      -5.039  15.553  29.884  0.00  0.00     0.066 H 
ATOM     32  H7  MM3 d   1      -5.301  15.552  31.661  0.00  0.00     0.066 H 
ENDBRANCH  28  29
ENDBRANCH  22  28
ENDBRANCH  15  18
ENDBRANCH   1  15
BRANCH   2  33
ATOM     33  C   MM3 d   1      -5.811  22.403  27.692  0.00  0.00     0.266 C 
ATOM     34  NA  MM3 d   1      -5.043  23.300  28.302  0.00  0.00    -0.236 N 
ATOM     35  H21 MM3 d   1      -5.343  24.014  28.935  0.00  0.00     0.197 HD
ATOM     36  OB  MM3 d   1      -5.314  21.339  27.319  0.00  0.00    -0.269 OA
BRANCH  34  37
ATOM     37  OA  MM3 d   1      -3.624  23.026  27.849  0.00  0.00    -0.287 OA
ATOM     38  H22 MM3 d   1      -3.379  22.142  28.097  0.00  0.00     0.244 HD
ENDBRANCH  34  37
ENDBRANCH   2  33
BRANCH   3  39
ATOM     39  C19 MM3 d   1      -7.290  24.633  25.809  0.00  0.00    -0.058 C 
ATOM     40  H15 MM3 d   1      -7.511  25.701  25.666  0.00  0.00     0.029 H 
ATOM     41  H16 MM3 d   1      -7.906  24.035  25.121  0.00  0.00     0.029 H 
ATOM     42  H17 MM3 d   1      -6.225  24.448  25.603  0.00  0.00     0.029 H 
ENDBRANCH   3  39
BRANCH   3  43
ATOM     43  C20 MM3 d   1      -7.059  25.503  27.895  0.00  0.00    -0.058 C 
ATOM     44  H18 MM3 d   1      -7.595  26.380  27.504  0.00  0.00     0.029 H 
ATOM     45  H19 MM3 d   1      -5.986  25.600  27.672  0.00  0.00     0.029 H 
ATOM     46  H20 MM3 d   1      -7.203  25.441  28.984  0.00  0.00     0.029 H 
ENDBRANCH   3  43
TORSDOF 8
