REMARK  0 active torsions:
REMARK  status: ('A' for Active; 'I' for Inactive)
ROOT
ATOM      1  O6  PPO d   1      45.721  51.003   3.640  0.00  0.00    -0.265 OA
ATOM      2  C6  PPO d   1      44.919  50.045   3.621  0.00  0.00     0.279 A 
ATOM      3  C5  PPO d   1      43.847  49.778   4.536  0.00  0.00     0.172 A 
ATOM      4  N7  PPO d   1      43.415  50.475   5.647  0.00  0.00    -0.147 NA
ATOM      5  N8  PPO d   1      42.414  49.789   6.103  0.00  0.00    -0.186 NA
ATOM      6  C9  PPO d   1      42.148  48.664   5.358  0.00  0.00     0.076 A 
ATOM      7  C4  PPO d   1      43.069  48.644   4.340  0.00  0.00     0.093 A 
ATOM      8  N3  PPO d   1      43.177  47.692   3.346  0.00  0.00    -0.244 NA
ATOM      9  C2  PPO d   1      44.188  47.937   2.474  0.00  0.00     0.067 A 
ATOM     10  N1  PPO d   1      45.021  49.057   2.601  0.00  0.00    -0.316 N 
ATOM     11  H1  PPO d   1      41.129  48.712   4.947  0.00  0.00     0.079 H 
ATOM     12  H2  PPO d   1      42.250  47.763   5.981  0.00  0.00     0.079 H 
ATOM     13  H3  PPO d   1      44.357  47.243   1.652  0.00  0.00     0.143 H 
ATOM     14  H4  PPO d   1      45.745  49.171   1.921  0.00  0.00     0.170 HD
ENDROOT
TORSDOF 0
