REMARK  8 active torsions:
REMARK  status: ('A' for Active; 'I' for Inactive)
REMARK    1  A    between atoms: C1_1  and  S11_7 
REMARK    2  A    between atoms: C4_4  and  O35_10 
REMARK    3  A    between atoms: S11_7  and  N14_12 
REMARK    4  A    between atoms: O35_10  and  C8_11 
REMARK    5  A    between atoms: C15_13  and  C29_16 
REMARK       I    between atoms: C29_16  and  N32_18 
REMARK    6  A    between atoms: N32_18  and  O33_19 
REMARK    7  A    between atoms: N23_21  and  O24_22 
REMARK    8  A    between atoms: O24_22  and  C25_23 
ROOT
ATOM      1  N14 SPC d   1      -8.423  21.963  27.972  0.00  0.00    -0.287 N 
ATOM      2  C15 SPC d   1      -7.426  22.986  27.676  0.00  0.00     0.106 C 
ATOM      3  C16 SPC d   1      -7.881  23.569  26.333  0.00  0.00     0.003 C 
ATOM      4  C17 SPC d   1      -8.458  22.319  25.696  0.00  0.00     0.060 C 
ATOM      5  C18 SPC d   1      -8.668  21.207  26.748  0.00  0.00     0.045 C 
ATOM      6  N23 SPC d   1      -8.890  22.159  24.418  0.00  0.00    -0.142 NA
ATOM      7  H8  SPC d   1      -7.395  23.752  28.465  0.00  0.00     0.089 H 
ATOM      8  H9  SPC d   1      -7.037  23.972  25.754  0.00  0.00     0.045 H 
ATOM      9  H10 SPC d   1      -8.643  24.352  26.463  0.00  0.00     0.045 H 
ATOM     10  H13 SPC d   1      -9.691  20.803  26.716  0.00  0.00     0.074 H 
ATOM     11  H14 SPC d   1      -7.946  20.387  26.624  0.00  0.00     0.074 H 
ENDROOT
BRANCH   1  12
ATOM     12  S11 SPC d   1      -8.532  21.145  29.485  0.00  0.00     0.262 S 
ATOM     13  O13 SPC d   1      -9.864  20.685  29.554  0.00  0.00    -0.200 OA
ATOM     14  O12 SPC d   1      -8.099  22.147  30.402  0.00  0.00    -0.200 OA
BRANCH  12  15
ATOM     15  C1  SPC d   1      -7.382  19.822  29.599  0.00  0.00     0.079 A 
ATOM     16  C6  SPC d   1      -6.188  20.122  30.224  0.00  0.00    -0.058 A 
ATOM     17  C5  SPC d   1      -5.324  19.083  30.472  0.00  0.00    -0.049 A 
ATOM     18  H4  SPC d   1      -5.942  21.139  30.508  0.00  0.00     0.086 H 
ATOM     19  C4  SPC d   1      -5.619  17.798  30.080  0.00  0.00     0.068 A 
ATOM     20  H3  SPC d   1      -4.391  19.280  30.987  0.00  0.00     0.087 H 
ATOM     21  C3  SPC d   1      -6.795  17.491  29.370  0.00  0.00    -0.049 A 
ATOM     22  C2  SPC d   1      -7.668  18.544  29.125  0.00  0.00    -0.058 A 
ATOM     23  H2  SPC d   1      -7.009  16.484  29.031  0.00  0.00     0.087 H 
ATOM     24  H1  SPC d   1      -8.577  18.370  28.561  0.00  0.00     0.086 H 
BRANCH  19  25
ATOM     25  O35 SPC d   1      -4.636  16.902  30.463  0.00  0.00    -0.356 OA
BRANCH  25  26
ATOM     26  C8  SPC d   1      -4.896  15.563  30.132  0.00  0.00     0.010 C 
ATOM     27  H5  SPC d   1      -4.063  14.932  30.475  0.00  0.00     0.066 H 
ATOM     28  H6  SPC d   1      -5.002  15.469  29.041  0.00  0.00     0.066 H 
ATOM     29  H7  SPC d   1      -5.827  15.239  30.620  0.00  0.00     0.066 H 
ENDBRANCH  25  26
ENDBRANCH  19  25
ENDBRANCH  12  15
ENDBRANCH   1  12
BRANCH   2  30
ATOM     30  C29 SPC d   1      -5.990  22.340  27.477  0.00  0.00     0.265 C 
ATOM     31  N32 SPC d   1      -5.001  22.931  28.183  0.00  0.00    -0.236 N 
ATOM     32  H11 SPC d   1      -5.164  23.731  28.761  0.00  0.00     0.197 HD
ATOM     33  O31 SPC d   1      -5.697  21.392  26.735  0.00  0.00    -0.269 OA
BRANCH  31  34
ATOM     34  O33 SPC d   1      -3.702  22.336  28.049  0.00  0.00    -0.287 OA
ATOM     35  H12 SPC d   1      -3.078  22.818  28.579  0.00  0.00     0.244 HD
ENDBRANCH  31  34
ENDBRANCH   2  30
BRANCH   6  36
ATOM     36  O24 SPC d   1      -8.766  22.942  23.287  0.00  0.00    -0.262 OA
BRANCH  36  37
ATOM     37  C25 SPC d   1      -8.802  22.176  22.125  0.00  0.00     0.031 C 
ATOM     38  H15 SPC d   1      -8.701  22.834  21.249  0.00  0.00     0.070 H 
ATOM     39  H16 SPC d   1      -9.760  21.637  22.070  0.00  0.00     0.070 H 
ATOM     40  H17 SPC d   1      -7.974  21.452  22.137  0.00  0.00     0.070 H 
ENDBRANCH  36  37
ENDBRANCH   6  36
TORSDOF 8
