REMARK WARNING: 32 MAX_TORS EXCEEDED!!!
REMARK  33 active torsions:
REMARK  status: ('A' for Active; 'I' for Inactive)
REMARK    1  A    between atoms: N_1  and  CA_2 
REMARK    2  A    between atoms: CA_2  and  C_3 
REMARK    3  A    between atoms: CA_2  and  CB_5 
REMARK       I    between atoms: C_3  and  N_8 
REMARK    4  A    between atoms: CB_5  and  OG1_6 
REMARK    5  A    between atoms: CB_5  and  CG2_7 
REMARK    6  A    between atoms: N_8  and  CA_9 
REMARK    7  A    between atoms: CA_9  and  C_10 
REMARK    8  A    between atoms: CA_9  and  CB_12 
REMARK       I    between atoms: C_10  and  N_17 
REMARK    9  A    between atoms: CB_12  and  CG_13 
REMARK   10  A    between atoms: CG_13  and  CD_14 
REMARK   11  A    between atoms: CD_14  and  CE_15 
REMARK   12  A    between atoms: CE_15  and  NZ_16 
REMARK   13  A    between atoms: N_17  and  CA_18 
REMARK   14  A    between atoms: CA_18  and  C_19 
REMARK   15  A    between atoms: CA_18  and  CB_21 
REMARK       I    between atoms: C_19  and  N_23 
REMARK   16  A    between atoms: CB_21  and  SG_22 
REMARK   17  A    between atoms: N_23  and  CA_24 
REMARK   18  A    between atoms: CA_24  and  C_25 
REMARK   19  A    between atoms: CA_24  and  CB_27 
REMARK       I    between atoms: C_25  and  N_30 
REMARK   20  A    between atoms: CB_27  and  CG1_28 
REMARK   21  A    between atoms: CB_27  and  CG2_29 
REMARK   22  A    between atoms: N_30  and  CA_31 
REMARK   23  A    between atoms: CA_31  and  C_32 
REMARK   24  A    between atoms: CA_31  and  CB_34 
REMARK       I    between atoms: C_32  and  N_38 
REMARK   25  A    between atoms: CB_34  and  CG1_35 
REMARK   26  A    between atoms: CB_34  and  CG2_36 
REMARK   27  A    between atoms: CG1_35  and  CD1_37 
REMARK   28  A    between atoms: N_38  and  CA_39 
REMARK   29  A    between atoms: CA_39  and  C_40 
REMARK   30  A    between atoms: CA_39  and  CB_42 
REMARK   31  A    between atoms: CB_42  and  CG_43 
REMARK   32  A    between atoms: CG_43  and  SD_44 
REMARK   33  A    between atoms: SD_44  and  CE_45 
ROOT
ATOM      1  C   THR d   1     100.807  18.114  33.384  0.00  0.00     0.241 C 
ATOM      2  O   THR d   1     100.685  18.442  34.560  0.00  0.00    -0.271 OA
ATOM      3  N   THR d   1     101.688  18.684  32.575  0.00  0.00    -0.346 N 
ATOM      4  H28 THR d   1     101.673  18.461  31.600  0.00  0.00     0.163 HD
ENDROOT
BRANCH   3   5
ATOM      5  CA  THR d   1     102.680  19.630  33.075  0.00  0.00     0.092 C 
ATOM      6  H29 THR d   1     103.175  19.117  33.912  0.00  0.00     0.088 H 
BRANCH   5   7
ATOM      7  C   THR d   1     102.212  20.979  33.625  0.00  0.00     0.241 C 
ATOM      8  O   THR d   1     103.046  21.814  33.991  0.00  0.00    -0.271 OA
ATOM      9  N   THR d   1     100.911  21.218  33.701  0.00  0.00    -0.346 N 
ATOM     10  H37 THR d   1     100.237  20.532  33.425  0.00  0.00     0.163 HD
BRANCH   9  11
ATOM     11  CA  THR d   1     100.507  22.518  34.202  0.00  0.00     0.092 C 
ATOM     12  H38 THR d   1     101.448  23.072  34.335  0.00  0.00     0.088 H 
BRANCH  11  13
ATOM     13  C   THR d   1      99.836  22.559  35.568  0.00  0.00     0.241 C 
ATOM     14  O   THR d   1      99.390  23.614  36.010  0.00  0.00    -0.271 OA
ATOM     15  N   THR d   1      99.815  21.427  36.262  0.00  0.00    -0.345 N 
ATOM     16  H48 THR d   1     100.215  20.601  35.865  0.00  0.00     0.163 HD
BRANCH  15  17
ATOM     17  CA  THR d   1      99.222  21.364  37.588  0.00  0.00     0.097 C 
ATOM     18  H49 THR d   1      99.598  22.220  38.168  0.00  0.00     0.089 H 
BRANCH  17  19
ATOM     19  C   THR d   1      99.611  20.093  38.313  0.00  0.00     0.196 C 
ATOM     20  O   THR d   1     100.619  19.475  37.921  0.00  0.00    -0.646 OA
ATOM     21  OXT THR d   1      98.905  19.732  39.274  0.00  0.00    -0.646 OA
ENDBRANCH  17  19
BRANCH  17  22
ATOM     22  CB  THR d   1      97.705  21.465  37.516  0.00  0.00    -0.029 C 
ATOM     23  H50 THR d   1      97.449  22.414  37.022  0.00  0.00     0.037 H 
ATOM     24  H51 THR d   1      97.314  21.469  38.544  0.00  0.00     0.037 H 
BRANCH  22  25
ATOM     25  CG  THR d   1      97.030  20.348  36.763  0.00  0.00    -0.021 C 
ATOM     26  H52 THR d   1      97.681  19.461  36.765  0.00  0.00     0.049 H 
ATOM     27  H53 THR d   1      96.847  20.666  35.726  0.00  0.00     0.049 H 
BRANCH  25  28
ATOM     28  SD  THR d   1      95.461  19.939  37.548  0.00  0.00    -0.173 SA
BRANCH  28  29
ATOM     29  CE  THR d   1      96.042  18.416  38.502  0.00  0.00    -0.035 C 
ATOM     30  H54 THR d   1      95.200  17.997  39.072  0.00  0.00     0.041 H 
ATOM     31  H55 THR d   1      96.847  18.702  39.195  0.00  0.00     0.041 H 
ATOM     32  H56 THR d   1      96.418  17.662  37.795  0.00  0.00     0.041 H 
ENDBRANCH  28  29
ENDBRANCH  25  28
ENDBRANCH  22  25
ENDBRANCH  17  22
ENDBRANCH  15  17
ENDBRANCH  11  13
BRANCH  11  33
ATOM     33  CB  THR d   1      99.703  23.300  33.154  0.00  0.00    -0.030 C 
ATOM     34  H39 THR d   1      99.448  24.286  33.570  0.00  0.00     0.043 H 
BRANCH  33  35
ATOM     35  CG1 THR d   1      98.400  22.572  32.819  0.00  0.00    -0.063 C 
ATOM     36  H40 THR d   1      97.907  22.293  33.762  0.00  0.00     0.033 H 
ATOM     37  H41 THR d   1      98.647  21.663  32.251  0.00  0.00     0.033 H 
BRANCH  35  38
ATOM     38  CD1 THR d   1      97.430  23.397  32.000  0.00  0.00    -0.076 C 
ATOM     39  H45 THR d   1      96.523  22.807  31.802  0.00  0.00     0.027 H 
ATOM     40  H46 THR d   1      97.901  23.677  31.046  0.00  0.00     0.027 H 
ATOM     41  H47 THR d   1      97.161  24.306  32.557  0.00  0.00     0.027 H 
ENDBRANCH  35  38
ENDBRANCH  33  35
BRANCH  33  42
ATOM     42  CG2 THR d   1     100.568  23.508  31.914  0.00  0.00    -0.071 C 
ATOM     43  H42 THR d   1     101.493  24.033  32.196  0.00  0.00     0.028 H 
ATOM     44  H43 THR d   1     100.015  24.110  31.178  0.00  0.00     0.028 H 
ATOM     45  H44 THR d   1     100.820  22.532  31.475  0.00  0.00     0.028 H 
ENDBRANCH  33  42
ENDBRANCH  11  33
ENDBRANCH   9  11
ENDBRANCH   5   7
BRANCH   5  46
ATOM     46  CB  THR d   1     103.745  19.917  32.009  0.00  0.00    -0.033 C 
ATOM     47  H30 THR d   1     104.532  20.538  32.461  0.00  0.00     0.042 H 
BRANCH  46  48
ATOM     48  CG1 THR d   1     104.387  18.611  31.531  0.00  0.00    -0.071 C 
ATOM     49  H31 THR d   1     105.147  18.834  30.768  0.00  0.00     0.028 H 
ATOM     50  H32 THR d   1     103.614  17.959  31.099  0.00  0.00     0.028 H 
ATOM     51  H33 THR d   1     104.861  18.102  32.383  0.00  0.00     0.028 H 
ENDBRANCH  46  48
BRANCH  46  52
ATOM     52  CG2 THR d   1     103.125  20.697  30.862  0.00  0.00    -0.071 C 
ATOM     53  H34 THR d   1     102.677  21.624  31.249  0.00  0.00     0.028 H 
ATOM     54  H35 THR d   1     102.346  20.086  30.382  0.00  0.00     0.028 H 
ATOM     55  H36 THR d   1     103.903  20.945  30.125  0.00  0.00     0.028 H 
ENDBRANCH  46  52
ENDBRANCH   5  46
ENDBRANCH   3   5
BRANCH   1  56
ATOM     56  CA  THR d   1      99.861  17.090  32.762  0.00  0.00     0.097 C 
ATOM     57  H24 THR d   1      99.836  17.227  31.671  0.00  0.00     0.088 H 
BRANCH  56  58
ATOM     58  N   THR d   1     100.358  15.744  33.054  0.00  0.00    -0.345 N 
ATOM     59  C   THR d   1     100.857  14.967  32.093  0.00  0.00     0.241 C 
ATOM     60  O   THR d   1     100.843  15.281  30.901  0.00  0.00    -0.271 OA
ATOM     61  H23 THR d   1     100.322  15.401  33.993  0.00  0.00     0.163 HD
BRANCH  59  62
ATOM     62  CA  THR d   1     101.399  13.609  32.519  0.00  0.00     0.089 C 
ATOM     63  H11 THR d   1     100.610  13.061  33.055  0.00  0.00     0.087 H 
BRANCH  62  64
ATOM     64  N   THR d   1     101.826  12.824  31.366  0.00  0.00    -0.346 N 
ATOM     65  C   THR d   1     101.355  11.607  31.112  0.00  0.00     0.251 C 
ATOM     66  O   THR d   1     100.460  11.065  31.772  0.00  0.00    -0.271 OA
ATOM     67  H10 THR d   1     102.501  13.217  30.741  0.00  0.00     0.163 HD
BRANCH  65  68
ATOM     68  CA  THR d   1     101.935  10.918  29.887  0.00  0.00     0.199 C 
ATOM     69  H4  THR d   1     102.967  11.262  29.726  0.00  0.00     0.103 H 
BRANCH  68  70
ATOM     70  N   THR d   1     101.950   9.443  30.109  0.00  0.00    -0.064 N 
ATOM     71  H1  THR d   1     102.518   9.230  30.914  0.00  0.00     0.275 HD
ATOM     72  H2  THR d   1     102.333   8.985  29.297  0.00  0.00     0.275 HD
ATOM     73  H3  THR d   1     101.009   9.117  30.266  0.00  0.00     0.275 HD
ENDBRANCH  68  70
BRANCH  68  74
ATOM     74  CB  THR d   1     101.076  11.310  28.659  0.00  0.00     0.068 C 
ATOM     75  H5  THR d   1     100.377  12.106  28.956  0.00  0.00     0.086 H 
BRANCH  74  76
ATOM     76  OG1 THR d   1     100.319  10.172  28.217  0.00  0.00    -0.393 OA
ATOM     77  H6  THR d   1      99.793  10.416  27.464  0.00  0.00     0.210 HD
ENDBRANCH  74  76
BRANCH  74  78
ATOM     78  CG2 THR d   1     101.962  11.838  27.525  0.00  0.00    -0.050 C 
ATOM     79  H7  THR d   1     101.333  12.110  26.665  0.00  0.00     0.031 H 
ATOM     80  H8  THR d   1     102.677  11.058  27.224  0.00  0.00     0.031 H 
ATOM     81  H9  THR d   1     102.512  12.725  27.872  0.00  0.00     0.031 H 
ENDBRANCH  74  78
ENDBRANCH  68  74
ENDBRANCH  65  68
ENDBRANCH  62  64
BRANCH  62  82
ATOM     82  CB  THR d   1     102.601  13.812  33.446  0.00  0.00    -0.038 C 
ATOM     83  H12 THR d   1     102.765  12.881  34.009  0.00  0.00     0.036 H 
ATOM     84  H13 THR d   1     102.365  14.627  34.146  0.00  0.00     0.036 H 
BRANCH  82  85
ATOM     85  CG  THR d   1     103.905  14.169  32.710  0.00  0.00    -0.061 C 
ATOM     86  H14 THR d   1     103.716  15.038  32.062  0.00  0.00     0.033 H 
ATOM     87  H15 THR d   1     104.206  13.310  32.093  0.00  0.00     0.033 H 
BRANCH  85  88
ATOM     88  CD  THR d   1     105.059  14.513  33.669  0.00  0.00    -0.043 C 
ATOM     89  H16 THR d   1     105.985  14.625  33.086  0.00  0.00     0.035 H 
ATOM     90  H17 THR d   1     105.178  13.693  34.392  0.00  0.00     0.035 H 
BRANCH  88  91
ATOM     91  CE  THR d   1     104.792  15.824  34.440  0.00  0.00     0.080 C 
ATOM     92  H18 THR d   1     103.882  15.689  35.044  0.00  0.00     0.075 H 
ATOM     93  H19 THR d   1     104.629  16.627  33.706  0.00  0.00     0.075 H 
BRANCH  91  94
ATOM     94  NZ  THR d   1     105.902  16.243  35.354  0.00  0.00    -0.079 N 
ATOM     95  H20 THR d   1     105.650  17.102  35.816  0.00  0.00     0.274 HD
ATOM     96  H21 THR d   1     106.744  16.384  34.818  0.00  0.00     0.274 HD
ATOM     97  H22 THR d   1     106.059  15.524  36.043  0.00  0.00     0.274 HD
ENDBRANCH  91  94
ENDBRANCH  88  91
ENDBRANCH  85  88
ENDBRANCH  82  85
ENDBRANCH  62  82
ENDBRANCH  59  62
ENDBRANCH  56  58
BRANCH  56  98
ATOM     98  CB  THR d   1      98.465  17.330  33.318  0.00  0.00     0.001 C 
ATOM     99  H25 THR d   1      98.414  16.969  34.356  0.00  0.00     0.052 H 
ATOM    100  H26 THR d   1      97.726  16.792  32.706  0.00  0.00     0.052 H 
BRANCH  98 101
ATOM    101  SG  THR d   1      98.114  19.106  33.274  0.00  0.00    -0.180 SA
ATOM    102  H27 THR d   1      98.794  19.596  33.835  0.00  0.00     0.101 HD
ENDBRANCH  98 101
ENDBRANCH  56  98
ENDBRANCH   1  56
TORSDOF 33
