REMARK  9 active torsions:
REMARK  status: ('A' for Active; 'I' for Inactive)
REMARK    1  A    between atoms: S1_1  and  N1_12 
REMARK    2  A    between atoms: S1_1  and  C1_4 
REMARK    3  A    between atoms: C4_7  and  O3_10 
REMARK    4  A    between atoms: O3_10  and  C7_11 
REMARK    5  A    between atoms: C8_13  and  C20_28 
REMARK       I    between atoms: N2_15  and  C12_18 
REMARK    6  A    between atoms: C12_18  and  O5_20 
REMARK    7  A    between atoms: O5_20  and  C13_21 
REMARK    8  A    between atoms: C13_21  and  C14_22 
REMARK       I    between atoms: C20_28  and  NA_29 
REMARK    9  A    between atoms: NA_29  and  OA_30 
ROOT
ATOM      1  N1  SPI d   1       3.641  50.224  52.920  0.00  0.00    -0.290 N 
ATOM      2  C8  SPI d   1       2.315  50.311  52.291  0.00  0.00     0.117 C 
ATOM      3  C9  SPI d   1       2.298  51.565  51.409  0.00  0.00     0.028 C 
ATOM      4  N2  SPI d   1       2.849  52.749  52.095  0.00  0.00    -0.324 N 
ATOM      5  C10 SPI d   1       4.213  52.608  52.633  0.00  0.00     0.015 C 
ATOM      6  C11 SPI d   1       4.322  51.387  53.520  0.00  0.00     0.021 C 
ATOM      7  C12 SPI d   1       2.259  53.933  51.975  0.00  0.00     0.363 C 
ATOM      8  O4  SPI d   1       2.699  54.923  52.619  0.00  0.00    -0.238 OA
ATOM      9  H8  SPI d   1       2.194  49.431  51.642  0.00  0.00     0.091 H 
ATOM     10  H9  SPI d   1       1.258  51.778  51.119  0.00  0.00     0.068 H 
ATOM     11  H10 SPI d   1       2.897  51.370  50.508  0.00  0.00     0.068 H 
ATOM     12  H11 SPI d   1       4.462  53.503  53.221  0.00  0.00     0.067 H 
ATOM     13  H12 SPI d   1       4.921  52.510  51.797  0.00  0.00     0.067 H 
ATOM     14  H13 SPI d   1       5.385  51.144  53.665  0.00  0.00     0.067 H 
ATOM     15  H14 SPI d   1       3.860  51.609  54.493  0.00  0.00     0.067 H 
ENDROOT
BRANCH   1  16
ATOM     16  S1  SPI d   1       3.918  48.681  53.575  0.00  0.00     0.261 S 
ATOM     17  O2  SPI d   1       5.348  48.751  53.527  0.00  0.00    -0.200 OA
ATOM     18  O1  SPI d   1       3.376  47.785  52.598  0.00  0.00    -0.200 OA
BRANCH  16  19
ATOM     19  C1  SPI d   1       3.284  48.486  55.244  0.00  0.00     0.079 A 
ATOM     20  C6  SPI d   1       2.248  47.486  55.465  0.00  0.00    -0.058 A 
ATOM     21  C5  SPI d   1       1.894  47.168  56.853  0.00  0.00    -0.049 A 
ATOM     22  H4  SPI d   1       1.756  46.994  54.634  0.00  0.00     0.086 H 
ATOM     23  C4  SPI d   1       2.556  47.826  57.967  0.00  0.00     0.068 A 
ATOM     24  H3  SPI d   1       1.125  46.430  57.051  0.00  0.00     0.087 H 
ATOM     25  C3  SPI d   1       3.579  48.828  57.713  0.00  0.00    -0.049 A 
ATOM     26  C2  SPI d   1       3.949  49.164  56.343  0.00  0.00    -0.058 A 
ATOM     27  H2  SPI d   1       4.067  49.326  58.543  0.00  0.00     0.087 H 
ATOM     28  H1  SPI d   1       4.711  49.910  56.147  0.00  0.00     0.086 H 
BRANCH  23  29
ATOM     29  O3  SPI d   1       2.133  47.478  59.190  0.00  0.00    -0.356 OA
BRANCH  29  30
ATOM     30  C7  SPI d   1       2.835  47.524  60.324  0.00  0.00     0.010 C 
ATOM     31  H5  SPI d   1       2.209  47.173  61.157  0.00  0.00     0.066 H 
ATOM     32  H6  SPI d   1       3.154  48.559  60.516  0.00  0.00     0.066 H 
ATOM     33  H7  SPI d   1       3.721  46.878  60.233  0.00  0.00     0.066 H 
ENDBRANCH  29  30
ENDBRANCH  23  29
ENDBRANCH  16  19
ENDBRANCH   1  16
BRANCH   2  34
ATOM     34  C20 SPI d   1       1.140  50.302  53.282  0.00  0.00     0.266 C 
ATOM     35  OB  SPI d   1       0.954  51.193  54.129  0.00  0.00    -0.269 OA
ATOM     36  NA  SPI d   1       0.280  49.289  53.214  0.00  0.00    -0.236 N 
ATOM     37  H22 SPI d   1       0.423  48.478  52.646  0.00  0.00     0.197 HD
BRANCH  36  38
ATOM     38  OA  SPI d   1      -0.859  49.482  54.031  0.00  0.00    -0.287 OA
ATOM     39  H23 SPI d   1      -1.438  48.734  53.946  0.00  0.00     0.244 HD
ENDBRANCH  36  38
ENDBRANCH   2  34
BRANCH   7  40
ATOM     40  O5  SPI d   1       1.271  54.034  51.207  0.00  0.00    -0.299 OA
BRANCH  40  41
ATOM     41  C13 SPI d   1       0.805  55.232  50.647  0.00  0.00     0.054 C 
ATOM     42  H15 SPI d   1       1.609  55.682  50.046  0.00  0.00     0.082 H 
ATOM     43  H16 SPI d   1       0.525  55.920  51.458  0.00  0.00     0.082 H 
BRANCH  41  44
ATOM     44  C14 SPI d   1      -0.387  55.003  49.771  0.00  0.00    -0.034 A 
ATOM     45  C19 SPI d   1      -0.802  56.096  48.923  0.00  0.00    -0.075 A 
ATOM     46  C18 SPI d   1      -1.954  55.795  48.081  0.00  0.00    -0.082 A 
ATOM     47  H21 SPI d   1      -0.300  57.057  48.913  0.00  0.00     0.084 H 
ATOM     48  C17 SPI d   1      -2.598  54.480  48.115  0.00  0.00    -0.083 A 
ATOM     49  H20 SPI d   1      -2.341  56.559  47.417  0.00  0.00     0.083 H 
ATOM     50  C16 SPI d   1      -2.135  53.405  48.991  0.00  0.00    -0.082 A 
ATOM     51  H19 SPI d   1      -3.448  54.297  47.468  0.00  0.00     0.083 H 
ATOM     52  C15 SPI d   1      -0.991  53.690  49.839  0.00  0.00    -0.075 A 
ATOM     53  H18 SPI d   1      -2.624  52.438  49.007  0.00  0.00     0.083 H 
ATOM     54  H17 SPI d   1      -0.598  52.934  50.509  0.00  0.00     0.084 H 
ENDBRANCH  41  44
ENDBRANCH  40  41
ENDBRANCH   7  40
TORSDOF 9
