REMARK  13 active torsions:
REMARK  status: ('A' for Active; 'I' for Inactive)
REMARK    1  A    between atoms: C3_5  and  O2_1 
REMARK    2  A    between atoms: C25_27  and  O3_2 
REMARK    3  A    between atoms: C1_3  and  O1_30 
REMARK    4  A    between atoms: C6_8  and  C7_9 
REMARK    5  A    between atoms: C13_15  and  C18_20 
REMARK    6  A    between atoms: C17_19  and  C20_22 
REMARK    7  A    between atoms: C20_22  and  C21_23 
REMARK    8  A    between atoms: C20_22  and  C22_24 
REMARK    9  A    between atoms: C22_24  and  C23_25 
REMARK   10  A    between atoms: C23_25  and  C24_26 
REMARK   11  A    between atoms: C24_26  and  C25_27 
REMARK   12  A    between atoms: C25_27  and  C26_28 
REMARK   13  A    between atoms: C25_27  and  C27_29 
ROOT
ATOM      1  C7  VDX d   1      14.174  22.286  34.514  0.00  0.00    -0.080 C 
ATOM      2  C8  VDX d   1      13.966  23.488  34.042  0.00  0.00    -0.075 C 
ATOM      3  C9  VDX d   1      14.354  23.927  32.544  0.00  0.00    -0.044 C 
ATOM      4  C11 VDX d   1      13.088  24.490  31.671  0.00  0.00    -0.061 C 
ATOM      5  C12 VDX d   1      12.147  25.443  32.564  0.00  0.00    -0.057 C 
ATOM      6  C13 VDX d   1      11.753  24.897  34.070  0.00  0.00    -0.033 C 
ATOM      7  C14 VDX d   1      13.148  24.538  34.777  0.00  0.00    -0.025 C 
ATOM      8  C15 VDX d   1      12.661  24.266  36.350  0.00  0.00    -0.057 C 
ATOM      9  C16 VDX d   1      11.429  25.231  36.497  0.00  0.00    -0.060 C 
ATOM     10  C17 VDX d   1      11.276  25.934  35.106  0.00  0.00    -0.043 C 
ATOM     11  H10 VDX d   1      13.862  22.109  35.542  0.00  0.00     0.083 H 
ATOM     12  H11 VDX d   1      14.772  23.053  32.024  0.00  0.00     0.039 H 
ATOM     13  H12 VDX d   1      15.115  24.719  32.601  0.00  0.00     0.039 H 
ATOM     14  H13 VDX d   1      12.495  23.638  31.308  0.00  0.00     0.033 H 
ATOM     15  H14 VDX d   1      13.470  25.064  30.813  0.00  0.00     0.033 H 
ATOM     16  H15 VDX d   1      11.209  25.599  32.010  0.00  0.00     0.034 H 
ATOM     17  H16 VDX d   1      12.666  26.405  32.684  0.00  0.00     0.034 H 
ATOM     18  H17 VDX d   1      13.780  25.438  34.781  0.00  0.00     0.048 H 
ATOM     19  H18 VDX d   1      13.457  24.526  37.063  0.00  0.00     0.034 H 
ATOM     20  H19 VDX d   1      12.364  23.217  36.498  0.00  0.00     0.034 H 
ATOM     21  H20 VDX d   1      11.616  25.976  37.285  0.00  0.00     0.033 H 
ATOM     22  H21 VDX d   1      10.521  24.660  36.740  0.00  0.00     0.033 H 
ATOM     23  H22 VDX d   1      11.977  26.781  35.094  0.00  0.00     0.041 H 
ENDROOT
BRANCH  10  24
ATOM     24  C20 VDX d   1       9.849  26.546  34.726  0.00  0.00    -0.053 C 
ATOM     25  H28 VDX d   1       9.777  26.652  33.633  0.00  0.00     0.040 H 
BRANCH  24  26
ATOM     26  C21 VDX d   1       9.804  27.956  35.482  0.00  0.00    -0.072 C 
ATOM     27  H29 VDX d   1       8.845  28.453  35.274  0.00  0.00     0.028 H 
ATOM     28  H30 VDX d   1      10.630  28.589  35.126  0.00  0.00     0.028 H 
ATOM     29  H31 VDX d   1       9.906  27.795  36.565  0.00  0.00     0.028 H 
ENDBRANCH  24  26
BRANCH  24  30
ATOM     30  C22 VDX d   1       8.575  25.824  35.268  0.00  0.00    -0.061 C 
ATOM     31  H32 VDX d   1       8.370  26.193  36.284  0.00  0.00     0.033 H 
ATOM     32  H33 VDX d   1       8.775  24.743  35.304  0.00  0.00     0.033 H 
BRANCH  30  33
ATOM     33  C23 VDX d   1       7.331  26.060  34.405  0.00  0.00    -0.062 C 
ATOM     34  H34 VDX d   1       7.619  25.874  33.360  0.00  0.00     0.033 H 
ATOM     35  H35 VDX d   1       7.047  27.116  34.525  0.00  0.00     0.033 H 
BRANCH  33  36
ATOM     36  C24 VDX d   1       6.152  25.266  34.672  0.00  0.00    -0.037 C 
ATOM     37  H36 VDX d   1       6.153  25.060  35.752  0.00  0.00     0.037 H 
ATOM     38  H37 VDX d   1       6.279  24.324  34.119  0.00  0.00     0.037 H 
BRANCH  36  39
ATOM     39  C25 VDX d   1       4.775  25.776  34.336  0.00  0.00     0.051 C 
BRANCH  39  40
ATOM     40  C26 VDX d   1       4.701  26.010  32.842  0.00  0.00    -0.048 C 
ATOM     41  H38 VDX d   1       3.700  26.383  32.578  0.00  0.00     0.031 H 
ATOM     42  H39 VDX d   1       4.891  25.064  32.313  0.00  0.00     0.031 H 
ATOM     43  H40 VDX d   1       5.458  26.752  32.549  0.00  0.00     0.031 H 
ENDBRANCH  39  40
BRANCH  39  44
ATOM     44  C27 VDX d   1       3.668  24.730  34.723  0.00  0.00    -0.048 C 
ATOM     45  H41 VDX d   1       3.703  24.544  35.806  0.00  0.00     0.031 H 
ATOM     46  H42 VDX d   1       3.848  23.789  34.183  0.00  0.00     0.031 H 
ATOM     47  H43 VDX d   1       2.678  25.125  34.450  0.00  0.00     0.031 H 
ENDBRANCH  39  44
BRANCH  39  48
ATOM     48  O3  VDX d   1       4.489  26.946  35.054  0.00  0.00    -0.391 OA
ATOM     49  H2  VDX d   1       5.118  27.620  34.823  0.00  0.00     0.210 HD
ENDBRANCH  39  48
ENDBRANCH  36  39
ENDBRANCH  33  36
ENDBRANCH  30  33
ENDBRANCH  24  30
ENDBRANCH  10  24
BRANCH   6  50
ATOM     50  C18 VDX d   1      10.769  23.570  33.779  0.00  0.00    -0.068 C 
ATOM     51  H23 VDX d   1      11.238  22.924  33.022  0.00  0.00     0.028 H 
ATOM     52  H24 VDX d   1       9.790  23.913  33.412  0.00  0.00     0.028 H 
ATOM     53  H25 VDX d   1      10.633  23.003  34.712  0.00  0.00     0.028 H 
ENDBRANCH   6  50
BRANCH   1  54
ATOM     54  C6  VDX d   1      14.797  21.120  33.792  0.00  0.00    -0.076 C 
ATOM     55  C5  VDX d   1      14.622  19.724  33.864  0.00  0.00    -0.048 C 
ATOM     56  C4  VDX d   1      15.368  18.672  33.049  0.00  0.00    -0.016 C 
ATOM     57  C10 VDX d   1      13.602  19.075  34.828  0.00  0.00    -0.033 C 
ATOM     58  C3  VDX d   1      15.992  17.534  33.962  0.00  0.00     0.042 C 
ATOM     59  H7  VDX d   1      14.665  18.211  32.339  0.00  0.00     0.043 H 
ATOM     60  H8  VDX d   1      16.180  19.165  32.494  0.00  0.00     0.043 H 
ATOM     61  C2  VDX d   1      14.879  16.893  34.895  0.00  0.00    -0.013 C 
ATOM     62  H6  VDX d   1      16.420  16.755  33.315  0.00  0.00     0.083 H 
ATOM     63  C1  VDX d   1      14.139  17.953  35.755  0.00  0.00     0.063 C 
ATOM     64  H4  VDX d   1      14.143  16.377  34.261  0.00  0.00     0.041 H 
ATOM     65  H5  VDX d   1      15.358  16.166  35.567  0.00  0.00     0.041 H 
ATOM     66  H3  VDX d   1      14.883  18.413  36.422  0.00  0.00     0.090 H 
ATOM     67  C19 VDX d   1      12.291  19.455  34.852  0.00  0.00    -0.113 C 
ATOM     68  H26 VDX d   1      11.941  20.246  34.190  0.00  0.00     0.067 H 
ATOM     69  H27 VDX d   1      11.595  18.967  35.533  0.00  0.00     0.067 H 
ATOM     70  H9  VDX d   1      15.542  21.421  33.057  0.00  0.00     0.084 H 
BRANCH  58  71
ATOM     71  O2  VDX d   1      17.029  18.071  34.819  0.00  0.00    -0.395 OA
ATOM     72  H1  VDX d   1      17.400  17.370  35.343  0.00  0.00     0.210 HD
ENDBRANCH  58  71
BRANCH  63  73
ATOM     73  O1  VDX d   1      13.119  17.359  36.620  0.00  0.00    -0.391 OA
ATOM     74  H44 VDX d   1      12.434  16.977  36.084  0.00  0.00     0.210 HD
ENDBRANCH  63  73
ENDBRANCH   1  54
TORSDOF 13
