REMARK  4 active torsions:
REMARK  status: ('A' for Active; 'I' for Inactive)
REMARK    1  A    between atoms: C10_11  and  C19_20 
REMARK    2  A    between atoms: C13_14  and  C18_19 
REMARK    3  A    between atoms: C17_18  and  C20_21 
REMARK    4  A    between atoms: C20_21  and  C21_23 
ROOT
ATOM      1  C1  STR d   1     -19.912  42.850 -15.118  0.00  0.00    -0.048 C 
ATOM      2  C2  STR d   1     -18.714  42.211 -15.785  0.00  0.00    -0.005 C 
ATOM      3  C3  STR d   1     -17.558  43.190 -15.572  0.00  0.00     0.149 C 
ATOM      4  O3  STR d   1     -16.837  43.609 -16.500  0.00  0.00    -0.293 OA
ATOM      5  C4  STR d   1     -17.307  43.563 -14.292  0.00  0.00    -0.036 C 
ATOM      6  C5  STR d   1     -18.334  43.526 -13.328  0.00  0.00    -0.068 C 
ATOM      7  C6  STR d   1     -18.125  43.894 -11.889  0.00  0.00    -0.043 C 
ATOM      8  C7  STR d   1     -19.120  44.888 -11.504  0.00  0.00    -0.058 C 
ATOM      9  C8  STR d   1     -20.519  44.436 -11.720  0.00  0.00    -0.045 C 
ATOM     10  C9  STR d   1     -20.739  44.111 -13.194  0.00  0.00    -0.040 C 
ATOM     11  C10 STR d   1     -19.746  43.047 -13.612  0.00  0.00    -0.016 C 
ATOM     12  C11 STR d   1     -22.127  43.660 -13.471  0.00  0.00    -0.060 C 
ATOM     13  C12 STR d   1     -23.071  44.667 -12.962  0.00  0.00    -0.057 C 
ATOM     14  C13 STR d   1     -22.888  45.143 -11.460  0.00  0.00    -0.030 C 
ATOM     15  C14 STR d   1     -21.466  45.578 -11.309  0.00  0.00    -0.043 C 
ATOM     16  C15 STR d   1     -21.560  46.395 -10.012  0.00  0.00    -0.060 C 
ATOM     17  C16 STR d   1     -22.971  46.958  -9.929  0.00  0.00    -0.054 C 
ATOM     18  C17 STR d   1     -23.758  46.312 -11.052  0.00  0.00     0.011 C 
ATOM     19  H1  STR d   1     -20.788  42.208 -15.289  0.00  0.00     0.035 H 
ATOM     20  H2  STR d   1     -20.083  43.834 -15.580  0.00  0.00     0.035 H 
ATOM     21  H3  STR d   1     -18.903  42.067 -16.859  0.00  0.00     0.044 H 
ATOM     22  H4  STR d   1     -18.487  41.241 -15.319  0.00  0.00     0.044 H 
ATOM     23  H5  STR d   1     -16.308  43.892 -14.009  0.00  0.00     0.089 H 
ATOM     24  H6  STR d   1     -17.116  44.312 -11.758  0.00  0.00     0.039 H 
ATOM     25  H7  STR d   1     -18.235  42.999 -11.259  0.00  0.00     0.039 H 
ATOM     26  H8  STR d   1     -18.952  45.798 -12.098  0.00  0.00     0.034 H 
ATOM     27  H9  STR d   1     -18.989  45.118 -10.436  0.00  0.00     0.034 H 
ATOM     28  H10 STR d   1     -20.721  43.543 -11.110  0.00  0.00     0.041 H 
ATOM     29  H11 STR d   1     -20.552  45.021 -13.782  0.00  0.00     0.042 H 
ATOM     30  H12 STR d   1     -22.309  42.698 -12.969  0.00  0.00     0.033 H 
ATOM     31  H13 STR d   1     -22.266  43.540 -14.556  0.00  0.00     0.033 H 
ATOM     32  H14 STR d   1     -24.084  44.247 -13.054  0.00  0.00     0.034 H 
ATOM     33  H15 STR d   1     -22.983  45.556 -13.603  0.00  0.00     0.034 H 
ATOM     34  H16 STR d   1     -21.257  46.336 -12.078  0.00  0.00     0.041 H 
ATOM     35  H17 STR d   1     -20.828  47.216 -10.031  0.00  0.00     0.033 H 
ATOM     36  H18 STR d   1     -21.362  45.748  -9.145  0.00  0.00     0.033 H 
ATOM     37  H19 STR d   1     -22.953  48.050 -10.057  0.00  0.00     0.034 H 
ATOM     38  H20 STR d   1     -23.423  46.710  -8.957  0.00  0.00     0.034 H 
ATOM     39  H21 STR d   1     -23.758  47.005 -11.906  0.00  0.00     0.052 H 
ENDROOT
BRANCH  18  40
ATOM     40  C20 STR d   1     -25.194  46.131 -10.728  0.00  0.00     0.128 C 
ATOM     41  O20 STR d   1     -25.579  46.038  -9.586  0.00  0.00    -0.298 OA
BRANCH  40  42
ATOM     42  C21 STR d   1     -26.221  46.193 -11.797  0.00  0.00    -0.021 C 
ATOM     43  H28 STR d   1     -27.217  46.036 -11.358  0.00  0.00     0.037 H 
ATOM     44  H29 STR d   1     -26.021  45.410 -12.543  0.00  0.00     0.037 H 
ATOM     45  H30 STR d   1     -26.186  47.179 -12.283  0.00  0.00     0.037 H 
ENDBRANCH  40  42
ENDBRANCH  18  40
BRANCH  14  46
ATOM     46  C18 STR d   1     -23.128  44.001 -10.470  0.00  0.00    -0.068 C 
ATOM     47  H22 STR d   1     -22.505  43.138 -10.747  0.00  0.00     0.028 H 
ATOM     48  H23 STR d   1     -24.189  43.710 -10.496  0.00  0.00     0.028 H 
ATOM     49  H24 STR d   1     -22.863  44.334  -9.455  0.00  0.00     0.028 H 
ENDBRANCH  14  46
BRANCH  11  50
ATOM     50  C19 STR d   1     -19.950  41.684 -12.970  0.00  0.00    -0.065 C 
ATOM     51  H25 STR d   1     -19.182  40.987 -13.337  0.00  0.00     0.028 H 
ATOM     52  H26 STR d   1     -20.948  41.301 -13.231  0.00  0.00     0.028 H 
ATOM     53  H27 STR d   1     -19.867  41.777 -11.877  0.00  0.00     0.028 H 
ENDBRANCH  11  50
TORSDOF 4
