REMARK  3 active torsions:
REMARK  status: ('A' for Active; 'I' for Inactive)
REMARK    1  A    between atoms: C3_3  and  O3_4 
REMARK    2  A    between atoms: C10_11  and  C19_21 
REMARK    3  A    between atoms: C13_14  and  C18_20 
ROOT
ATOM      1  C1  AE2 d   1     -19.325  42.449 -11.162  0.00  0.00    -0.055 C 
ATOM      2  C2  AE2 d   1     -20.069  41.103 -11.141  0.00  0.00    -0.040 C 
ATOM      3  C3  AE2 d   1     -20.246  40.598 -12.567  0.00  0.00     0.036 C 
ATOM      4  C4  AE2 d   1     -20.999  41.651 -13.448  0.00  0.00    -0.037 C 
ATOM      5  C5  AE2 d   1     -20.143  42.943 -13.486  0.00  0.00    -0.044 C 
ATOM      6  C6  AE2 d   1     -20.843  43.947 -14.422  0.00  0.00    -0.060 C 
ATOM      7  C7  AE2 d   1     -22.142  44.500 -13.843  0.00  0.00    -0.061 C 
ATOM      8  C8  AE2 d   1     -22.056  44.955 -12.405  0.00  0.00    -0.045 C 
ATOM      9  C9  AE2 d   1     -21.407  43.882 -11.508  0.00  0.00    -0.043 C 
ATOM     10  C10 AE2 d   1     -19.992  43.524 -12.044  0.00  0.00    -0.036 C 
ATOM     11  C11 AE2 d   1     -21.363  44.332 -10.084  0.00  0.00    -0.060 C 
ATOM     12  C12 AE2 d   1     -22.752  44.720  -9.579  0.00  0.00    -0.051 C 
ATOM     13  C13 AE2 d   1     -23.397  45.746 -10.463  0.00  0.00     0.021 C 
ATOM     14  C14 AE2 d   1     -23.444  45.246 -11.893  0.00  0.00    -0.036 C 
ATOM     15  C15 AE2 d   1     -24.516  46.088 -12.573  0.00  0.00    -0.054 C 
ATOM     16  C16 AE2 d   1     -25.582  46.165 -11.485  0.00  0.00    -0.009 C 
ATOM     17  C17 AE2 d   1     -24.841  45.942 -10.170  0.00  0.00     0.135 C 
ATOM     18  O17 AE2 d   1     -25.330  45.955  -9.041  0.00  0.00    -0.297 OA
ATOM     19  H1  AE2 d   1     -18.307  42.275 -11.540  0.00  0.00     0.034 H 
ATOM     20  H2  AE2 d   1     -19.273  42.831 -10.132  0.00  0.00     0.034 H 
ATOM     21  H3  AE2 d   1     -21.056  41.237 -10.674  0.00  0.00     0.036 H 
ATOM     22  H4  AE2 d   1     -19.486  40.371 -10.563  0.00  0.00     0.036 H 
ATOM     23  H5  AE2 d   1     -19.253  40.408 -13.001  0.00  0.00     0.082 H 
ATOM     24  H7  AE2 d   1     -21.984  41.869 -13.010  0.00  0.00     0.037 H 
ATOM     25  H8  AE2 d   1     -21.130  41.260 -14.468  0.00  0.00     0.037 H 
ATOM     26  H9  AE2 d   1     -19.144  42.711 -13.883  0.00  0.00     0.041 H 
ATOM     27  H10 AE2 d   1     -21.071  43.440 -15.371  0.00  0.00     0.033 H 
ATOM     28  H11 AE2 d   1     -20.158  44.787 -14.610  0.00  0.00     0.033 H 
ATOM     29  H12 AE2 d   1     -22.907  43.712 -13.907  0.00  0.00     0.033 H 
ATOM     30  H13 AE2 d   1     -22.450  45.360 -14.456  0.00  0.00     0.033 H 
ATOM     31  H14 AE2 d   1     -21.450  45.872 -12.358  0.00  0.00     0.041 H 
ATOM     32  H15 AE2 d   1     -22.027  42.975 -11.555  0.00  0.00     0.041 H 
ATOM     33  H16 AE2 d   1     -20.697  45.204 -10.005  0.00  0.00     0.033 H 
ATOM     34  H17 AE2 d   1     -20.972  43.514  -9.462  0.00  0.00     0.033 H 
ATOM     35  H18 AE2 d   1     -22.660  45.132  -8.563  0.00  0.00     0.034 H 
ATOM     36  H19 AE2 d   1     -23.386  43.822  -9.554  0.00  0.00     0.034 H 
ATOM     37  H20 AE2 d   1     -23.895  44.243 -11.860  0.00  0.00     0.042 H 
ATOM     38  H21 AE2 d   1     -24.901  45.594 -13.477  0.00  0.00     0.034 H 
ATOM     39  H22 AE2 d   1     -24.136  47.087 -12.834  0.00  0.00     0.034 H 
ATOM     40  H23 AE2 d   1     -26.341  45.384 -11.635  0.00  0.00     0.044 H 
ATOM     41  H24 AE2 d   1     -26.066  47.153 -11.491  0.00  0.00     0.044 H 
ENDROOT
BRANCH  10  42
ATOM     42  C19 AE2 d   1     -18.987  44.645 -11.990  0.00  0.00    -0.068 C 
ATOM     43  H28 AE2 d   1     -18.024  44.294 -12.389  0.00  0.00     0.028 H 
ATOM     44  H29 AE2 d   1     -18.855  44.970 -10.947  0.00  0.00     0.028 H 
ATOM     45  H30 AE2 d   1     -19.348  45.490 -12.595  0.00  0.00     0.028 H 
ENDBRANCH  10  42
BRANCH   3  46
ATOM     46  O3  AE2 d   1     -21.001  39.392 -12.572  0.00  0.00    -0.396 OA
ATOM     47  H6  AE2 d   1     -21.104  39.088 -13.466  0.00  0.00     0.210 HD
ENDBRANCH   3  46
BRANCH  13  48
ATOM     48  C18 AE2 d   1     -22.723  47.109 -10.241  0.00  0.00    -0.062 C 
ATOM     49  H25 AE2 d   1     -22.751  47.362  -9.171  0.00  0.00     0.029 H 
ATOM     50  H26 AE2 d   1     -23.258  47.880 -10.814  0.00  0.00     0.029 H 
ATOM     51  H27 AE2 d   1     -21.677  47.060 -10.579  0.00  0.00     0.029 H 
ENDBRANCH  13  48
TORSDOF 3
