REMARK  2 active torsions:
REMARK  status: ('A' for Active; 'I' for Inactive)
REMARK    1  A    between atoms: C10_11  and  C19_21 
REMARK    2  A    between atoms: C13_14  and  C18_20 
ROOT
ATOM      1  C1  ANO d   1     -19.046  42.423 -11.719  0.00  0.00    -0.051 C 
ATOM      2  C2  ANO d   1     -19.552  40.968 -11.683  0.00  0.00    -0.009 C 
ATOM      3  C3  ANO d   1     -20.389  40.385 -12.835  0.00  0.00     0.127 C 
ATOM      4  O3  ANO d   1     -20.699  39.191 -12.979  0.00  0.00    -0.298 OA
ATOM      5  C4  ANO d   1     -20.920  41.520 -13.724  0.00  0.00    -0.006 C 
ATOM      6  C5  ANO d   1     -20.161  42.840 -13.850  0.00  0.00    -0.041 C 
ATOM      7  C6  ANO d   1     -21.028  43.703 -14.689  0.00  0.00    -0.060 C 
ATOM      8  C7  ANO d   1     -22.280  44.219 -14.001  0.00  0.00    -0.061 C 
ATOM      9  C8  ANO d   1     -22.041  44.799 -12.625  0.00  0.00    -0.045 C 
ATOM     10  C9  ANO d   1     -21.301  43.730 -11.772  0.00  0.00    -0.043 C 
ATOM     11  C10 ANO d   1     -19.928  43.428 -12.431  0.00  0.00    -0.036 C 
ATOM     12  C11 ANO d   1     -21.119  44.202 -10.315  0.00  0.00    -0.060 C 
ATOM     13  C12 ANO d   1     -22.460  44.494  -9.644  0.00  0.00    -0.051 C 
ATOM     14  C13 ANO d   1     -23.158  45.511 -10.471  0.00  0.00     0.021 C 
ATOM     15  C14 ANO d   1     -23.397  45.132 -11.954  0.00  0.00    -0.036 C 
ATOM     16  C15 ANO d   1     -24.386  46.192 -12.498  0.00  0.00    -0.054 C 
ATOM     17  C16 ANO d   1     -25.363  46.302 -11.318  0.00  0.00    -0.009 C 
ATOM     18  C17 ANO d   1     -24.634  45.644 -10.127  0.00  0.00     0.135 C 
ATOM     19  O17 ANO d   1     -25.177  45.256  -9.085  0.00  0.00    -0.297 OA
ATOM     20  H1  ANO d   1     -18.067  42.424 -12.220  0.00  0.00     0.034 H 
ATOM     21  H2  ANO d   1     -18.926  42.761 -10.679  0.00  0.00     0.034 H 
ATOM     22  H3  ANO d   1     -20.165  40.874 -10.774  0.00  0.00     0.044 H 
ATOM     23  H4  ANO d   1     -18.660  40.330 -11.592  0.00  0.00     0.044 H 
ATOM     24  H5  ANO d   1     -21.922  41.770 -13.347  0.00  0.00     0.044 H 
ATOM     25  H6  ANO d   1     -21.003  41.108 -14.741  0.00  0.00     0.044 H 
ATOM     26  H7  ANO d   1     -19.190  42.687 -14.344  0.00  0.00     0.041 H 
ATOM     27  H8  ANO d   1     -21.338  43.122 -15.570  0.00  0.00     0.033 H 
ATOM     28  H9  ANO d   1     -20.434  44.571 -15.013  0.00  0.00     0.033 H 
ATOM     29  H10 ANO d   1     -22.989  43.383 -13.904  0.00  0.00     0.033 H 
ATOM     30  H11 ANO d   1     -22.722  45.003 -14.633  0.00  0.00     0.033 H 
ATOM     31  H12 ANO d   1     -21.430  45.711 -12.702  0.00  0.00     0.041 H 
ATOM     32  H13 ANO d   1     -21.901  42.808 -11.764  0.00  0.00     0.041 H 
ATOM     33  H14 ANO d   1     -20.511  45.119 -10.310  0.00  0.00     0.033 H 
ATOM     34  H15 ANO d   1     -20.600  43.415  -9.748  0.00  0.00     0.033 H 
ATOM     35  H16 ANO d   1     -22.296  44.884  -8.629  0.00  0.00     0.034 H 
ATOM     36  H17 ANO d   1     -23.062  43.575  -9.591  0.00  0.00     0.034 H 
ATOM     37  H18 ANO d   1     -23.953  44.183 -11.977  0.00  0.00     0.042 H 
ATOM     38  H19 ANO d   1     -24.891  45.844 -13.411  0.00  0.00     0.034 H 
ATOM     39  H20 ANO d   1     -23.884  47.150 -12.699  0.00  0.00     0.034 H 
ATOM     40  H21 ANO d   1     -26.299  45.768 -11.540  0.00  0.00     0.044 H 
ATOM     41  H22 ANO d   1     -25.586  47.357 -11.099  0.00  0.00     0.044 H 
ENDROOT
BRANCH  11  42
ATOM     42  C19 ANO d   1     -19.151  44.748 -12.462  0.00  0.00    -0.068 C 
ATOM     43  H26 ANO d   1     -18.166  44.583 -12.923  0.00  0.00     0.028 H 
ATOM     44  H27 ANO d   1     -19.018  45.119 -11.435  0.00  0.00     0.028 H 
ATOM     45  H28 ANO d   1     -19.711  45.490 -13.050  0.00  0.00     0.028 H 
ENDBRANCH  11  42
BRANCH  14  46
ATOM     46  C18 ANO d   1     -22.489  46.850 -10.201  0.00  0.00    -0.062 C 
ATOM     47  H23 ANO d   1     -22.380  46.993  -9.116  0.00  0.00     0.029 H 
ATOM     48  H24 ANO d   1     -23.107  47.659 -10.617  0.00  0.00     0.029 H 
ATOM     49  H25 ANO d   1     -21.496  46.866 -10.674  0.00  0.00     0.029 H 
ENDBRANCH  14  46
TORSDOF 2
