REMARK  10 active torsions:
REMARK  status: ('A' for Active; 'I' for Inactive)
REMARK    1  A    between atoms: C2_2  and  NA2_3 
REMARK       I    between atoms: N5_8  and  C5A_33 
REMARK    2  A    between atoms: C9_13  and  C6_9 
REMARK    3  A    between atoms: N10_14  and  C9_13 
REMARK    4  A    between atoms: C14_18  and  N10_14 
REMARK    5  A    between atoms: C11_15  and  C_21 
REMARK       I    between atoms: C_21  and  N_23 
REMARK    6  A    between atoms: N_23  and  CA_24 
REMARK    7  A    between atoms: CA_24  and  CB_25 
REMARK    8  A    between atoms: CA_24  and  CT_30 
REMARK    9  A    between atoms: CB_25  and  CG_26 
REMARK   10  A    between atoms: CG_26  and  CD_27 
ROOT
ATOM      1  C11 FFO d   1      12.667  79.526  49.369  0.00  0.00     0.032 A 
ATOM      2  C12 FFO d   1      13.526  80.535  49.922  0.00  0.00    -0.066 A 
ATOM      3  C13 FFO d   1      13.615  81.763  49.301  0.00  0.00    -0.057 A 
ATOM      4  C14 FFO d   1      12.810  81.933  48.109  0.00  0.00     0.028 A 
ATOM      5  C15 FFO d   1      11.978  81.022  47.540  0.00  0.00    -0.057 A 
ATOM      6  C16 FFO d   1      11.931  79.782  48.221  0.00  0.00    -0.066 A 
ATOM      7  H9  FFO d   1      14.099  80.333  50.820  0.00  0.00     0.085 H 
ATOM      8  H10 FFO d   1      14.250  82.554  49.682  0.00  0.00     0.086 H 
ATOM      9  H11 FFO d   1      11.402  81.226  46.645  0.00  0.00     0.086 H 
ATOM     10  H12 FFO d   1      11.293  78.999  47.829  0.00  0.00     0.085 H 
ENDROOT
BRANCH   4  11
ATOM     11  N10 FFO d   1      12.957  83.205  47.550  0.00  0.00    -0.388 N 
ATOM     12  H8  FFO d   1      13.092  83.989  48.204  0.00  0.00     0.159 HD
BRANCH  11  13
ATOM     13  C9  FFO d   1      12.937  83.539  46.079  0.00  0.00     0.016 C 
ATOM     14  H6  FFO d   1      13.921  83.322  45.638  0.00  0.00     0.067 H 
ATOM     15  H7  FFO d   1      12.168  82.936  45.574  0.00  0.00     0.067 H 
BRANCH  13  16
ATOM     16  C6  FFO d   1      12.614  85.035  45.911  0.00  0.00     0.067 C 
ATOM     17  N5  FFO d   1      11.294  85.397  46.367  0.00  0.00    -0.306 N 
ATOM     18  C4A FFO d   1      10.247  84.729  45.584  0.00  0.00     0.155 A 
ATOM     19  C5A FFO d   1      10.936  86.394  47.191  0.00  0.00     0.176 C 
ATOM     20  C4  FFO d   1       8.954  84.294  46.160  0.00  0.00     0.314 A 
ATOM     21  C8A FFO d   1      10.463  84.449  44.233  0.00  0.00     0.175 A 
ATOM     22  N3  FFO d   1       8.088  83.673  45.275  0.00  0.00    -0.021 NA
ATOM     23  O4  FFO d   1       8.649  84.485  47.381  0.00  0.00    -0.263 OA
ATOM     24  C2  FFO d   1       8.306  83.410  43.914  0.00  0.00     0.703 A 
ATOM     25  N1  FFO d   1       9.501  83.817  43.452  0.00  0.00    -0.171 N 
ATOM     26  H1  FFO d   1       9.717  83.651  42.459  0.00  0.00     0.186 HD
ATOM     27  N8  FFO d   1      11.727  84.620  43.649  0.00  0.00    -0.242 NA
ATOM     28  C7  FFO d   1      12.635  85.270  44.438  0.00  0.00     0.008 C 
ATOM     29  H5  FFO d   1      13.363  85.950  43.997  0.00  0.00     0.111 H 
ATOM     30  O5B FFO d   1      11.834  86.946  47.869  0.00  0.00    -0.283 OA
ATOM     31  H19 FFO d   1       9.898  86.713  47.268  0.00  0.00     0.180 H 
ATOM     32  H4  FFO d   1      13.368  85.646  46.429  0.00  0.00     0.084 H 
BRANCH  24  33
ATOM     33  NA2 FFO d   1       7.300  82.809  43.320  0.00  0.00    -0.233 N 
ATOM     34  H2  FFO d   1       6.452  82.575  43.855  0.00  0.00     0.174 HD
ATOM     35  H3  FFO d   1       7.360  82.572  42.319  0.00  0.00     0.174 HD
ENDBRANCH  24  33
ENDBRANCH  13  16
ENDBRANCH  11  13
ENDBRANCH   4  11
BRANCH   1  36
ATOM     36  C   FFO d   1      12.536  78.200  49.974  0.00  0.00     0.252 C 
ATOM     37  O   FFO d   1      11.459  77.616  49.851  0.00  0.00    -0.268 OA
ATOM     38  N   FFO d   1      13.538  77.637  50.634  0.00  0.00    -0.342 N 
ATOM     39  H13 FFO d   1      14.436  78.076  50.604  0.00  0.00     0.163 HD
BRANCH  38  40
ATOM     40  CA  FFO d   1      13.387  76.381  51.418  0.00  0.00     0.097 C 
ATOM     41  H14 FFO d   1      12.329  76.202  51.662  0.00  0.00     0.089 H 
BRANCH  40  42
ATOM     42  CB  FFO d   1      13.972  75.203  50.570  0.00  0.00    -0.028 C 
ATOM     43  H15 FFO d   1      13.199  74.881  49.856  0.00  0.00     0.037 H 
ATOM     44  H16 FFO d   1      14.207  74.375  51.255  0.00  0.00     0.037 H 
BRANCH  42  45
ATOM     45  CG  FFO d   1      15.339  75.561  49.715  0.00  0.00     0.018 C 
ATOM     46  H17 FFO d   1      16.076  75.897  50.459  0.00  0.00     0.049 H 
ATOM     47  H18 FFO d   1      15.069  76.403  49.061  0.00  0.00     0.049 H 
BRANCH  45  48
ATOM     48  CD  FFO d   1      16.093  74.543  48.803  0.00  0.00     0.172 C 
ATOM     49  OE1 FFO d   1      15.643  74.450  47.662  0.00  0.00    -0.648 OA
ATOM     50  OE2 FFO d   1      17.121  73.855  49.288  0.00  0.00    -0.648 OA
ENDBRANCH  45  48
ENDBRANCH  42  45
ENDBRANCH  40  42
BRANCH  40  51
ATOM     51  CT  FFO d   1      14.205  76.483  52.659  0.00  0.00     0.196 C 
ATOM     52  O1  FFO d   1      14.953  77.444  52.843  0.00  0.00    -0.646 OA
ATOM     53  O2  FFO d   1      14.118  75.575  53.516  0.00  0.00    -0.646 OA
ENDBRANCH  40  51
ENDBRANCH  38  40
ENDBRANCH   1  36
TORSDOF 10
