REMARK  7 active torsions:
REMARK  status: ('A' for Active; 'I' for Inactive)
REMARK    1  A    between atoms: N1_1  and  C9_10 
REMARK    2  A    between atoms: N4_4  and  C7_7 
REMARK    3  A    between atoms: C7_7  and  C8_8 
REMARK    4  A    between atoms: C8_8  and  O8_9 
REMARK    5  A    between atoms: C9_10  and  C10_11 
REMARK    6  A    between atoms: C10_11  and  S_12 
REMARK    7  A    between atoms: S_12  and  O3S_15 
ROOT
ATOM      1  N1  EPE d   1       8.023  42.555  27.026  0.00  0.00    -0.067 N 
ATOM      2  C2  EPE d   1       6.551  42.508  26.956  0.00  0.00     0.106 C 
ATOM      3  C3  EPE d   1       5.754  43.796  27.030  0.00  0.00     0.106 C 
ATOM      4  N4  EPE d   1       6.202  44.654  25.893  0.00  0.00    -0.066 N 
ATOM      5  C5  EPE d   1       7.689  44.836  26.005  0.00  0.00     0.106 C 
ATOM      6  C6  EPE d   1       8.449  43.510  25.979  0.00  0.00     0.106 C 
ATOM      7  H1  EPE d   1       8.180  43.150  27.824  0.00  0.00     0.280 HD
ATOM      8  H2  EPE d   1       6.212  41.875  27.789  0.00  0.00     0.078 H 
ATOM      9  H3  EPE d   1       6.292  42.027  26.001  0.00  0.00     0.078 H 
ATOM     10  H4  EPE d   1       5.947  44.305  27.986  0.00  0.00     0.078 H 
ATOM     11  H5  EPE d   1       4.679  43.581  26.940  0.00  0.00     0.078 H 
ATOM     12  H6  EPE d   1       6.073  44.096  25.064  0.00  0.00     0.280 HD
ATOM     13  H7  EPE d   1       7.910  45.350  26.952  0.00  0.00     0.078 H 
ATOM     14  H8  EPE d   1       8.032  45.455  25.163  0.00  0.00     0.078 H 
ATOM     15  H9  EPE d   1       8.292  43.040  24.997  0.00  0.00     0.078 H 
ATOM     16  H10 EPE d   1       9.520  43.721  26.118  0.00  0.00     0.078 H 
ENDROOT
BRANCH   1  17
ATOM     17  C9  EPE d   1       8.603  41.326  27.615  0.00  0.00     0.097 C 
ATOM     18  H16 EPE d   1       7.801  40.793  28.146  0.00  0.00     0.077 H 
ATOM     19  H17 EPE d   1       9.380  41.628  28.332  0.00  0.00     0.077 H 
BRANCH  17  20
ATOM     20  C10 EPE d   1       9.241  40.343  26.607  0.00  0.00     0.061 C 
ATOM     21  H18 EPE d   1       9.801  40.900  25.841  0.00  0.00     0.061 H 
ATOM     22  H19 EPE d   1       8.458  39.740  26.123  0.00  0.00     0.061 H 
BRANCH  20  23
ATOM     23  S   EPE d   1      10.353  39.279  27.525  0.00  0.00     0.095 S 
ATOM     24  O1S EPE d   1      11.364  40.088  28.172  0.00  0.00    -0.601 OA
ATOM     25  O2S EPE d   1       9.517  38.624  28.496  0.00  0.00    -0.601 OA
BRANCH  23  26
ATOM     26  O3S EPE d   1      10.886  38.381  26.514  0.00  0.00    -0.296 OA
ATOM     27  H20 EPE d   1      10.175  37.881  26.130  0.00  0.00     0.232 HD
ENDBRANCH  23  26
ENDBRANCH  20  23
ENDBRANCH  17  20
ENDBRANCH   1  17
BRANCH   4  28
ATOM     28  C7  EPE d   1       5.332  45.870  25.641  0.00  0.00     0.103 C 
ATOM     29  H11 EPE d   1       5.239  46.014  24.555  0.00  0.00     0.079 H 
ATOM     30  H12 EPE d   1       5.821  46.748  26.087  0.00  0.00     0.079 H 
BRANCH  28  31
ATOM     31  C8  EPE d   1       3.931  45.740  26.235  0.00  0.00     0.039 C 
ATOM     32  H13 EPE d   1       3.791  46.567  26.947  0.00  0.00     0.076 H 
ATOM     33  H14 EPE d   1       3.883  44.782  26.773  0.00  0.00     0.076 H 
BRANCH  31  34
ATOM     34  O8  EPE d   1       2.836  45.774  25.305  0.00  0.00    -0.399 OA
ATOM     35  H15 EPE d   1       2.017  45.686  25.778  0.00  0.00     0.209 HD
ENDBRANCH  31  34
ENDBRANCH  28  31
ENDBRANCH   4  28
TORSDOF 7
