REMARK  7 active torsions:
REMARK  status: ('A' for Active; 'I' for Inactive)
REMARK    1  A    between atoms: C6_6  and  N12_11 
REMARK    2  A    between atoms: C8_8  and  O26_19 
REMARK    3  A    between atoms: C9_9  and  O31_21 
REMARK    4  A    between atoms: N12_11  and  C14_12 
REMARK    5  A    between atoms: C16_14  and  O21_18 
REMARK    6  A    between atoms: O26_19  and  C27_20 
REMARK    7  A    between atoms: O31_21  and  C32_22 
ROOT
ATOM      1  N1  DTQ d   1      -9.264  52.309  13.372  0.00  0.00    -0.224 NA
ATOM      2  C2  DTQ d   1     -10.204  52.972  12.599  0.00  0.00     0.089 A 
ATOM      3  N3  DTQ d   1     -10.828  52.353  11.520  0.00  0.00    -0.241 NA
ATOM      4  C4  DTQ d   1     -10.505  51.015  11.131  0.00  0.00     0.075 A 
ATOM      5  C5  DTQ d   1      -9.432  50.241  11.937  0.00  0.00     0.042 A 
ATOM      6  C6  DTQ d   1      -8.863  50.942  13.132  0.00  0.00     0.142 A 
ATOM      7  C7  DTQ d   1     -11.178  50.377   9.993  0.00  0.00    -0.019 A 
ATOM      8  C8  DTQ d   1     -10.854  48.991   9.593  0.00  0.00     0.103 A 
ATOM      9  C9  DTQ d   1      -9.751  48.253  10.309  0.00  0.00     0.102 A 
ATOM     10  C10 DTQ d   1      -9.052  48.898  11.469  0.00  0.00    -0.032 A 
ATOM     11  H1  DTQ d   1     -10.459  53.997  12.841  0.00  0.00     0.146 H 
ATOM     12  H2  DTQ d   1     -11.925  50.931   9.437  0.00  0.00     0.091 H 
ATOM     13  H3  DTQ d   1      -8.253  48.366  11.972  0.00  0.00     0.089 H 
ENDROOT
BRANCH   6  14
ATOM     14  N12 DTQ d   1      -7.942  50.318  14.011  0.00  0.00    -0.340 N 
ATOM     15  H4  DTQ d   1      -7.745  49.347  13.731  0.00  0.00     0.167 HD
BRANCH  14  16
ATOM     16  C14 DTQ d   1      -7.229  50.682  15.165  0.00  0.00     0.036 A 
ATOM     17  C19 DTQ d   1      -7.262  52.003  15.878  0.00  0.00    -0.057 A 
ATOM     18  C18 DTQ d   1      -6.419  52.245  17.062  0.00  0.00    -0.078 A 
ATOM     19  H8  DTQ d   1      -7.915  52.789  15.517  0.00  0.00     0.086 H 
ATOM     20  C17 DTQ d   1      -5.570  51.162  17.592  0.00  0.00    -0.051 A 
ATOM     21  H7  DTQ d   1      -6.423  53.217  17.542  0.00  0.00     0.083 H 
ATOM     22  C16 DTQ d   1      -5.572  49.843  16.948  0.00  0.00     0.067 A 
ATOM     23  H6  DTQ d   1      -4.944  51.340  18.459  0.00  0.00     0.087 H 
ATOM     24  C15 DTQ d   1      -6.365  49.615  15.721  0.00  0.00    -0.025 A 
ATOM     25  H5  DTQ d   1      -6.313  48.654  15.222  0.00  0.00     0.091 H 
BRANCH  22  26
ATOM     26  O21 DTQ d   1      -4.834  48.824  17.509  0.00  0.00    -0.361 OA
ATOM     27  H9  DTQ d   1      -4.391  49.146  18.286  0.00  0.00     0.217 HD
ENDBRANCH  22  26
ENDBRANCH  14  16
ENDBRANCH   6  14
BRANCH   9  28
ATOM     28  O31 DTQ d   1      -9.463  46.930   9.855  0.00  0.00    -0.353 OA
BRANCH  28  29
ATOM     29  C32 DTQ d   1      -8.482  46.117  10.508  0.00  0.00     0.010 C 
ATOM     30  H13 DTQ d   1      -8.418  45.142  10.002  0.00  0.00     0.066 H 
ATOM     31  H14 DTQ d   1      -8.771  45.966  11.559  0.00  0.00     0.066 H 
ATOM     32  H15 DTQ d   1      -7.503  46.617  10.465  0.00  0.00     0.066 H 
ENDBRANCH  28  29
ENDBRANCH   9  28
BRANCH   8  33
ATOM     33  O26 DTQ d   1     -11.547  48.278   8.582  0.00  0.00    -0.353 OA
BRANCH  33  34
ATOM     34  C27 DTQ d   1     -12.396  48.892   7.605  0.00  0.00     0.010 C 
ATOM     35  H10 DTQ d   1     -12.809  48.119   6.941  0.00  0.00     0.066 H 
ATOM     36  H11 DTQ d   1     -11.812  49.611   7.012  0.00  0.00     0.066 H 
ATOM     37  H12 DTQ d   1     -13.219  49.417   8.112  0.00  0.00     0.066 H 
ENDBRANCH  33  34
ENDBRANCH   8  33
TORSDOF 7
