REMARK  8 active torsions:
REMARK  status: ('A' for Active; 'I' for Inactive)
REMARK    1  A    between atoms: C6_6  and  N12_11 
REMARK    2  A    between atoms: C8_8  and  O26_20 
REMARK    3  A    between atoms: C9_9  and  O31_22 
REMARK    4  A    between atoms: N12_11  and  C14_12 
REMARK    5  A    between atoms: C16_14  and  S21_18 
REMARK    6  A    between atoms: S21_18  and  C22_19 
REMARK    7  A    between atoms: O26_20  and  C27_21 
REMARK    8  A    between atoms: O31_22  and  C32_23 
ROOT
ATOM      1  N1  MSQ d   1      43.015  32.051  32.306  0.00  0.00    -0.224 NA
ATOM      2  C2  MSQ d   1      43.528  33.356  32.374  0.00  0.00     0.089 A 
ATOM      3  N3  MSQ d   1      44.616  33.761  31.582  0.00  0.00    -0.241 NA
ATOM      4  C4  MSQ d   1      45.325  32.815  30.760  0.00  0.00     0.075 A 
ATOM      5  C5  MSQ d   1      44.805  31.354  30.658  0.00  0.00     0.042 A 
ATOM      6  C6  MSQ d   1      43.619  31.022  31.497  0.00  0.00     0.142 A 
ATOM      7  C7  MSQ d   1      46.588  33.182  30.088  0.00  0.00    -0.019 C 
ATOM      8  C8  MSQ d   1      47.433  32.149  29.404  0.00  0.00     0.103 C 
ATOM      9  C9  MSQ d   1      46.898  30.743  29.239  0.00  0.00     0.102 C 
ATOM     10  C10 MSQ d   1      45.566  30.373  29.829  0.00  0.00    -0.032 C 
ATOM     11  H1  MSQ d   1      43.074  34.068  33.054  0.00  0.00     0.146 H 
ATOM     12  H2  MSQ d   1      46.910  34.217  30.089  0.00  0.00     0.091 H 
ATOM     13  H3  MSQ d   1      45.155  29.386  29.651  0.00  0.00     0.089 H 
ENDROOT
BRANCH   6  14
ATOM     14  N12 MSQ d   1      43.087  29.709  31.530  0.00  0.00    -0.340 N 
ATOM     15  H4  MSQ d   1      43.744  28.983  31.211  0.00  0.00     0.167 HD
BRANCH  14  16
ATOM     16  C14 MSQ d   1      41.851  29.221  31.910  0.00  0.00     0.035 C 
ATOM     17  C15 MSQ d   1      40.615  29.709  31.262  0.00  0.00    -0.041 C 
ATOM     18  C16 MSQ d   1      39.300  29.401  31.837  0.00  0.00     0.002 C 
ATOM     19  H5  MSQ d   1      40.680  30.299  30.355  0.00  0.00     0.089 H 
ATOM     20  C17 MSQ d   1      39.180  28.420  32.928  0.00  0.00    -0.067 C 
ATOM     21  C18 MSQ d   1      40.410  27.822  33.504  0.00  0.00    -0.080 C 
ATOM     22  H6  MSQ d   1      38.204  28.138  33.306  0.00  0.00     0.085 H 
ATOM     23  C19 MSQ d   1      41.755  28.232  33.007  0.00  0.00    -0.057 C 
ATOM     24  H7  MSQ d   1      40.330  27.082  34.292  0.00  0.00     0.083 H 
ATOM     25  H8  MSQ d   1      42.653  27.810  33.444  0.00  0.00     0.086 H 
BRANCH  18  26
ATOM     26  S21 MSQ d   1      37.878  30.209  31.229  0.00  0.00    -0.134 SA
BRANCH  26  27
ATOM     27  C22 MSQ d   1      38.380  31.936  30.908  0.00  0.00    -0.030 C 
ATOM     28  H9  MSQ d   1      37.520  32.502  30.520  0.00  0.00     0.042 H 
ATOM     29  H10 MSQ d   1      39.193  31.950  30.167  0.00  0.00     0.042 H 
ATOM     30  H11 MSQ d   1      38.729  32.396  31.844  0.00  0.00     0.042 H 
ENDBRANCH  26  27
ENDBRANCH  18  26
ENDBRANCH  14  16
ENDBRANCH   6  14
BRANCH   9  31
ATOM     31  O31 MSQ d   1      47.752  29.833  28.547  0.00  0.00    -0.353 OA
BRANCH  31  32
ATOM     32  C32 MSQ d   1      47.332  28.532  28.093  0.00  0.00     0.010 C 
ATOM     33  H15 MSQ d   1      48.172  28.030  27.591  0.00  0.00     0.066 H 
ATOM     34  H16 MSQ d   1      46.496  28.642  27.387  0.00  0.00     0.066 H 
ATOM     35  H17 MSQ d   1      47.007  27.930  28.955  0.00  0.00     0.066 H 
ENDBRANCH  31  32
ENDBRANCH   9  31
BRANCH   8  36
ATOM     36  O26 MSQ d   1      48.770  32.389  28.947  0.00  0.00    -0.353 OA
BRANCH  36  37
ATOM     37  C27 MSQ d   1      49.327  33.618  28.846  0.00  0.00     0.010 C 
ATOM     38  H12 MSQ d   1      50.357  33.524  28.472  0.00  0.00     0.066 H 
ATOM     39  H13 MSQ d   1      49.339  34.098  29.836  0.00  0.00     0.066 H 
ATOM     40  H14 MSQ d   1      48.738  34.231  28.148  0.00  0.00     0.066 H 
ENDBRANCH  36  37
ENDBRANCH   8  36
TORSDOF 8
