REMARK  15 active torsions:
REMARK  status: ('A' for Active; 'I' for Inactive)
REMARK    1  A    between atoms: C2_2  and  N2_3 
REMARK    2  A    between atoms: C4_5  and  N4_6 
REMARK    3  A    between atoms: C7_9  and  C5_7 
REMARK    4  A    between atoms: C8_10  and  C7_9 
REMARK    5  A    between atoms: C10_12  and  O10_13 
REMARK    6  A    between atoms: O10_13  and  C15_20 
REMARK    7  A    between atoms: C12_16  and  O12_17 
REMARK    8  A    between atoms: O12_17  and  C14_19 
REMARK    9  A    between atoms: C15_20  and  C16_21 
REMARK   10  A    between atoms: C16_21  and  C17_22 
REMARK   11  A    between atoms: C17_22  and  C18_23 
REMARK   12  A    between atoms: C18_23  and  C19_24 
REMARK   13  A    between atoms: C18_23  and  C21_26 
REMARK   14  A    between atoms: C19_24  and  C20_25 
REMARK   15  A    between atoms: C20_25  and  C22_29 
ROOT
ATOM      1  C8  BDM d   1      -0.787  33.403  20.814  0.00  0.00    -0.048 A 
ATOM      2  C9  BDM d   1      -1.249  34.208  21.861  0.00  0.00    -0.043 A 
ATOM      3  C10 BDM d   1      -1.062  35.601  21.812  0.00  0.00     0.089 A 
ATOM      4  C11 BDM d   1      -0.452  36.162  20.700  0.00  0.00     0.077 A 
ATOM      5 BR11 BDM d   1      -0.320  38.071  20.504  0.00  0.00    -0.045 Br
ATOM      6  C12 BDM d   1       0.087  35.350  19.716  0.00  0.00     0.088 A 
ATOM      7  C13 BDM d   1      -0.091  33.975  19.778  0.00  0.00    -0.043 A 
ATOM      8  H8  BDM d   1      -1.751  33.758  22.710  0.00  0.00     0.088 H 
ATOM      9  H9  BDM d   1       0.324  33.345  18.999  0.00  0.00     0.088 H 
ENDROOT
BRANCH   3  10
ATOM     10  O10 BDM d   1      -1.412  36.510  22.786  0.00  0.00    -0.350 OA
BRANCH  10  11
ATOM     11  C15 BDM d   1      -2.404  36.351  23.811  0.00  0.00     0.026 C 
ATOM     12  H13 BDM d   1      -1.983  35.823  24.679  0.00  0.00     0.075 H 
ATOM     13  H14 BDM d   1      -3.271  35.793  23.428  0.00  0.00     0.075 H 
BRANCH  11  14
ATOM     14  C16 BDM d   1      -2.809  37.788  24.194  0.00  0.00    -0.044 C 
ATOM     15  H15 BDM d   1      -3.490  38.157  23.413  0.00  0.00     0.036 H 
ATOM     16  H16 BDM d   1      -1.893  38.398  24.200  0.00  0.00     0.036 H 
BRANCH  14  17
ATOM     17  C17 BDM d   1      -3.508  37.993  25.549  0.00  0.00    -0.051 C 
ATOM     18  H17 BDM d   1      -2.875  37.573  26.344  0.00  0.00     0.034 H 
ATOM     19  H18 BDM d   1      -4.475  37.469  25.535  0.00  0.00     0.034 H 
BRANCH  17  20
ATOM     20  C18 BDM d   1      -3.754  39.497  25.843  0.00  0.00     0.031 C 
ATOM     21  H19 BDM d   1      -3.047  40.063  25.219  0.00  0.00     0.056 H 
BRANCH  20  22
ATOM     22  C19 BDM d   1      -5.178  39.879  25.396  0.00  0.00    -0.043 C 
ATOM     23  H20 BDM d   1      -5.360  40.932  25.657  0.00  0.00     0.035 H 
ATOM     24  H21 BDM d   1      -5.899  39.240  25.927  0.00  0.00     0.035 H 
BRANCH  22  25
ATOM     25  C20 BDM d   1      -5.382  39.702  23.879  0.00  0.00     0.017 C 
ATOM     26  H22 BDM d   1      -5.245  38.638  23.637  0.00  0.00     0.049 H 
ATOM     27  H23 BDM d   1      -4.618  40.298  23.358  0.00  0.00     0.049 H 
BRANCH  25  28
ATOM     28  C22 BDM d   1      -6.762  40.137  23.363  0.00  0.00     0.172 C 
ATOM     29  O30 BDM d   1      -7.445  39.313  22.716  0.00  0.00    -0.648 OA
ATOM     30  O31 BDM d   1      -7.160  41.303  23.581  0.00  0.00    -0.648 OA
ENDBRANCH  25  28
ENDBRANCH  22  25
ENDBRANCH  20  22
BRANCH  20  31
ATOM     31  C21 BDM d   1      -3.493  39.928  27.304  0.00  0.00     0.177 C 
ATOM     32  O27 BDM d   1      -3.278  41.139  27.535  0.00  0.00    -0.648 OA
ATOM     33  O28 BDM d   1      -3.489  39.075  28.218  0.00  0.00    -0.648 OA
ENDBRANCH  20  31
ENDBRANCH  17  20
ENDBRANCH  14  17
ENDBRANCH  11  14
ENDBRANCH  10  11
ENDBRANCH   3  10
BRANCH   1  34
ATOM     34  C7  BDM d   1      -0.798  31.900  20.648  0.00  0.00    -0.012 C 
ATOM     35  H6  BDM d   1      -0.442  31.682  19.630  0.00  0.00     0.047 H 
ATOM     36  H7  BDM d   1      -0.090  31.486  21.381  0.00  0.00     0.047 H 
BRANCH  34  37
ATOM     37  C5  BDM d   1      -2.127  31.162  20.833  0.00  0.00     0.010 A 
ATOM     38  C4  BDM d   1      -2.224  29.807  21.269  0.00  0.00     0.148 A 
ATOM     39  N3  BDM d   1      -3.402  29.278  21.578  0.00  0.00    -0.045 NA
ATOM     40  C2  BDM d   1      -4.473  30.040  21.467  0.00  0.00     0.721 A 
ATOM     41  N1  BDM d   1      -4.508  31.289  21.030  0.00  0.00    -0.075 NA
ATOM     42  C6  BDM d   1      -3.352  31.858  20.701  0.00  0.00     0.031 A 
ATOM     43  H5  BDM d   1      -3.348  32.874  20.325  0.00  0.00     0.116 H 
BRANCH  38  44
ATOM     44  N4  BDM d   1      -1.144  29.045  21.423  0.00  0.00    -0.383 N 
ATOM     45  H3  BDM d   1      -0.212  29.420  21.194  0.00  0.00     0.157 HD
ATOM     46  H4  BDM d   1      -1.240  28.080  21.771  0.00  0.00     0.157 HD
ENDBRANCH  38  44
BRANCH  40  47
ATOM     47  N2  BDM d   1      -5.607  29.515  21.900  0.00  0.00    -0.231 N 
ATOM     48  H1  BDM d   1      -6.481  30.057  21.842  0.00  0.00     0.174 HD
ATOM     49  H2  BDM d   1      -5.616  28.564  22.295  0.00  0.00     0.174 HD
ENDBRANCH  40  47
ENDBRANCH  34  37
ENDBRANCH   1  34
BRANCH   6  50
ATOM     50  O12 BDM d   1       0.804  35.908  18.686  0.00  0.00    -0.354 OA
BRANCH  50  51
ATOM     51  C14 BDM d   1       2.209  35.700  18.828  0.00  0.00     0.010 C 
ATOM     52  H10 BDM d   1       2.736  36.164  17.981  0.00  0.00     0.066 H 
ATOM     53  H11 BDM d   1       2.420  34.621  18.844  0.00  0.00     0.066 H 
ATOM     54  H12 BDM d   1       2.554  36.155  19.768  0.00  0.00     0.066 H 
ENDBRANCH  50  51
ENDBRANCH   6  50
TORSDOF 15
