REMARK  2 active torsions:
REMARK  status: ('A' for Active; 'I' for Inactive)
REMARK    1  A    between atoms: C11_19  and  N5_8 
REMARK    2  A    between atoms: C8_16  and  C9_17 
ROOT
ATOM      1 BR1  HMD d   1      23.120  26.871  28.136  0.00  0.00    -0.031 Br
ATOM      2  O1  HMD d   1      25.184  31.320  30.286  0.00  0.00    -0.266 OA
ATOM      3  N1  HMD d   1      24.542  29.157  28.792  0.00  0.00    -0.345 N 
ATOM      4  N2  HMD d   1      26.744  32.069  28.786  0.00  0.00    -0.356 N 
ATOM      5  C1  HMD d   1      24.565  28.027  28.082  0.00  0.00     0.080 A 
ATOM      6  C2  HMD d   1      25.729  27.908  27.381  0.00  0.00    -0.041 A 
ATOM      7  C3  HMD d   1      26.490  29.072  27.672  0.00  0.00    -0.013 A 
ATOM      8  C4  HMD d   1      25.692  29.833  28.581  0.00  0.00     0.108 A 
ATOM      9  C5  HMD d   1      25.860  31.121  29.268  0.00  0.00     0.268 C 
ATOM     10  C6  HMD d   1      27.615  31.988  27.601  0.00  0.00    -0.004 C 
ATOM     11  C7  HMD d   1      28.521  30.770  27.600  0.00  0.00    -0.038 C 
ATOM     12  C8  HMD d   1      27.838  29.518  27.057  0.00  0.00     0.024 C 
ATOM     13  H1  HMD d   1      23.771  29.464  29.402  0.00  0.00     0.167 HD
ATOM     14  H2  HMD d   1      26.799  32.919  29.310  0.00  0.00     0.162 HD
ATOM     15  H5  HMD d   1      26.017  27.085  26.729  0.00  0.00     0.088 H 
ATOM     16  H6  HMD d   1      28.244  32.890  27.568  0.00  0.00     0.064 H 
ATOM     17  H7  HMD d   1      26.980  31.951  26.704  0.00  0.00     0.064 H 
ATOM     18  H8  HMD d   1      28.844  30.573  28.633  0.00  0.00     0.036 H 
ATOM     19  H9  HMD d   1      29.400  30.988  26.976  0.00  0.00     0.036 H 
ATOM     20  H10 HMD d   1      28.378  28.896  27.786  0.00  0.00     0.057 H 
ENDROOT
BRANCH  12  21
ATOM     21  C9  HMD d   1      28.432  28.805  26.010  0.00  0.00     0.132 A 
ATOM     22  N4  HMD d   1      27.950  27.650  25.376  0.00  0.00    -0.061 NA
ATOM     23  C11 HMD d   1      28.789  27.308  24.381  0.00  0.00     0.724 A 
ATOM     24  N3  HMD d   1      29.858  28.107  24.284  0.00  0.00    -0.020 NA
ATOM     25  C10 HMD d   1      29.725  29.046  25.251  0.00  0.00     0.309 A 
ATOM     26  O2  HMD d   1      30.537  29.959  25.467  0.00  0.00    -0.263 OA
BRANCH  23  27
ATOM     27  N5  HMD d   1      28.548  26.271  23.602  0.00  0.00    -0.231 N 
ATOM     28  H3  HMD d   1      29.206  26.030  22.847  0.00  0.00     0.174 HD
ATOM     29  H4  HMD d   1      27.702  25.702  23.749  0.00  0.00     0.174 HD
ENDBRANCH  23  27
ENDBRANCH  12  21
TORSDOF 2
