REMARK  28 active torsions:
REMARK  status: ('A' for Active; 'I' for Inactive)
REMARK    1  A    between atoms: C21_2  and  O21_3 
REMARK    2  A    between atoms: C31_4  and  O31_5 
REMARK    3  A    between atoms: C51_8  and  C61_10 
REMARK    4  A    between atoms: C61_10  and  O61_11 
REMARK    5  A    between atoms: C22_13  and  O22_14 
REMARK    6  A    between atoms: C32_15  and  O32_16 
REMARK    7  A    between atoms: C52_19  and  C62_21 
REMARK    8  A    between atoms: C62_21  and  O62_22 
REMARK    9  A    between atoms: C23_24  and  O23_25 
REMARK   10  A    between atoms: C33_26  and  O33_27 
REMARK   11  A    between atoms: C53_30  and  C63_32 
REMARK   12  A    between atoms: C63_32  and  O63_33 
REMARK   13  A    between atoms: C24_35  and  O24_36 
REMARK   14  A    between atoms: C34_37  and  O34_38 
REMARK   15  A    between atoms: C54_41  and  C64_43 
REMARK   16  A    between atoms: C64_43  and  O64_44 
REMARK   17  A    between atoms: C25_46  and  O25_47 
REMARK   18  A    between atoms: C35_48  and  O35_49 
REMARK   19  A    between atoms: C55_52  and  C65_54 
REMARK   20  A    between atoms: C65_54  and  O65_55 
REMARK   21  A    between atoms: C26_57  and  O26_58 
REMARK   22  A    between atoms: C36_59  and  O36_60 
REMARK   23  A    between atoms: C56_63  and  C66_65 
REMARK   24  A    between atoms: C66_65  and  O66_66 
REMARK   25  A    between atoms: C27_68  and  O27_69 
REMARK   26  A    between atoms: C37_70  and  O37_71 
REMARK   27  A    between atoms: C57_74  and  C67_76 
REMARK   28  A    between atoms: C67_76  and  O67_77 
ROOT
ATOM      1  C11 BCD d   1     -10.695  -3.048   2.018  0.00  0.00     0.159 C 
ATOM      2  C21 BCD d   1      -9.822  -2.557   0.835  0.00  0.00     0.110 C 
ATOM      3  C31 BCD d   1      -8.347  -2.840   1.090  0.00  0.00     0.092 C 
ATOM      4  C41 BCD d   1      -7.919  -2.296   2.440  0.00  0.00     0.096 C 
ATOM      5  O41 BCD d   1      -6.611  -2.820   2.694  0.00  0.00    -0.348 OA
ATOM      6  C51 BCD d   1      -8.844  -2.756   3.560  0.00  0.00     0.089 C 
ATOM      7  O51 BCD d   1     -10.233  -2.402   3.204  0.00  0.00    -0.348 OA
ATOM      8  C12 BCD d   1      -5.613  -1.953   3.133  0.00  0.00     0.159 C 
ATOM      9  C22 BCD d   1      -4.333  -2.133   2.309  0.00  0.00     0.110 C 
ATOM     10  C32 BCD d   1      -3.686  -3.461   2.647  0.00  0.00     0.092 C 
ATOM     11  C42 BCD d   1      -3.395  -3.532   4.144  0.00  0.00     0.096 C 
ATOM     12  O42 BCD d   1      -2.841  -4.818   4.436  0.00  0.00    -0.348 OA
ATOM     13  C52 BCD d   1      -4.686  -3.107   4.929  0.00  0.00     0.089 C 
ATOM     14  O52 BCD d   1      -5.344  -2.160   4.511  0.00  0.00    -0.348 OA
ATOM     15  C13 BCD d   1      -1.517  -5.001   4.857  0.00  0.00     0.159 C 
ATOM     16  C23 BCD d   1      -0.932  -6.211   4.128  0.00  0.00     0.110 C 
ATOM     17  C33 BCD d   1      -1.625  -7.480   4.573  0.00  0.00     0.092 C 
ATOM     18  C43 BCD d   1      -1.553  -7.642   6.070  0.00  0.00     0.096 C 
ATOM     19  O43 BCD d   1      -2.369  -8.742   6.418  0.00  0.00    -0.348 OA
ATOM     20  C53 BCD d   1      -2.142  -6.400   6.742  0.00  0.00     0.089 C 
ATOM     21  O53 BCD d   1      -1.493  -5.234   6.262  0.00  0.00    -0.348 OA
ATOM     22  C14 BCD d   1      -1.964  -9.647   7.437  0.00  0.00     0.159 C 
ATOM     23  C24 BCD d   1      -1.402 -10.903   6.699  0.00  0.00     0.110 C 
ATOM     24  C34 BCD d   1      -2.519 -11.412   5.791  0.00  0.00     0.092 C 
ATOM     25  C44 BCD d   1      -3.690 -11.818   6.656  0.00  0.00     0.096 C 
ATOM     26  O44 BCD d   1      -4.781 -12.155   5.775  0.00  0.00    -0.348 OA
ATOM     27  C54 BCD d   1      -4.138 -10.630   7.509  0.00  0.00     0.089 C 
ATOM     28  O54 BCD d   1      -3.073 -10.004   8.199  0.00  0.00    -0.348 OA
ATOM     29  C15 BCD d   1      -5.419 -13.414   5.945  0.00  0.00     0.159 C 
ATOM     30  C25 BCD d   1      -5.707 -13.994   4.576  0.00  0.00     0.110 C 
ATOM     31  C35 BCD d   1      -6.800 -13.172   3.886  0.00  0.00     0.092 C 
ATOM     32  C45 BCD d   1      -8.010 -13.090   4.780  0.00  0.00     0.096 C 
ATOM     33  O45 BCD d   1      -8.930 -12.190   4.114  0.00  0.00    -0.348 OA
ATOM     34  C55 BCD d   1      -7.665 -12.498   6.169  0.00  0.00     0.089 C 
ATOM     35  O55 BCD d   1      -6.571 -13.255   6.733  0.00  0.00    -0.348 OA
ATOM     36  C16 BCD d   1     -10.304 -12.590   4.018  0.00  0.00     0.159 C 
ATOM     37  C26 BCD d   1     -10.713 -12.447   2.599  0.00  0.00     0.110 C 
ATOM     38  C36 BCD d   1     -10.959 -10.996   2.183  0.00  0.00     0.092 C 
ATOM     39  C46 BCD d   1     -11.608 -10.162   3.187  0.00  0.00     0.096 C 
ATOM     40  O46 BCD d   1     -11.342  -8.781   2.766  0.00  0.00    -0.348 OA
ATOM     41  C56 BCD d   1     -11.029 -10.352   4.581  0.00  0.00     0.089 C 
ATOM     42  O56 BCD d   1     -11.092 -11.766   4.871  0.00  0.00    -0.348 OA
ATOM     43  C17 BCD d   1     -12.461  -8.130   2.145  0.00  0.00     0.159 C 
ATOM     44  C27 BCD d   1     -12.023  -7.621   0.792  0.00  0.00     0.110 C 
ATOM     45  C37 BCD d   1     -11.132  -6.390   0.892  0.00  0.00     0.092 C 
ATOM     46  C47 BCD d   1     -11.670  -5.344   1.883  0.00  0.00     0.096 C 
ATOM     47  O47 BCD d   1     -10.554  -4.443   2.051  0.00  0.00    -0.348 OA
ATOM     48  C57 BCD d   1     -11.910  -6.045   3.225  0.00  0.00     0.089 C 
ATOM     49  O57 BCD d   1     -12.888  -7.112   3.002  0.00  0.00    -0.348 OA
ATOM     50  H1  BCD d   1     -11.752  -2.789   1.854  0.00  0.00     0.133 H 
ATOM     51  H2  BCD d   1      -9.944  -1.468   0.742  0.00  0.00     0.094 H 
ATOM     52  H4  BCD d   1      -8.190  -3.929   1.080  0.00  0.00     0.091 H 
ATOM     53  H6  BCD d   1      -7.897  -1.197   2.410  0.00  0.00     0.091 H 
ATOM     54  H7  BCD d   1      -8.744  -3.847   3.659  0.00  0.00     0.090 H 
ATOM     55  H11 BCD d   1      -5.969  -0.921   3.000  0.00  0.00     0.133 H 
ATOM     56  H12 BCD d   1      -3.621  -1.339   2.578  0.00  0.00     0.094 H 
ATOM     57  H14 BCD d   1      -4.361  -4.283   2.366  0.00  0.00     0.091 H 
ATOM     58  H16 BCD d   1      -2.619  -2.790   4.385  0.00  0.00     0.091 H 
ATOM     59  H17 BCD d   1      -5.367  -3.931   4.669  0.00  0.00     0.090 H 
ATOM     60  H21 BCD d   1      -0.925  -4.104   4.622  0.00  0.00     0.133 H 
ATOM     61  H22 BCD d   1       0.144  -6.286   4.344  0.00  0.00     0.094 H 
ATOM     62  H24 BCD d   1      -2.687  -7.412   4.293  0.00  0.00     0.091 H 
ATOM     63  H26 BCD d   1      -0.514  -7.803   6.394  0.00  0.00     0.091 H 
ATOM     64  H27 BCD d   1      -3.219  -6.346   6.525  0.00  0.00     0.090 H 
ATOM     65  H31 BCD d   1      -1.194  -9.195   8.079  0.00  0.00     0.133 H 
ATOM     66  H32 BCD d   1      -1.141 -11.678   7.435  0.00  0.00     0.094 H 
ATOM     67  H34 BCD d   1      -2.842 -10.590   5.135  0.00  0.00     0.091 H 
ATOM     68  H36 BCD d   1      -3.421 -12.672   7.295  0.00  0.00     0.091 H 
ATOM     69  H37 BCD d   1      -4.648  -9.897   6.866  0.00  0.00     0.090 H 
ATOM     70  H41 BCD d   1      -4.735 -14.095   6.473  0.00  0.00     0.133 H 
ATOM     71  H42 BCD d   1      -6.050 -15.032   4.699  0.00  0.00     0.094 H 
ATOM     72  H44 BCD d   1      -6.421 -12.158   3.692  0.00  0.00     0.091 H 
ATOM     73  H46 BCD d   1      -8.458 -14.087   4.904  0.00  0.00     0.091 H 
ATOM     74  H47 BCD d   1      -7.388 -11.438   6.066  0.00  0.00     0.090 H 
ATOM     75  H51 BCD d   1     -10.412 -13.640   4.328  0.00  0.00     0.133 H 
ATOM     76  H52 BCD d   1     -11.627 -13.034   2.425  0.00  0.00     0.094 H 
ATOM     77  H54 BCD d   1      -9.989 -10.538   1.940  0.00  0.00     0.091 H 
ATOM     78  H56 BCD d   1     -12.688 -10.368   3.208  0.00  0.00     0.091 H 
ATOM     79  H57 BCD d   1      -9.986 -10.004   4.576  0.00  0.00     0.090 H 
ATOM     80  H61 BCD d   1     -13.283  -8.848   2.006  0.00  0.00     0.133 H 
ATOM     81  H62 BCD d   1     -12.919  -7.366   0.207  0.00  0.00     0.094 H 
ATOM     82  H64 BCD d   1     -10.130  -6.705   1.218  0.00  0.00     0.091 H 
ATOM     83  H66 BCD d   1     -12.576  -4.838   1.518  0.00  0.00     0.091 H 
ATOM     84  H67 BCD d   1     -10.962  -6.449   3.610  0.00  0.00     0.090 H 
ENDROOT
BRANCH   6  85
ATOM     85  C61 BCD d   1      -8.606  -2.123   4.910  0.00  0.00     0.043 C 
ATOM     86  H8  BCD d   1      -8.831  -1.047   4.859  0.00  0.00     0.078 H 
ATOM     87  H9  BCD d   1      -7.556  -2.265   5.205  0.00  0.00     0.078 H 
BRANCH  85  88
ATOM     88  O61 BCD d   1      -9.468  -2.752   5.872  0.00  0.00    -0.398 OA
ATOM     89  H10 BCD d   1     -10.373  -2.629   5.612  0.00  0.00     0.209 HD
ENDBRANCH  85  88
ENDBRANCH   6  85
BRANCH   3  90
ATOM     90  O31 BCD d   1      -7.539  -2.239   0.055  0.00  0.00    -0.390 OA
ATOM     91  H5  BCD d   1      -6.622  -2.422   0.224  0.00  0.00     0.210 HD
ENDBRANCH   3  90
BRANCH   2  92
ATOM     92  O21 BCD d   1     -10.292  -3.169  -0.384  0.00  0.00    -0.388 OA
ATOM     93  H3  BCD d   1     -10.227  -4.114  -0.308  0.00  0.00     0.210 HD
ENDBRANCH   2  92
BRANCH   9  94
ATOM     94  O22 BCD d   1      -4.676  -1.971   0.924  0.00  0.00    -0.388 OA
ATOM     95  H13 BCD d   1      -5.320  -2.625   0.680  0.00  0.00     0.210 HD
ENDBRANCH   9  94
BRANCH  10  96
ATOM     96  O32 BCD d   1      -2.455  -3.571   1.909  0.00  0.00    -0.390 OA
ATOM     97  H15 BCD d   1      -2.038  -4.400   2.112  0.00  0.00     0.210 HD
ENDBRANCH  10  96
BRANCH  13  98
ATOM     98  C62 BCD d   1      -4.549  -3.315   6.415  0.00  0.00     0.043 C 
ATOM     99  H18 BCD d   1      -4.188  -2.403   6.912  0.00  0.00     0.078 H 
ATOM    100  H19 BCD d   1      -3.868  -4.149   6.638  0.00  0.00     0.078 H 
BRANCH  98 101
ATOM    101  O62 BCD d   1      -5.883  -3.621   6.808  0.00  0.00    -0.398 OA
ATOM    102  H20 BCD d   1      -6.452  -2.892   6.588  0.00  0.00     0.209 HD
ENDBRANCH  98 101
ENDBRANCH  13  98
BRANCH  45 103
ATOM    103  O37 BCD d   1     -11.049  -5.776  -0.411  0.00  0.00    -0.390 OA
ATOM    104  H65 BCD d   1     -10.495  -5.006  -0.362  0.00  0.00     0.210 HD
ENDBRANCH  45 103
BRANCH  48 105
ATOM    105  C67 BCD d   1     -12.545  -5.111   4.255  0.00  0.00     0.043 C 
ATOM    106  H68 BCD d   1     -13.613  -5.345   4.375  0.00  0.00     0.078 H 
ATOM    107  H69 BCD d   1     -12.433  -4.063   3.940  0.00  0.00     0.078 H 
BRANCH 105 108
ATOM    108  O67 BCD d   1     -11.847  -5.338   5.480  0.00  0.00    -0.398 OA
ATOM    109  H70 BCD d   1     -12.207  -4.777   6.157  0.00  0.00     0.209 HD
ENDBRANCH 105 108
ENDBRANCH  48 105
BRANCH  44 110
ATOM    110  O27 BCD d   1     -11.276  -8.655   0.107  0.00  0.00    -0.388 OA
ATOM    111  H63 BCD d   1     -11.827  -9.421  -0.005  0.00  0.00     0.210 HD
ENDBRANCH  44 110
BRANCH  16 112
ATOM    112  O23 BCD d   1      -1.137  -6.034   2.698  0.00  0.00    -0.388 OA
ATOM    113  H23 BCD d   1      -2.067  -5.966   2.519  0.00  0.00     0.210 HD
ENDBRANCH  16 112
BRANCH  17 114
ATOM    114  O33 BCD d   1      -1.047  -8.602   3.875  0.00  0.00    -0.390 OA
ATOM    115  H25 BCD d   1      -1.479  -9.402   4.151  0.00  0.00     0.210 HD
ENDBRANCH  17 114
BRANCH  20 116
ATOM    116  C63 BCD d   1      -1.916  -6.454   8.275  0.00  0.00     0.043 C 
ATOM    117  H28 BCD d   1      -0.880  -6.783   8.444  0.00  0.00     0.078 H 
ATOM    118  H29 BCD d   1      -2.610  -7.204   8.684  0.00  0.00     0.078 H 
BRANCH 116 119
ATOM    119  O63 BCD d   1      -2.099  -5.298   8.983  0.00  0.00    -0.398 OA
ATOM    120  H30 BCD d   1      -1.931  -5.462   9.904  0.00  0.00     0.209 HD
ENDBRANCH 116 119
ENDBRANCH  20 116
BRANCH  38 121
ATOM    121  O36 BCD d   1     -11.798 -11.037   0.979  0.00  0.00    -0.390 OA
ATOM    122  H55 BCD d   1     -11.975 -10.150   0.687  0.00  0.00     0.210 HD
ENDBRANCH  38 121
BRANCH  41 123
ATOM    123  C66 BCD d   1     -11.772  -9.657   5.726  0.00  0.00     0.043 C 
ATOM    124  H58 BCD d   1     -12.504  -8.947   5.313  0.00  0.00     0.078 H 
ATOM    125  H59 BCD d   1     -11.052  -9.116   6.358  0.00  0.00     0.078 H 
BRANCH 123 126
ATOM    126  O66 BCD d   1     -12.379 -10.540   6.427  0.00  0.00    -0.398 OA
ATOM    127  H60 BCD d   1     -11.745 -11.152   6.781  0.00  0.00     0.209 HD
ENDBRANCH 123 126
ENDBRANCH  41 123
BRANCH  37 128
ATOM    128  O26 BCD d   1      -9.633 -12.943   1.788  0.00  0.00    -0.388 OA
ATOM    129  H53 BCD d   1      -8.849 -12.435   1.962  0.00  0.00     0.210 HD
ENDBRANCH  37 128
BRANCH  23 130
ATOM    130  O24 BCD d   1      -0.248 -10.584   5.947  0.00  0.00    -0.388 OA
ATOM    131  H33 BCD d   1      -0.466  -9.925   5.299  0.00  0.00     0.210 HD
ENDBRANCH  23 130
BRANCH  24 132
ATOM    132  O34 BCD d   1      -2.054 -12.478   4.960  0.00  0.00    -0.390 OA
ATOM    133  H35 BCD d   1      -1.752 -13.195   5.506  0.00  0.00     0.210 HD
ENDBRANCH  24 132
BRANCH  27 134
ATOM    134  C64 BCD d   1      -5.102 -11.149   8.634  0.00  0.00     0.043 C 
ATOM    135  H38 BCD d   1      -4.612 -11.944   9.215  0.00  0.00     0.078 H 
ATOM    136  H39 BCD d   1      -6.029 -11.538   8.188  0.00  0.00     0.078 H 
BRANCH 134 137
ATOM    137  O64 BCD d   1      -5.390 -10.038   9.471  0.00  0.00    -0.398 OA
ATOM    138  H40 BCD d   1      -4.582  -9.707   9.845  0.00  0.00     0.209 HD
ENDBRANCH 134 137
ENDBRANCH  27 134
BRANCH  31 139
ATOM    139  O35 BCD d   1      -7.171 -13.786   2.640  0.00  0.00    -0.390 OA
ATOM    140  H45 BCD d   1      -7.849 -13.268   2.222  0.00  0.00     0.210 HD
ENDBRANCH  31 139
BRANCH  34 141
ATOM    141  C65 BCD d   1      -8.818 -12.637   7.086  0.00  0.00     0.043 C 
ATOM    142  H48 BCD d   1      -8.897 -13.691   7.391  0.00  0.00     0.078 H 
ATOM    143  H49 BCD d   1      -9.730 -12.342   6.547  0.00  0.00     0.078 H 
BRANCH 141 144
ATOM    144  O65 BCD d   1      -8.706 -11.845   8.242  0.00  0.00    -0.398 OA
ATOM    145  H50 BCD d   1      -9.471 -11.976   8.789  0.00  0.00     0.209 HD
ENDBRANCH 141 144
ENDBRANCH  34 141
BRANCH  30 146
ATOM    146  O25 BCD d   1      -4.546 -13.981   3.725  0.00  0.00    -0.388 OA
ATOM    147  H43 BCD d   1      -4.249 -13.086   3.610  0.00  0.00     0.210 HD
ENDBRANCH  30 146
TORSDOF 28
