REMARK  17 active torsions:
REMARK  status: ('A' for Active; 'I' for Inactive)
REMARK    1  A    between atoms: C1_1  and  O1_2 
REMARK    2  A    between atoms: O1_2  and  P_12 
REMARK    3  A    between atoms: C2_3  and  O2_4 
REMARK    4  A    between atoms: C3_5  and  O3_6 
REMARK    5  A    between atoms: C4_7  and  O4_8 
REMARK    6  A    between atoms: C5_9  and  C6_11 
REMARK    7  A    between atoms: P_12  and  N_15 
REMARK    8  A    between atoms: N_15  and  CA_16 
REMARK    9  A    between atoms: CA_16  and  C_17 
REMARK   10  A    between atoms: CA_16  and  CB_19 
REMARK       I    between atoms: C_17  and  N1_23 
REMARK   11  A    between atoms: CB_19  and  CG_20 
REMARK   12  A    between atoms: CG_20  and  CD1_21 
REMARK   13  A    between atoms: CG_20  and  CD2_22 
REMARK   14  A    between atoms: N1_23  and  CA1_24 
REMARK   15  A    between atoms: CA1_24  and  C7_25 
REMARK   16  A    between atoms: CA1_24  and  CB1_27 
REMARK   17  A    between atoms: CB1_27  and  CG1_28 
ROOT
ATOM      1  CA  RDF d   1      29.998  44.409  33.237  0.00  0.00     0.093 C 
ATOM      2  H13 RDF d   1      30.839  44.697  32.590  0.00  0.00     0.087 H 
ENDROOT
BRANCH   1   3
ATOM      3  N   RDF d   1      28.802  44.006  32.409  0.00  0.00    -0.312 N 
ATOM      4  H12 RDF d   1      27.890  44.252  32.737  0.00  0.00     0.166 HD
BRANCH   3   5
ATOM      5  P   RDF d   1      28.934  43.157  30.951  0.00  0.00     0.362 P 
ATOM      6  O1P RDF d   1      30.138  42.275  31.082  0.00  0.00    -0.630 OA
ATOM      7  O2P RDF d   1      28.936  44.108  29.852  0.00  0.00    -0.630 OA
BRANCH   5   8
ATOM      8  O1  RDF d   1      27.623  42.272  30.819  0.00  0.00    -0.261 OA
BRANCH   8   9
ATOM      9  C1  RDF d   1      27.216  41.193  31.609  0.00  0.00     0.170 C 
ATOM     10  C2  RDF d   1      25.686  41.002  31.497  0.00  0.00     0.110 C 
ATOM     11  C3  RDF d   1      25.294  40.544  30.073  0.00  0.00     0.092 C 
ATOM     12  H2  RDF d   1      25.202  41.971  31.689  0.00  0.00     0.094 H 
ATOM     13  C4  RDF d   1      26.064  39.258  29.701  0.00  0.00     0.087 C 
ATOM     14  H4  RDF d   1      25.610  41.328  29.369  0.00  0.00     0.091 H 
ATOM     15  C5  RDF d   1      27.553  39.556  29.904  0.00  0.00     0.065 C 
ATOM     16  H6  RDF d   1      25.737  38.403  30.312  0.00  0.00     0.091 H 
ATOM     17  O5  RDF d   1      27.865  39.981  31.233  0.00  0.00    -0.350 OA
ATOM     18  H8  RDF d   1      27.805  40.389  29.231  0.00  0.00     0.086 H 
ATOM     19  H1  RDF d   1      27.471  41.415  32.656  0.00  0.00     0.134 H 
BRANCH  10  20
ATOM     20  O2  RDF d   1      25.239  40.086  32.472  0.00  0.00    -0.388 OA
ATOM     21  H3  RDF d   1      24.299  39.976  32.394  0.00  0.00     0.210 HD
ENDBRANCH  10  20
BRANCH  11  22
ATOM     22  O3  RDF d   1      23.855  40.413  29.947  0.00  0.00    -0.390 OA
ATOM     23  H5  RDF d   1      23.640  40.131  29.066  0.00  0.00     0.210 HD
ENDBRANCH  11  22
BRANCH  13  24
ATOM     24  O4  RDF d   1      25.856  39.005  28.287  0.00  0.00    -0.390 OA
ATOM     25  H7  RDF d   1      26.183  39.741  27.783  0.00  0.00     0.210 HD
ENDBRANCH  13  24
BRANCH  15  26
ATOM     26  C6  RDF d   1      28.417  38.385  29.512  0.00  0.00    -0.050 C 
ATOM     27  H9  RDF d   1      29.475  38.640  29.673  0.00  0.00     0.031 H 
ATOM     28  H10 RDF d   1      28.254  38.148  28.450  0.00  0.00     0.031 H 
ATOM     29  H11 RDF d   1      28.153  37.512  30.127  0.00  0.00     0.031 H 
ENDBRANCH  15  26
ENDBRANCH   8   9
ENDBRANCH   5   8
ENDBRANCH   3   5
ENDBRANCH   1   3
BRANCH   1  30
ATOM     30  C   RDF d   1      30.385  43.266  34.144  0.00  0.00     0.241 C 
ATOM     31  O   RDF d   1      31.505  42.894  34.416  0.00  0.00    -0.271 OA
ATOM     32  N1  RDF d   1      29.268  42.549  34.752  0.00  0.00    -0.344 N 
ATOM     33  H23 RDF d   1      28.314  42.798  34.588  0.00  0.00     0.163 HD
BRANCH  32  34
ATOM     34  CA1 RDF d   1      29.661  41.419  35.634  0.00  0.00     0.100 C 
ATOM     35  H24 RDF d   1      30.580  40.948  35.255  0.00  0.00     0.090 H 
BRANCH  34  36
ATOM     36  C7  RDF d   1      28.505  40.373  35.637  0.00  0.00     0.197 C 
ATOM     37  O6  RDF d   1      27.454  40.590  34.974  0.00  0.00    -0.646 OA
ATOM     38  OXT RDF d   1      28.682  39.360  36.309  0.00  0.00    -0.646 OA
ENDBRANCH  34  36
BRANCH  34  39
ATOM     39  CB1 RDF d   1      29.919  41.982  37.074  0.00  0.00    -0.011 C 
ATOM     40  H25 RDF d   1      30.509  42.908  37.006  0.00  0.00     0.044 H 
ATOM     41  H26 RDF d   1      30.472  41.238  37.666  0.00  0.00     0.044 H 
BRANCH  39  42
ATOM     42  CG1 RDF d   1      28.581  42.278  37.748  0.00  0.00    -0.028 A 
ATOM     43  CD1 RDF d   1      27.654  43.196  37.336  0.00  0.00    -0.015 A 
ATOM     44  NE1 RDF d   1      26.552  43.156  38.173  0.00  0.00    -0.365 N 
ATOM     45  H27 RDF d   1      27.766  43.858  36.479  0.00  0.00     0.112 H 
ATOM     46  CE2 RDF d   1      26.756  42.188  39.163  0.00  0.00     0.042 A 
ATOM     47  H28 RDF d   1      25.713  43.746  38.081  0.00  0.00     0.165 HD
ATOM     48  CD2 RDF d   1      28.030  41.625  38.910  0.00  0.00    -0.002 A 
ATOM     49  CZ2 RDF d   1      25.904  41.787  40.242  0.00  0.00    -0.056 A 
ATOM     50  CE3 RDF d   1      28.516  40.589  39.779  0.00  0.00    -0.070 A 
ATOM     51  CZ3 RDF d   1      27.709  40.173  40.847  0.00  0.00    -0.082 A 
ATOM     52  H29 RDF d   1      29.488  40.138  39.612  0.00  0.00     0.084 H 
ATOM     53  CH2 RDF d   1      26.399  40.771  41.078  0.00  0.00    -0.081 A 
ATOM     54  H31 RDF d   1      28.064  39.394  41.512  0.00  0.00     0.083 H 
ATOM     55  H32 RDF d   1      25.796  40.426  41.910  0.00  0.00     0.083 H 
ATOM     56  H30 RDF d   1      24.933  42.241  40.405  0.00  0.00     0.086 H 
ENDBRANCH  39  42
ENDBRANCH  34  39
ENDBRANCH  32  34
ENDBRANCH   1  30
BRANCH   1  57
ATOM     57  CB  RDF d   1      29.569  45.580  34.148  0.00  0.00    -0.035 C 
ATOM     58  H14 RDF d   1      28.667  45.272  34.698  0.00  0.00     0.037 H 
ATOM     59  H15 RDF d   1      29.331  46.442  33.507  0.00  0.00     0.037 H 
BRANCH  57  60
ATOM     60  CG  RDF d   1      30.621  46.024  35.171  0.00  0.00    -0.059 C 
ATOM     61  H16 RDF d   1      30.886  45.183  35.829  0.00  0.00     0.038 H 
BRANCH  60  62
ATOM     62  CD1 RDF d   1      29.954  47.145  35.984  0.00  0.00    -0.073 C 
ATOM     63  H17 RDF d   1      30.658  47.515  36.744  0.00  0.00     0.028 H 
ATOM     64  H18 RDF d   1      29.053  46.753  36.478  0.00  0.00     0.028 H 
ATOM     65  H19 RDF d   1      29.674  47.969  35.311  0.00  0.00     0.028 H 
ENDBRANCH  60  62
BRANCH  60  66
ATOM     66  CD2 RDF d   1      31.908  46.546  34.472  0.00  0.00    -0.073 C 
ATOM     67  H20 RDF d   1      32.369  45.730  33.897  0.00  0.00     0.028 H 
ATOM     68  H21 RDF d   1      32.618  46.906  35.232  0.00  0.00     0.028 H 
ATOM     69  H22 RDF d   1      31.648  47.372  33.793  0.00  0.00     0.028 H 
ENDBRANCH  60  66
ENDBRANCH  57  60
ENDBRANCH   1  57
TORSDOF 17
