REMARK WARNING: 32 MAX_TORS EXCEEDED!!!
REMARK  79 active torsions:
REMARK  status: ('A' for Active; 'I' for Inactive)
REMARK    1  A    between atoms: N_1  and  CA_2 
REMARK    2  A    between atoms: CA_2  and  C_3 
REMARK    3  A    between atoms: CA_2  and  CB_5 
REMARK       I    between atoms: C_3  and  N_12 
REMARK    4  A    between atoms: CB_5  and  CG_6 
REMARK    5  A    between atoms: CG_6  and  CD_7 
REMARK    6  A    between atoms: CD_7  and  NE_8 
REMARK       I    between atoms: NE_8  and  CZ_9 
REMARK       I    between atoms: CZ_9  and  NH1_10 
REMARK       I    between atoms: CZ_9  and  NH2_11 
REMARK    7  A    between atoms: N_12  and  CA_13 
REMARK    8  A    between atoms: CA_13  and  C_14 
REMARK    9  A    between atoms: CA_13  and  CB_16 
REMARK       I    between atoms: C_14  and  N_20 
REMARK   10  A    between atoms: CB_16  and  CG1_17 
REMARK   11  A    between atoms: CB_16  and  CG2_18 
REMARK   12  A    between atoms: CG1_17  and  CD1_19 
REMARK   13  A    between atoms: N_20  and  CA_21 
REMARK   14  A    between atoms: CA_21  and  C_22 
REMARK   15  A    between atoms: CA_21  and  CB_24 
REMARK       I    between atoms: C_22  and  N_29 
REMARK   16  A    between atoms: CB_24  and  CG_25 
REMARK   17  A    between atoms: CG_25  and  CD_26 
REMARK       I    between atoms: CD_26  and  NE2_28 
REMARK   18  A    between atoms: N_29  and  CA_30 
REMARK   19  A    between atoms: CA_30  and  C_31 
REMARK   20  A    between atoms: CA_30  and  CB_33 
REMARK       I    between atoms: C_31  and  N_40 
REMARK   21  A    between atoms: CB_33  and  CG_34 
REMARK   22  A    between atoms: CG_34  and  CD_35 
REMARK   23  A    between atoms: CD_35  and  NE_36 
REMARK       I    between atoms: NE_36  and  CZ_37 
REMARK       I    between atoms: CZ_37  and  NH1_38 
REMARK       I    between atoms: CZ_37  and  NH2_39 
REMARK   24  A    between atoms: N_40  and  CA_41 
REMARK   25  A    between atoms: CA_41  and  C_42 
REMARK   26  A    between atoms: CA_41  and  CB_44 
REMARK       I    between atoms: C_42  and  N_48 
REMARK   27  A    between atoms: CB_44  and  CG_45 
REMARK       I    between atoms: CG_45  and  ND2_47 
REMARK   28  A    between atoms: N_48  and  CA_49 
REMARK   29  A    between atoms: CA_49  and  C_50 
REMARK   30  A    between atoms: CA_49  and  CB_52 
REMARK       I    between atoms: C_50  and  N_57 
REMARK   31  A    between atoms: CB_52  and  CG_53 
REMARK   32  A    between atoms: CG_53  and  CD_54 
REMARK   33  A    between atoms: CD_54  and  CE_55 
REMARK   34  A    between atoms: CE_55  and  NZ_56 
REMARK   35  A    between atoms: N_57  and  CA_58 
REMARK   36  A    between atoms: CA_58  and  C_59 
REMARK   37  A    between atoms: CA_58  and  CB_61 
REMARK       I    between atoms: C_59  and  N_62 
REMARK   38  A    between atoms: N_62  and  CA_63 
REMARK   39  A    between atoms: CA_63  and  C_64 
REMARK   40  A    between atoms: CA_63  and  CB_66 
REMARK       I    between atoms: C_64  and  N_67 
REMARK   41  A    between atoms: N_67  and  CA_68 
REMARK   42  A    between atoms: CA_68  and  C_69 
REMARK   43  A    between atoms: CA_68  and  CB_71 
REMARK       I    between atoms: C_69  and  N_72 
REMARK   44  A    between atoms: N_72  and  CA_73 
REMARK   45  A    between atoms: CA_73  and  C_74 
REMARK   46  A    between atoms: CA_73  and  CB_76 
REMARK       I    between atoms: C_74  and  N_80 
REMARK   47  A    between atoms: CB_76  and  CG_77 
REMARK   48  A    between atoms: CG_77  and  CD1_78 
REMARK   49  A    between atoms: CG_77  and  CD2_79 
REMARK   50  A    between atoms: N_80  and  CA_81 
REMARK   51  A    between atoms: CA_81  and  C_82 
REMARK   52  A    between atoms: CA_81  and  CB_84 
REMARK       I    between atoms: C_82  and  N_88 
REMARK   53  A    between atoms: CB_84  and  CG_85 
REMARK   54  A    between atoms: CG_85  and  CD1_86 
REMARK   55  A    between atoms: CG_85  and  CD2_87 
REMARK   56  A    between atoms: N_88  and  CA_89 
REMARK   57  A    between atoms: CA_89  and  C_90 
REMARK   58  A    between atoms: CA_89  and  CB_92 
REMARK       I    between atoms: C_90  and  N_99 
REMARK   59  A    between atoms: CB_92  and  CG_93 
REMARK   60  A    between atoms: CG_93  and  CD_94 
REMARK   61  A    between atoms: CD_94  and  NE_95 
REMARK       I    between atoms: NE_95  and  CZ_96 
REMARK       I    between atoms: CZ_96  and  NH1_97 
REMARK       I    between atoms: CZ_96  and  NH2_98 
REMARK   62  A    between atoms: N_99  and  CA_100 
REMARK   63  A    between atoms: CA_100  and  C_101 
REMARK   64  A    between atoms: CA_100  and  CB_103 
REMARK       I    between atoms: C_101  and  N_107 
REMARK   65  A    between atoms: CB_103  and  CG_104 
REMARK   66  A    between atoms: CG_104  and  CD1_105 
REMARK   67  A    between atoms: CG_104  and  CD2_106 
REMARK   68  A    between atoms: N_107  and  CA_108 
REMARK   69  A    between atoms: CA_108  and  C_109 
REMARK   70  A    between atoms: CA_108  and  CB_111 
REMARK       I    between atoms: C_109  and  N_112 
REMARK   71  A    between atoms: N_112  and  CA_113 
REMARK   72  A    between atoms: CA_113  and  C_114 
REMARK   73  A    between atoms: CA_113  and  CB_116 
REMARK       I    between atoms: C_114  and  N_117 
REMARK   74  A    between atoms: N_117  and  CA_118 
REMARK   75  A    between atoms: CA_118  and  C_119 
REMARK   76  A    between atoms: CA_118  and  CB_121 
REMARK   77  A    between atoms: CB_121  and  CG_122 
REMARK   78  A    between atoms: CG_122  and  CD_123 
REMARK   79  A    between atoms: CD_123  and  NE_124 
REMARK       I    between atoms: NE_124  and  CZ_125 
REMARK       I    between atoms: CZ_125  and  NH1_126 
ROOT
ATOM      1  CA  ALA d   1      -5.364  -0.563 -19.739  0.00  0.00     0.086 C 
ATOM      2  H73 ALA d   1      -6.114  -0.191 -20.453  0.00  0.00     0.086 H 
ENDROOT
BRANCH   1   3
ATOM      3  N   ALA d   1      -4.196  -0.999 -20.490  0.00  0.00    -0.346 N 
ATOM      4  C   ALA d   1      -3.465  -0.160 -21.230  0.00  0.00     0.240 C 
ATOM      5  O   ALA d   1      -3.766   1.020 -21.382  0.00  0.00    -0.271 OA
ATOM      6  H72 ALA d   1      -3.931  -1.962 -20.451  0.00  0.00     0.163 HD
BRANCH   4   7
ATOM      7  CA  ALA d   1      -2.196  -0.714 -21.871  0.00  0.00     0.086 C 
ATOM      8  H68 ALA d   1      -1.560   0.134 -22.166  0.00  0.00     0.086 H 
BRANCH   7   9
ATOM      9  N   ALA d   1      -1.463  -1.524 -20.909  0.00  0.00    -0.346 N 
ATOM     10  C   LYS d   1      -0.984  -1.018 -19.769  0.00  0.00     0.241 C 
ATOM     11  O   LYS d   1      -1.137   0.161 -19.456  0.00  0.00    -0.271 OA
ATOM     12  H67 ALA d   1      -1.313  -2.492 -21.108  0.00  0.00     0.163 HD
BRANCH  10  13
ATOM     13  CA  LYS d   1      -0.221  -1.970 -18.843  0.00  0.00     0.089 C 
ATOM     14  H55 LYS d   1      -0.138  -1.491 -17.856  0.00  0.00     0.087 H 
BRANCH  13  15
ATOM     15  N   LYS d   1      -0.951  -3.219 -18.682  0.00  0.00    -0.346 N 
ATOM     16  C   ASN d   1      -2.191  -3.242 -18.186  0.00  0.00     0.241 C 
ATOM     17  O   ASN d   1      -2.774  -2.217 -17.831  0.00  0.00    -0.271 OA
ATOM     18  H54 LYS d   1      -0.515  -4.078 -18.948  0.00  0.00     0.163 HD
BRANCH  16  19
ATOM     19  CA  ASN d   1      -2.883  -4.603 -18.091  0.00  0.00     0.097 C 
ATOM     20  H49 ASN d   1      -3.952  -4.419 -17.906  0.00  0.00     0.088 H 
BRANCH  19  21
ATOM     21  N   ASN d   1      -2.771  -5.357 -19.336  0.00  0.00    -0.346 N 
ATOM     22  C   ARG d   1      -3.162  -4.904 -20.530  0.00  0.00     0.241 C 
ATOM     23  O   ARG d   1      -3.465  -3.727 -20.713  0.00  0.00    -0.271 OA
ATOM     24  H48 ASN d   1      -2.375  -6.274 -19.292  0.00  0.00     0.163 HD
BRANCH  22  25
ATOM     25  CA  ARG d   1      -3.189  -5.924 -21.677  0.00  0.00     0.089 C 
ATOM     26  H36 ARG d   1      -2.145  -6.200 -21.885  0.00  0.00     0.087 H 
BRANCH  25  27
ATOM     27  N   ARG d   1      -3.900  -7.136 -21.278  0.00  0.00    -0.346 N 
ATOM     28  C   GLN d   1      -3.326  -8.121 -20.583  0.00  0.00     0.241 C 
ATOM     29  O   GLN d   1      -2.186  -7.998 -20.137  0.00  0.00    -0.271 OA
ATOM     30  H35 ARG d   1      -4.861  -7.232 -21.537  0.00  0.00     0.163 HD
BRANCH  28  31
ATOM     31  CA  GLN d   1      -4.108  -9.409 -20.289  0.00  0.00     0.090 C 
ATOM     32  H28 GLN d   1      -3.478 -10.242 -20.635  0.00  0.00     0.087 H 
BRANCH  31  33
ATOM     33  N   GLN d   1      -4.241  -9.531 -18.848  0.00  0.00    -0.346 N 
ATOM     34  C   ILE d   1      -4.292 -10.689 -18.192  0.00  0.00     0.241 C 
ATOM     35  O   ILE d   1      -4.397 -11.774 -18.759  0.00  0.00    -0.271 OA
ATOM     36  H27 GLN d   1      -4.298  -8.689 -18.312  0.00  0.00     0.163 HD
BRANCH  34  37
ATOM     37  CA  ILE d   1      -4.219 -10.622 -16.666  0.00  0.00     0.092 C 
ATOM     38  H17 ILE d   1      -4.307  -9.573 -16.348  0.00  0.00     0.088 H 
BRANCH  37  39
ATOM     39  N   ILE d   1      -5.334 -11.387 -16.132  0.00  0.00    -0.346 N 
ATOM     40  C   ARG d   1      -6.601 -10.982 -16.238  0.00  0.00     0.249 C 
ATOM     41  O   ARG d   1      -6.906  -9.878 -16.687  0.00  0.00    -0.271 OA
ATOM     42  H16 ILE d   1      -5.144 -12.251 -15.667  0.00  0.00     0.163 HD
BRANCH  40  43
ATOM     43  CA  ARG d   1      -7.687 -11.980 -15.826  0.00  0.00     0.176 C 
ATOM     44  H4  ARG d   1      -8.637 -11.430 -15.757  0.00  0.00     0.099 H 
BRANCH  43  45
ATOM     45  N   ARG d   1      -7.843 -13.014 -16.867  0.00  0.00    -0.067 N 
ATOM     46  H1  ARG d   1      -8.559 -13.666 -16.588  0.00  0.00     0.275 HD
ATOM     47  H2  ARG d   1      -6.971 -13.504 -16.987  0.00  0.00     0.275 HD
ATOM     48  H3  ARG d   1      -8.106 -12.578 -17.737  0.00  0.00     0.275 HD
ENDBRANCH  43  45
BRANCH  43  49
ATOM     49  CB  ARG d   1      -7.413 -12.593 -14.443  0.00  0.00    -0.029 C 
ATOM     50  H5  ARG d   1      -7.318 -11.781 -13.707  0.00  0.00     0.036 H 
ATOM     51  H6  ARG d   1      -6.472 -13.160 -14.486  0.00  0.00     0.036 H 
BRANCH  49  52
ATOM     52  CG  ARG d   1      -8.540 -13.536 -13.998  0.00  0.00    -0.047 C 
ATOM     53  H7  ARG d   1      -8.582 -14.396 -14.683  0.00  0.00     0.035 H 
ATOM     54  H8  ARG d   1      -9.497 -12.994 -14.030  0.00  0.00     0.035 H 
BRANCH  52  55
ATOM     55  CD  ARG d   1      -8.297 -14.042 -12.571  0.00  0.00     0.009 C 
ATOM     56  H9  ARG d   1      -7.307 -14.519 -12.525  0.00  0.00     0.064 H 
ATOM     57  H10 ARG d   1      -9.072 -14.780 -12.318  0.00  0.00     0.064 H 
BRANCH  55  58
ATOM     58  NE  ARG d   1      -8.344 -12.947 -11.592  0.00  0.00    -0.227 N 
ATOM     59  CZ  ARG d   1      -9.456 -12.397 -11.084  0.00  0.00     0.665 C 
ATOM     60  NH1 ARG d   1     -10.666 -12.839 -11.442  0.00  0.00    -0.235 N 
ATOM     61  NH2 ARG d   1      -9.335 -11.391 -10.214  0.00  0.00    -0.235 N 
ATOM     62  H12 ARG d   1     -11.511 -12.406 -11.043  0.00  0.00     0.174 HD
ATOM     63  H13 ARG d   1     -10.753 -13.612 -12.117  0.00  0.00     0.174 HD
ATOM     64  H14 ARG d   1      -8.400 -11.055  -9.942  0.00  0.00     0.174 HD
ATOM     65  H15 ARG d   1     -10.177 -10.951  -9.815  0.00  0.00     0.174 HD
ATOM     66  H11 ARG d   1      -7.443 -12.569 -11.267  0.00  0.00     0.177 HD
ENDBRANCH  55  58
ENDBRANCH  52  55
ENDBRANCH  49  52
ENDBRANCH  43  49
ENDBRANCH  40  43
ENDBRANCH  37  39
BRANCH  37  67
ATOM     67  CB  ILE d   1      -2.894 -11.192 -16.125  0.00  0.00    -0.030 C 
ATOM     68  H18 ILE d   1      -2.901 -12.280 -16.283  0.00  0.00     0.043 H 
BRANCH  67  69
ATOM     69  CG1 ILE d   1      -2.757 -10.914 -14.616  0.00  0.00    -0.063 C 
ATOM     70  H19 ILE d   1      -3.759 -10.781 -14.183  0.00  0.00     0.033 H 
ATOM     71  H20 ILE d   1      -2.171  -9.994 -14.472  0.00  0.00     0.033 H 
BRANCH  69  72
ATOM     72  CD1 ILE d   1      -2.054 -12.071 -13.903  0.00  0.00    -0.076 C 
ATOM     73  H24 ILE d   1      -1.971 -11.844 -12.830  0.00  0.00     0.027 H 
ATOM     74  H25 ILE d   1      -1.048 -12.207 -14.328  0.00  0.00     0.027 H 
ATOM     75  H26 ILE d   1      -2.637 -12.994 -14.039  0.00  0.00     0.027 H 
ENDBRANCH  69  72
ENDBRANCH  67  69
BRANCH  67  76
ATOM     76  CG2 ILE d   1      -1.676 -10.602 -16.854  0.00  0.00    -0.071 C 
ATOM     77  H21 ILE d   1      -1.765 -10.796 -17.933  0.00  0.00     0.028 H 
ATOM     78  H22 ILE d   1      -0.757 -11.071 -16.472  0.00  0.00     0.028 H 
ATOM     79  H23 ILE d   1      -1.634  -9.517 -16.679  0.00  0.00     0.028 H 
ENDBRANCH  67  76
ENDBRANCH  37  67
ENDBRANCH  34  37
ENDBRANCH  31  33
BRANCH  31  80
ATOM     80  CB  GLN d   1      -5.467  -9.586 -21.006  0.00  0.00    -0.030 C 
ATOM     81  H29 GLN d   1      -5.561 -10.644 -21.292  0.00  0.00     0.037 H 
ATOM     82  H30 GLN d   1      -5.454  -8.961 -21.911  0.00  0.00     0.037 H 
BRANCH  80  83
ATOM     83  CG  GLN d   1      -6.715  -9.206 -20.190  0.00  0.00     0.011 C 
ATOM     84  H31 GLN d   1      -6.798  -9.894 -19.336  0.00  0.00     0.047 H 
ATOM     85  H32 GLN d   1      -7.601  -9.313 -20.834  0.00  0.00     0.047 H 
BRANCH  83  86
ATOM     86  CD  GLN d   1      -6.669  -7.779 -19.661  0.00  0.00     0.215 C 
ATOM     87  OE1 GLN d   1      -6.499  -6.841 -20.433  0.00  0.00    -0.274 OA
ATOM     88  NE2 GLN d   1      -6.791  -7.599 -18.351  0.00  0.00    -0.370 N 
ATOM     89  H33 GLN d   1      -6.765  -6.675 -17.969  0.00  0.00     0.159 HD
ATOM     90  H34 GLN d   1      -6.909  -8.387 -17.747  0.00  0.00     0.159 HD
ENDBRANCH  83  86
ENDBRANCH  80  83
ENDBRANCH  31  80
ENDBRANCH  28  31
ENDBRANCH  25  27
BRANCH  25  91
ATOM     91  CB  ARG d   1      -3.784  -5.380 -22.987  0.00  0.00    -0.036 C 
ATOM     92  H37 ARG d   1      -3.647  -6.141 -23.769  0.00  0.00     0.036 H 
ATOM     93  H38 ARG d   1      -3.233  -4.468 -23.262  0.00  0.00     0.036 H 
BRANCH  91  94
ATOM     94  CG  ARG d   1      -5.280  -5.033 -22.912  0.00  0.00    -0.048 C 
ATOM     95  H39 ARG d   1      -5.454  -4.360 -22.060  0.00  0.00     0.035 H 
ATOM     96  H40 ARG d   1      -5.860  -5.957 -22.773  0.00  0.00     0.035 H 
BRANCH  94  97
ATOM     97  CD  ARG d   1      -5.733  -4.341 -24.203  0.00  0.00     0.009 C 
ATOM     98  H41 ARG d   1      -5.584  -5.028 -25.049  0.00  0.00     0.064 H 
ATOM     99  H42 ARG d   1      -5.128  -3.435 -24.355  0.00  0.00     0.064 H 
BRANCH  97 100
ATOM    100  NE  ARG d   1      -7.152  -3.963 -24.137  0.00  0.00    -0.227 N 
ATOM    101  CZ  ARG d   1      -8.189  -4.794 -24.319  0.00  0.00     0.665 C 
ATOM    102  NH1 ARG d   1      -7.985  -6.091 -24.573  0.00  0.00    -0.235 N 
ATOM    103  NH2 ARG d   1      -9.436  -4.316 -24.245  0.00  0.00    -0.235 N 
ATOM    104  H44 ARG d   1      -8.788  -6.721 -24.711  0.00  0.00     0.174 HD
ATOM    105  H45 ARG d   1      -7.025  -6.460 -24.630  0.00  0.00     0.174 HD
ATOM    106  H46 ARG d   1      -9.594  -3.317 -24.049  0.00  0.00     0.174 HD
ATOM    107  H47 ARG d   1     -10.238  -4.947 -24.384  0.00  0.00     0.174 HD
ATOM    108  H43 ARG d   1      -7.368  -2.977 -23.934  0.00  0.00     0.177 HD
ENDBRANCH  97 100
ENDBRANCH  94  97
ENDBRANCH  91  94
ENDBRANCH  25  91
ENDBRANCH  22  25
ENDBRANCH  19  21
BRANCH  19 109
ATOM    109  CB  ASN d   1      -2.337  -5.426 -16.915  0.00  0.00     0.036 C 
ATOM    110  H50 ASN d   1      -2.297  -4.778 -16.027  0.00  0.00     0.051 H 
ATOM    111  H51 ASN d   1      -1.321  -5.762 -17.169  0.00  0.00     0.051 H 
BRANCH 109 112
ATOM    112  CG  ASN d   1      -3.180  -6.654 -16.577  0.00  0.00     0.217 C 
ATOM    113  OD1 ASN d   1      -3.974  -7.124 -17.386  0.00  0.00    -0.274 OA
ATOM    114  ND2 ASN d   1      -3.016  -7.193 -15.376  0.00  0.00    -0.370 N 
ATOM    115  H52 ASN d   1      -3.547  -7.998 -15.113  0.00  0.00     0.159 HD
ATOM    116  H53 ASN d   1      -2.361  -6.794 -14.734  0.00  0.00     0.159 HD
ENDBRANCH 109 112
ENDBRANCH  19 109
ENDBRANCH  16  19
ENDBRANCH  13  15
BRANCH  13 117
ATOM    117  CB  LYS d   1       1.199  -2.236 -19.362  0.00  0.00    -0.038 C 
ATOM    118  H56 LYS d   1       1.147  -2.606 -20.396  0.00  0.00     0.036 H 
ATOM    119  H57 LYS d   1       1.685  -2.991 -18.727  0.00  0.00     0.036 H 
BRANCH 117 120
ATOM    120  CG  LYS d   1       2.015  -0.939 -19.326  0.00  0.00    -0.061 C 
ATOM    121  H58 LYS d   1       1.944  -0.501 -18.319  0.00  0.00     0.033 H 
ATOM    122  H59 LYS d   1       1.599  -0.235 -20.062  0.00  0.00     0.033 H 
BRANCH 120 123
ATOM    123  CD  LYS d   1       3.489  -1.187 -19.656  0.00  0.00    -0.043 C 
ATOM    124  H60 LYS d   1       3.555  -1.843 -20.536  0.00  0.00     0.035 H 
ATOM    125  H61 LYS d   1       3.972  -1.676 -18.797  0.00  0.00     0.035 H 
BRANCH 123 126
ATOM    126  CE  LYS d   1       4.215   0.130 -19.957  0.00  0.00     0.080 C 
ATOM    127  H62 LYS d   1       3.773   0.581 -20.858  0.00  0.00     0.075 H 
ATOM    128  H63 LYS d   1       5.278  -0.085 -20.139  0.00  0.00     0.075 H 
BRANCH 126 129
ATOM    129  NZ  LYS d   1       4.108   1.089 -18.844  0.00  0.00    -0.079 N 
ATOM    130  H64 LYS d   1       4.597   1.937 -19.083  0.00  0.00     0.274 HD
ATOM    131  H65 LYS d   1       4.517   0.688 -18.014  0.00  0.00     0.274 HD
ATOM    132  H66 LYS d   1       3.137   1.298 -18.673  0.00  0.00     0.274 HD
ENDBRANCH 126 129
ENDBRANCH 123 126
ENDBRANCH 120 123
ENDBRANCH 117 120
ENDBRANCH  13 117
ENDBRANCH  10  13
ENDBRANCH   7   9
BRANCH   7 133
ATOM    133  CB  ALA d   1      -2.521  -1.524 -23.126  0.00  0.00    -0.049 C 
ATOM    134  H69 ALA d   1      -3.074  -0.892 -23.837  0.00  0.00     0.030 H 
ATOM    135  H70 ALA d   1      -3.137  -2.393 -22.852  0.00  0.00     0.030 H 
ATOM    136  H71 ALA d   1      -1.586  -1.869 -23.592  0.00  0.00     0.030 H 
ENDBRANCH   7 133
ENDBRANCH   4   7
ENDBRANCH   1   3
BRANCH   1 137
ATOM    137  C   ALA d   1      -4.990   0.589 -18.802  0.00  0.00     0.240 C 
ATOM    138  O   ALA d   1      -5.653   1.623 -18.801  0.00  0.00    -0.271 OA
ATOM    139  N   ALA d   1      -3.912   0.435 -18.028  0.00  0.00    -0.346 N 
ATOM    140  H77 ALA d   1      -3.414  -0.432 -18.053  0.00  0.00     0.163 HD
BRANCH 139 141
ATOM    141  CA  ALA d   1      -3.444   1.498 -17.148  0.00  0.00     0.086 C 
ATOM    142  H78 ALA d   1      -4.256   1.731 -16.444  0.00  0.00     0.086 H 
BRANCH 141 143
ATOM    143  C   ALA d   1      -3.134   2.779 -17.929  0.00  0.00     0.240 C 
ATOM    144  O   ALA d   1      -3.619   3.850 -17.572  0.00  0.00    -0.271 OA
ATOM    145  N   LEU d   1      -2.350   2.681 -19.007  0.00  0.00    -0.346 N 
ATOM    146  H82 LEU d   1      -1.956   1.793 -19.243  0.00  0.00     0.163 HD
BRANCH 145 147
ATOM    147  CA  LEU d   1      -2.054   3.836 -19.849  0.00  0.00     0.089 C 
ATOM    148  H83 LEU d   1      -1.512   4.572 -19.237  0.00  0.00     0.087 H 
BRANCH 147 149
ATOM    149  C   LEU d   1      -3.345   4.491 -20.348  0.00  0.00     0.241 C 
ATOM    150  O   LEU d   1      -3.473   5.711 -20.301  0.00  0.00    -0.271 OA
ATOM    151  N   LEU d   1      -4.311   3.695 -20.812  0.00  0.00    -0.346 N 
ATOM    152  H93 LEU d   1      -4.148   2.709 -20.835  0.00  0.00     0.163 HD
BRANCH 151 153
ATOM    153  CA  LEU d   1      -5.591   4.199 -21.286  0.00  0.00     0.089 C 
ATOM    154  H94 LEU d   1      -5.401   4.910 -22.103  0.00  0.00     0.087 H 
BRANCH 153 155
ATOM    155  C   LEU d   1      -6.312   4.954 -20.167  0.00  0.00     0.241 C 
ATOM    156  O   LEU d   1      -6.717   6.096 -20.364  0.00  0.00    -0.271 OA
ATOM    157  N   ARG d   1      -6.459   4.336 -18.991  0.00  0.00    -0.346 N 
ATOM    158 4H10 ARG d   1      -6.139   3.392 -18.906  0.00  0.00     0.163 HD
BRANCH 157 159
ATOM    159  CA  ARG d   1      -7.064   4.973 -17.824  0.00  0.00     0.089 C 
ATOM    160 5H10 ARG d   1      -8.126   5.165 -18.040  0.00  0.00     0.087 H 
BRANCH 159 161
ATOM    161  C   ARG d   1      -6.377   6.305 -17.510  0.00  0.00     0.241 C 
ATOM    162  O   ARG d   1      -7.043   7.312 -17.276  0.00  0.00    -0.271 OA
ATOM    163  N   LEU d   1      -5.043   6.304 -17.477  0.00  0.00    -0.346 N 
ATOM    164 7H11 LEU d   1      -4.562   5.447 -17.661  0.00  0.00     0.163 HD
BRANCH 163 165
ATOM    165  CA  LEU d   1      -4.257   7.493 -17.186  0.00  0.00     0.089 C 
ATOM    166 8H11 LEU d   1      -4.553   7.883 -16.201  0.00  0.00     0.087 H 
BRANCH 165 167
ATOM    167  C   LEU d   1      -4.530   8.579 -18.232  0.00  0.00     0.241 C 
ATOM    168  O   LEU d   1      -4.788   9.730 -17.888  0.00  0.00    -0.271 OA
ATOM    169  N   ALA d   1      -4.460   8.211 -19.513  0.00  0.00    -0.346 N 
ATOM    170 8H12 ALA d   1      -4.281   7.249 -19.717  0.00  0.00     0.163 HD
BRANCH 169 171
ATOM    171  CA  ALA d   1      -4.629   9.128 -20.630  0.00  0.00     0.086 C 
ATOM    172 9H12 ALA d   1      -3.926   9.964 -20.501  0.00  0.00     0.086 H 
BRANCH 171 173
ATOM    173  C   ALA d   1      -6.046   9.702 -20.681  0.00  0.00     0.240 C 
ATOM    174  O   ALA d   1      -6.223  10.889 -20.943  0.00  0.00    -0.271 OA
ATOM    175  N   ALA d   1      -7.062   8.864 -20.457  0.00  0.00    -0.346 N 
ATOM    176 3H13 ALA d   1      -6.845   7.926 -20.187  0.00  0.00     0.163 HD
BRANCH 175 177
ATOM    177  CA  ALA d   1      -8.468   9.231 -20.581  0.00  0.00     0.086 C 
ATOM    178 4H13 ALA d   1      -8.584   9.862 -21.474  0.00  0.00     0.086 H 
BRANCH 177 179
ATOM    179  C   ALA d   1      -8.946  10.041 -19.370  0.00  0.00     0.240 C 
ATOM    180  O   ALA d   1      -9.941   9.693 -18.737  0.00  0.00    -0.271 OA
ATOM    181  N   ARG d   1      -8.248  11.136 -19.064  0.00  0.00    -0.345 N 
ATOM    182 8H13 ARG d   1      -7.452  11.344 -19.633  0.00  0.00     0.163 HD
BRANCH 181 183
ATOM    183  CA  ARG d   1      -8.542  12.055 -17.975  0.00  0.00     0.096 C 
ATOM    184 9H13 ARG d   1      -9.614  12.002 -17.733  0.00  0.00     0.089 H 
BRANCH 183 185
ATOM    185  C   ARG d   1      -8.197  13.476 -18.423  0.00  0.00     0.196 C 
ATOM    186  O   ARG d   1      -7.249  13.609 -19.228  0.00  0.00    -0.646 OA
ATOM    187  OXT ARG d   1      -8.885  14.406 -17.948  0.00  0.00    -0.646 OA
ENDBRANCH 183 185
BRANCH 183 188
ATOM    188  CB  ARG d   1      -7.730  11.671 -16.731  0.00  0.00    -0.035 C 
ATOM    189 0H14 ARG d   1      -7.715  12.526 -16.039  0.00  0.00     0.036 H 
ATOM    190 1H14 ARG d   1      -6.702  11.429 -17.038  0.00  0.00     0.036 H 
BRANCH 188 191
ATOM    191  CG  ARG d   1      -8.329  10.458 -16.007  0.00  0.00    -0.047 C 
ATOM    192 2H14 ARG d   1      -8.347   9.599 -16.693  0.00  0.00     0.035 H 
ATOM    193 3H14 ARG d   1      -9.355  10.695 -15.690  0.00  0.00     0.035 H 
BRANCH 191 194
ATOM    194  CD  ARG d   1      -7.490  10.103 -14.776  0.00  0.00     0.009 C 
ATOM    195 4H14 ARG d   1      -7.105  11.030 -14.326  0.00  0.00     0.064 H 
ATOM    196 5H14 ARG d   1      -6.647   9.469 -15.088  0.00  0.00     0.064 H 
BRANCH 194 197
ATOM    197  NE  ARG d   1      -8.284   9.381 -13.774  0.00  0.00    -0.227 N 
ATOM    198  CZ  ARG d   1      -8.547   8.068 -13.776  0.00  0.00     0.665 C 
ATOM    199  NH1 ARG d   1      -8.164   7.268 -14.776  0.00  0.00    -0.235 N 
ATOM    200  NH2 ARG d   1      -9.170   7.519 -12.731  0.00  0.00    -0.235 N 
ATOM    201 7H14 ARG d   1      -8.384   6.262 -14.744  0.00  0.00     0.174 HD
ATOM    202 8H14 ARG d   1      -7.649   7.657 -15.579  0.00  0.00     0.174 HD
ATOM    203 9H14 ARG d   1      -9.477   8.110 -11.945  0.00  0.00     0.174 HD
ATOM    204 0H15 ARG d   1      -9.344   6.504 -12.710  0.00  0.00     0.174 HD
ATOM    205 6H14 ARG d   1      -8.675   9.935 -12.998  0.00  0.00     0.177 HD
ENDBRANCH 194 197
ENDBRANCH 191 194
ENDBRANCH 188 191
ENDBRANCH 183 188
ENDBRANCH 181 183
ENDBRANCH 177 179
BRANCH 177 206
ATOM    206  CB  ALA d   1      -9.299   7.959 -20.781  0.00  0.00    -0.049 C 
ATOM    207 5H13 ALA d   1     -10.362   8.226 -20.876  0.00  0.00     0.030 H 
ATOM    208 6H13 ALA d   1      -9.164   7.293 -19.916  0.00  0.00     0.030 H 
ATOM    209 7H13 ALA d   1      -8.968   7.444 -21.695  0.00  0.00     0.030 H 
ENDBRANCH 177 206
ENDBRANCH 175 177
ENDBRANCH 171 173
BRANCH 171 210
ATOM    210  CB  ALA d   1      -4.291   8.405 -21.936  0.00  0.00    -0.049 C 
ATOM    211 0H13 ALA d   1      -4.418   9.097 -22.782  0.00  0.00     0.030 H 
ATOM    212 1H13 ALA d   1      -4.963   7.543 -22.063  0.00  0.00     0.030 H 
ATOM    213 2H13 ALA d   1      -3.249   8.055 -21.902  0.00  0.00     0.030 H 
ENDBRANCH 171 210
ENDBRANCH 169 171
ENDBRANCH 165 167
BRANCH 165 214
ATOM    214  CB  LEU d   1      -2.773   7.099 -17.129  0.00  0.00    -0.035 C 
ATOM    215 9H11 LEU d   1      -2.502   6.645 -18.093  0.00  0.00     0.037 H 
ATOM    216 0H12 LEU d   1      -2.646   6.358 -16.326  0.00  0.00     0.037 H 
BRANCH 214 217
ATOM    217  CG  LEU d   1      -1.809   8.266 -16.861  0.00  0.00    -0.059 C 
ATOM    218 1H12 LEU d   1      -1.886   8.990 -17.686  0.00  0.00     0.038 H 
BRANCH 217 219
ATOM    219  CD1 LEU d   1      -2.137   8.979 -15.546  0.00  0.00    -0.073 C 
ATOM    220 2H12 LEU d   1      -1.428   9.805 -15.390  0.00  0.00     0.028 H 
ATOM    221 3H12 LEU d   1      -2.058   8.266 -14.712  0.00  0.00     0.028 H 
ATOM    222 4H12 LEU d   1      -3.161   9.379 -15.591  0.00  0.00     0.028 H 
ENDBRANCH 217 219
BRANCH 217 223
ATOM    223  CD2 LEU d   1      -0.379   7.716 -16.797  0.00  0.00    -0.073 C 
ATOM    224 5H12 LEU d   1      -0.141   7.203 -17.741  0.00  0.00     0.028 H 
ATOM    225 6H12 LEU d   1      -0.297   7.004 -15.962  0.00  0.00     0.028 H 
ATOM    226 7H12 LEU d   1       0.326   8.546 -16.642  0.00  0.00     0.028 H 
ENDBRANCH 217 223
ENDBRANCH 214 217
ENDBRANCH 165 214
ENDBRANCH 163 165
ENDBRANCH 159 161
BRANCH 159 227
ATOM    227  CB  ARG d   1      -6.964   4.048 -16.607  0.00  0.00    -0.036 C 
ATOM    228 6H10 ARG d   1      -7.194   4.634 -15.705  0.00  0.00     0.036 H 
ATOM    229 7H10 ARG d   1      -5.934   3.666 -16.544  0.00  0.00     0.036 H 
BRANCH 227 230
ATOM    230  CG  ARG d   1      -7.921   2.853 -16.665  0.00  0.00    -0.048 C 
ATOM    231 8H10 ARG d   1      -7.760   2.288 -17.595  0.00  0.00     0.035 H 
ATOM    232 9H10 ARG d   1      -8.963   3.205 -16.626  0.00  0.00     0.035 H 
BRANCH 230 233
ATOM    233  CD  ARG d   1      -7.626   1.961 -15.456  0.00  0.00     0.009 C 
ATOM    234 0H11 ARG d   1      -7.811   2.538 -14.538  0.00  0.00     0.064 H 
ATOM    235 1H11 ARG d   1      -6.569   1.657 -15.491  0.00  0.00     0.064 H 
BRANCH 233 236
ATOM    236  NE  ARG d   1      -8.461   0.755 -15.429  0.00  0.00    -0.227 N 
ATOM    237  CZ  ARG d   1      -8.333  -0.204 -14.498  0.00  0.00     0.665 C 
ATOM    238  NH1 ARG d   1      -7.423  -0.066 -13.529  0.00  0.00    -0.235 N 
ATOM    239  NH2 ARG d   1      -9.112  -1.288 -14.542  0.00  0.00    -0.235 N 
ATOM    240 3H11 ARG d   1      -7.319  -0.798 -12.812  0.00  0.00     0.174 HD
ATOM    241 4H11 ARG d   1      -6.825   0.772 -13.499  0.00  0.00     0.174 HD
ATOM    242 5H11 ARG d   1      -9.812  -1.389 -15.291  0.00  0.00     0.174 HD
ATOM    243 6H11 ARG d   1      -9.013  -2.023 -13.827  0.00  0.00     0.174 HD
ATOM    244 2H11 ARG d   1      -9.179   0.638 -16.158  0.00  0.00     0.177 HD
ENDBRANCH 233 236
ENDBRANCH 230 233
ENDBRANCH 227 230
ENDBRANCH 159 227
ENDBRANCH 157 159
ENDBRANCH 153 155
BRANCH 153 245
ATOM    245  CB  LEU d   1      -6.430   3.043 -21.852  0.00  0.00    -0.035 C 
ATOM    246  H95 LEU d   1      -6.570   2.296 -21.057  0.00  0.00     0.037 H 
ATOM    247  H96 LEU d   1      -5.876   2.590 -22.688  0.00  0.00     0.037 H 
BRANCH 245 248
ATOM    248  CG  LEU d   1      -7.816   3.470 -22.365  0.00  0.00    -0.059 C 
ATOM    249  H97 LEU d   1      -8.380   3.910 -21.529  0.00  0.00     0.038 H 
BRANCH 248 250
ATOM    250  CD1 LEU d   1      -7.724   4.507 -23.491  0.00  0.00    -0.073 C 
ATOM    251  H98 LEU d   1      -8.737   4.779 -23.823  0.00  0.00     0.028 H 
ATOM    252  H99 LEU d   1      -7.163   4.082 -24.337  0.00  0.00     0.028 H 
ATOM    253 0H10 LEU d   1      -7.206   5.404 -23.122  0.00  0.00     0.028 H 
ENDBRANCH 248 250
BRANCH 248 254
ATOM    254  CD2 LEU d   1      -8.559   2.231 -22.878  0.00  0.00    -0.073 C 
ATOM    255 1H10 LEU d   1      -8.627   1.485 -22.073  0.00  0.00     0.028 H 
ATOM    256 2H10 LEU d   1      -8.012   1.802 -23.730  0.00  0.00     0.028 H 
ATOM    257 3H10 LEU d   1      -9.571   2.517 -23.199  0.00  0.00     0.028 H 
ENDBRANCH 248 254
ENDBRANCH 245 248
ENDBRANCH 153 245
ENDBRANCH 151 153
ENDBRANCH 147 149
BRANCH 147 258
ATOM    258  CB  LEU d   1      -1.152   3.446 -21.031  0.00  0.00    -0.035 C 
ATOM    259  H84 LEU d   1      -1.070   4.313 -21.703  0.00  0.00     0.037 H 
ATOM    260  H85 LEU d   1      -1.628   2.611 -21.566  0.00  0.00     0.037 H 
BRANCH 258 261
ATOM    261  CG  LEU d   1       0.268   3.013 -20.629  0.00  0.00    -0.059 C 
ATOM    262  H86 LEU d   1       0.189   2.204 -19.888  0.00  0.00     0.038 H 
BRANCH 261 263
ATOM    263  CD1 LEU d   1       1.004   2.491 -21.868  0.00  0.00    -0.073 C 
ATOM    264  H87 LEU d   1       2.021   2.180 -21.586  0.00  0.00     0.028 H 
ATOM    265  H88 LEU d   1       1.061   3.288 -22.624  0.00  0.00     0.028 H 
ATOM    266  H89 LEU d   1       0.459   1.631 -22.283  0.00  0.00     0.028 H 
ENDBRANCH 261 263
BRANCH 261 267
ATOM    267  CD2 LEU d   1       1.080   4.160 -20.013  0.00  0.00    -0.073 C 
ATOM    268  H90 LEU d   1       0.559   4.541 -19.122  0.00  0.00     0.028 H 
ATOM    269  H91 LEU d   1       1.188   4.970 -20.750  0.00  0.00     0.028 H 
ATOM    270  H92 LEU d   1       2.076   3.791 -19.725  0.00  0.00     0.028 H 
ENDBRANCH 261 267
ENDBRANCH 258 261
ENDBRANCH 147 258
ENDBRANCH 145 147
ENDBRANCH 141 143
BRANCH 141 271
ATOM    271  CB  ALA d   1      -2.244   1.024 -16.330  0.00  0.00    -0.049 C 
ATOM    272  H79 ALA d   1      -1.904   1.838 -15.672  0.00  0.00     0.030 H 
ATOM    273  H80 ALA d   1      -1.428   0.737 -17.009  0.00  0.00     0.030 H 
ATOM    274  H81 ALA d   1      -2.536   0.157 -15.720  0.00  0.00     0.030 H 
ENDBRANCH 141 271
ENDBRANCH 139 141
ENDBRANCH   1 137
BRANCH   1 275
ATOM    275  CB  ALA d   1      -5.980  -1.741 -18.978  0.00  0.00    -0.049 C 
ATOM    276  H74 ALA d   1      -6.860  -1.395 -18.417  0.00  0.00     0.030 H 
ATOM    277  H75 ALA d   1      -5.238  -2.154 -18.279  0.00  0.00     0.030 H 
ATOM    278  H76 ALA d   1      -6.284  -2.520 -19.692  0.00  0.00     0.030 H 
ENDBRANCH   1 275
TORSDOF 79
