REMARK  7 active torsions:
REMARK  status: ('A' for Active; 'I' for Inactive)
REMARK    1  A    between atoms: P_1  and  O5'_5 
REMARK    2  A    between atoms: O5'_5  and  C5'_6 
REMARK    3  A    between atoms: C5'_6  and  C4'_7 
REMARK    4  A    between atoms: C3'_9  and  O3'_10 
REMARK    5  A    between atoms: C2'_11  and  O2'_12 
REMARK    6  A    between atoms: C1'_13  and  N1_14 
REMARK    7  A    between atoms: C6_21  and  O1_22 
ROOT
ATOM      1  C4' BMP d   1      76.305  65.632  91.571  0.00  0.00     0.089 C 
ATOM      2  O4' BMP d   1      75.752  65.626  92.889  0.00  0.00    -0.353 OA
ATOM      3  C3' BMP d   1      76.544  67.073  91.087  0.00  0.00     0.091 C 
ATOM      4  C2' BMP d   1      75.924  67.875  92.171  0.00  0.00     0.105 C 
ATOM      5  C1' BMP d   1      75.158  66.905  93.077  0.00  0.00     0.143 C 
ATOM      6  H3  BMP d   1      75.492  65.276  90.921  0.00  0.00     0.090 H 
ATOM      7  H4  BMP d   1      77.613  67.294  90.949  0.00  0.00     0.091 H 
ATOM      8  H6  BMP d   1      76.794  68.125  92.796  0.00  0.00     0.093 H 
ATOM      9  H8  BMP d   1      74.134  66.862  92.677  0.00  0.00     0.123 H 
ENDROOT
BRANCH   5  10
ATOM     10  N1  BMP d   1      74.996  67.214  94.529  0.00  0.00    -0.249 N 
ATOM     11  C6  BMP d   1      73.592  67.519  95.003  0.00  0.00     0.153 A 
ATOM     12  C5  BMP d   1      73.368  67.750  96.348  0.00  0.00     0.032 A 
ATOM     13  C4  BMP d   1      74.613  67.667  97.372  0.00  0.00     0.253 A 
ATOM     14  H10 BMP d   1      72.368  67.984  96.710  0.00  0.00     0.098 H 
ATOM     15  N3  BMP d   1      75.897  67.419  96.884  0.00  0.00    -0.275 N 
ATOM     16  O4  BMP d   1      74.474  67.610  98.582  0.00  0.00    -0.268 OA
ATOM     17  C2  BMP d   1      76.107  67.164  95.529  0.00  0.00     0.333 A 
ATOM     18  H9  BMP d   1      76.675  67.424  97.513  0.00  0.00     0.173 HD
ATOM     19  O2  BMP d   1      77.284  66.875  95.303  0.00  0.00    -0.246 OA
BRANCH  11  20
ATOM     20  O1  BMP d   1      72.521  67.580  94.177  0.00  0.00    -0.346 OA
ATOM     21  H11 BMP d   1      72.663  68.257  93.526  0.00  0.00     0.219 HD
ENDBRANCH  11  20
ENDBRANCH   5  10
BRANCH   4  22
ATOM     22  O2' BMP d   1      75.455  69.158  91.915  0.00  0.00    -0.388 OA
ATOM     23  H7  BMP d   1      75.383  69.637  92.733  0.00  0.00     0.210 HD
ENDBRANCH   4  22
BRANCH   1  24
ATOM     24  C5' BMP d   1      77.398  64.560  91.382  0.00  0.00     0.059 C 
ATOM     25  H1  BMP d   1      76.995  63.583  91.688  0.00  0.00     0.079 H 
ATOM     26  H2  BMP d   1      77.680  64.523  90.320  0.00  0.00     0.079 H 
BRANCH  24  27
ATOM     27  O5' BMP d   1      78.576  64.847  92.169  0.00  0.00    -0.280 OA
BRANCH  27  28
ATOM     28  P   BMP d   1      80.049  64.335  91.804  0.00  0.00     0.422 P 
ATOM     29  O3P BMP d   1      80.456  64.589  90.325  0.00  0.00    -0.617 OA
ATOM     30  O2P BMP d   1      80.086  62.837  92.066  0.00  0.00    -0.617 OA
ATOM     31  O1P BMP d   1      80.925  65.153  92.773  0.00  0.00    -0.617 OA
ENDBRANCH  27  28
ENDBRANCH  24  27
ENDBRANCH   1  24
BRANCH   3  32
ATOM     32  O3' BMP d   1      75.826  67.320  89.926  0.00  0.00    -0.390 OA
ATOM     33  H5  BMP d   1      76.200  66.819  89.211  0.00  0.00     0.210 HD
ENDBRANCH   3  32
TORSDOF 7
