REMARK  16 active torsions:
REMARK  status: ('A' for Active; 'I' for Inactive)
REMARK    1  A    between atoms: C4_4  and  C10_7 
REMARK    2  A    between atoms: C10_7  and  C13_8 
REMARK    3  A    between atoms: C13_8  and  N18_13 
REMARK    4  A    between atoms: C13_8  and  C14_9 
REMARK       I    between atoms: C14_9  and  N16_11 
REMARK    5  A    between atoms: N16_11  and  C17_12 
REMARK       I    between atoms: N18_13  and  C19_14 
REMARK    6  A    between atoms: C19_14  and  C21_16 
REMARK    7  A    between atoms: C21_16  and  C27_21 
REMARK    8  A    between atoms: C21_16  and  C22_17 
REMARK    9  A    between atoms: C22_17  and  C23_18 
REMARK   10  A    between atoms: C23_18  and  C25_20 
REMARK   11  A    between atoms: C23_18  and  C24_19 
REMARK   12  A    between atoms: C27_21  and  C35_29 
REMARK   13  A    between atoms: C27_21  and  C28_22 
REMARK   14  A    between atoms: C28_22  and  S29_23 
REMARK   15  A    between atoms: S29_23  and  C30_24 
REMARK       I    between atoms: C35_29  and  N37_31 
REMARK   16  A    between atoms: N37_31  and  O38_32 
ROOT
ATOM      1  C21 BAT d   1       1.187  24.017   3.523  0.00  0.00     0.036 C 
ATOM      2  H14 BAT d   1       1.894  23.279   3.931  0.00  0.00     0.056 H 
ENDROOT
BRANCH   1   3
ATOM      3  C19 BAT d   1       2.036  24.839   2.527  0.00  0.00     0.223 C 
ATOM      4  N18 BAT d   1       3.065  24.110   2.052  0.00  0.00    -0.347 N 
ATOM      5  H13 BAT d   1       3.180  23.177   2.394  0.00  0.00     0.163 HD
ATOM      6  O20 BAT d   1       1.663  25.892   1.989  0.00  0.00    -0.273 OA
BRANCH   4   7
ATOM      7  C13 BAT d   1       4.016  24.601   1.072  0.00  0.00     0.093 C 
ATOM      8  H8  BAT d   1       4.791  23.832   0.940  0.00  0.00     0.088 H 
BRANCH   7   9
ATOM      9  C10 BAT d   1       3.299  24.691  -0.276  0.00  0.00    -0.014 C 
ATOM     10  H6  BAT d   1       2.374  25.276  -0.168  0.00  0.00     0.043 H 
ATOM     11  H7  BAT d   1       3.954  25.175  -1.015  0.00  0.00     0.043 H 
BRANCH   9  12
ATOM     12  C4  BAT d   1       2.966  23.283  -0.729  0.00  0.00    -0.056 A 
ATOM     13  C3  BAT d   1       1.712  22.742  -0.457  0.00  0.00    -0.077 A 
ATOM     14  C2  BAT d   1       1.414  21.425  -0.844  0.00  0.00    -0.082 A 
ATOM     15  H3  BAT d   1       0.965  23.338   0.054  0.00  0.00     0.084 H 
ATOM     16  C1  BAT d   1       2.374  20.656  -1.501  0.00  0.00    -0.083 A 
ATOM     17  H2  BAT d   1       0.437  21.006  -0.632  0.00  0.00     0.083 H 
ATOM     18  C6  BAT d   1       3.627  21.195  -1.773  0.00  0.00    -0.082 A 
ATOM     19  H1  BAT d   1       2.144  19.640  -1.799  0.00  0.00     0.083 H 
ATOM     20  C5  BAT d   1       3.924  22.510  -1.384  0.00  0.00    -0.077 A 
ATOM     21  H5  BAT d   1       4.374  20.599  -2.285  0.00  0.00     0.083 H 
ATOM     22  H4  BAT d   1       4.902  22.927  -1.594  0.00  0.00     0.084 H 
ENDBRANCH   9  12
ENDBRANCH   7   9
BRANCH   7  23
ATOM     23  C14 BAT d   1       4.752  25.821   1.662  0.00  0.00     0.240 C 
ATOM     24  N16 BAT d   1       4.831  26.917   0.893  0.00  0.00    -0.364 N 
ATOM     25  H9  BAT d   1       4.427  26.943  -0.021  0.00  0.00     0.161 HD
ATOM     26  O15 BAT d   1       5.310  25.736   2.758  0.00  0.00    -0.271 OA
BRANCH  24  27
ATOM     27  C17 BAT d   1       5.530  28.065   1.447  0.00  0.00    -0.018 C 
ATOM     28  H10 BAT d   1       5.520  28.888   0.717  0.00  0.00     0.056 H 
ATOM     29  H11 BAT d   1       6.570  27.787   1.672  0.00  0.00     0.056 H 
ATOM     30  H12 BAT d   1       5.029  28.389   2.371  0.00  0.00     0.056 H 
ENDBRANCH  24  27
ENDBRANCH   7  23
ENDBRANCH   4   7
ENDBRANCH   1   3
BRANCH   1  31
ATOM     31  C27 BAT d   1       0.792  24.745   4.856  0.00  0.00     0.046 C 
ATOM     32  H24 BAT d   1       1.721  25.188   5.244  0.00  0.00     0.057 H 
BRANCH  31  33
ATOM     33  C35 BAT d   1      -0.263  25.907   4.840  0.00  0.00     0.246 C 
ATOM     34  N37 BAT d   1       0.313  27.068   4.481  0.00  0.00    -0.237 N 
ATOM     35  H30 BAT d   1       1.284  26.999   4.251  0.00  0.00     0.197 HD
ATOM     36  O36 BAT d   1      -1.408  25.797   5.136  0.00  0.00    -0.271 OA
BRANCH  34  37
ATOM     37  O38 BAT d   1      -0.095  28.049   4.401  0.00  0.00    -0.287 OA
ATOM     38  H31 BAT d   1      -0.431  28.321   5.247  0.00  0.00     0.244 HD
ENDBRANCH  34  37
ENDBRANCH  31  33
BRANCH  31  39
ATOM     39  C28 BAT d   1       0.310  23.676   5.856  0.00  0.00    -0.006 C 
ATOM     40  H25 BAT d   1       0.673  22.698   5.507  0.00  0.00     0.050 H 
ATOM     41  H26 BAT d   1      -0.790  23.681   5.853  0.00  0.00     0.050 H 
BRANCH  39  42
ATOM     42  S29 BAT d   1       0.863  23.897   7.567  0.00  0.00    -0.122 SA
BRANCH  42  43
ATOM     43  C30 BAT d   1      -0.237  22.972   8.543  0.00  0.00     0.041 A 
ATOM     44  C34 BAT d   1      -1.130  23.531   9.465  0.00  0.00    -0.060 A 
ATOM     45  C33 BAT d   1      -1.918  22.483  10.119  0.00  0.00    -0.075 A 
ATOM     46  H29 BAT d   1      -1.226  24.597   9.668  0.00  0.00     0.086 H 
ATOM     47  C32 BAT d   1      -1.554  21.220   9.635  0.00  0.00    -0.044 A 
ATOM     48  H28 BAT d   1      -2.680  22.661  10.876  0.00  0.00     0.084 H 
ATOM     49  S31 BAT d   1      -0.322  21.245   8.440  0.00  0.00    -0.095 SA
ATOM     50  H27 BAT d   1      -2.014  20.298   9.988  0.00  0.00     0.095 H 
ENDBRANCH  42  43
ENDBRANCH  39  42
ENDBRANCH  31  39
ENDBRANCH   1  31
BRANCH   1  51
ATOM     51  C22 BAT d   1       0.310  23.122   2.598  0.00  0.00    -0.050 C 
ATOM     52  H15 BAT d   1       0.020  22.239   3.186  0.00  0.00     0.034 H 
ATOM     53  H16 BAT d   1       0.946  22.810   1.756  0.00  0.00     0.034 H 
BRANCH  51  54
ATOM     54  C23 BAT d   1      -0.992  23.708   1.989  0.00  0.00    -0.060 C 
ATOM     55  H17 BAT d   1      -0.738  24.297   1.095  0.00  0.00     0.038 H 
BRANCH  54  56
ATOM     56  C25 BAT d   1      -1.683  22.368   1.667  0.00  0.00    -0.073 C 
ATOM     57  H21 BAT d   1      -0.996  21.730   1.091  0.00  0.00     0.028 H 
ATOM     58  H22 BAT d   1      -2.591  22.556   1.076  0.00  0.00     0.028 H 
ATOM     59  H23 BAT d   1      -1.954  21.861   2.605  0.00  0.00     0.028 H 
ENDBRANCH  54  56
BRANCH  54  60
ATOM     60  C24 BAT d   1      -2.050  24.493   2.787  0.00  0.00    -0.073 C 
ATOM     61  H18 BAT d   1      -2.868  24.792   2.115  0.00  0.00     0.028 H 
ATOM     62  H19 BAT d   1      -1.588  25.390   3.225  0.00  0.00     0.028 H 
ATOM     63  H20 BAT d   1      -2.449  23.857   3.591  0.00  0.00     0.028 H 
ENDBRANCH  54  60
ENDBRANCH  51  54
ENDBRANCH   1  51
TORSDOF 16
