REMARK  7 active torsions:
REMARK  status: ('A' for Active; 'I' for Inactive)
REMARK    1  A    between atoms: N8_9  and  C9_10 
REMARK    2  A    between atoms: N10_12  and  C11_13 
REMARK    3  A    between atoms: C11_13  and  C12_14 
REMARK    4  A    between atoms: C12_14  and  C13_15 
REMARK    5  A    between atoms: C17_19  and  O17_21 
REMARK    6  A    between atoms: O17_21  and  CA_22 
REMARK    7  A    between atoms: CA_22  and  CB_23 
ROOT
ATOM      1  C1  FPT d   1       0.238 -37.379  19.032  0.00  0.00     0.129 A 
ATOM      2  N2  FPT d   1       0.277 -37.401  20.419  0.00  0.00    -0.242 NA
ATOM      3  C3  FPT d   1      -0.744 -36.867  21.179  0.00  0.00     0.024 A 
ATOM      4  C4  FPT d   1      -1.857 -36.294  20.520  0.00  0.00     0.062 A 
ATOM      5  C5  FPT d   1      -1.876 -36.255  19.113  0.00  0.00    -0.058 A 
ATOM      6  C6  FPT d   1      -0.843 -36.785  18.360  0.00  0.00    -0.037 A 
ATOM      7  C7  FPT d   1      -3.016 -35.805  21.256  0.00  0.00     0.101 C 
ATOM      8  N7  FPT d   1      -3.972 -35.440  21.814  0.00  0.00    -0.191 NA
ATOM      9  N8  FPT d   1       1.104 -38.074  18.269  0.00  0.00    -0.318 N 
ATOM     10  H1  FPT d   1      -0.694 -36.886  22.262  0.00  0.00     0.117 H 
ATOM     11  H2  FPT d   1      -2.720 -35.799  18.608  0.00  0.00     0.086 H 
ATOM     12  H3  FPT d   1      -0.868 -36.743  17.277  0.00  0.00     0.089 H 
ATOM     13  H4  FPT d   1       0.674 -38.558  17.507  0.00  0.00     0.170 HD
ENDROOT
BRANCH   9  14
ATOM     14  C9  FPT d   1       2.403 -38.236  18.336  0.00  0.00     0.173 C 
ATOM     15  S9  FPT d   1       3.410 -38.221  16.945  0.00  0.00    -0.041 SA
ATOM     16  N10 FPT d   1       2.883 -38.383  19.553  0.00  0.00    -0.367 N 
ATOM     17  H5  FPT d   1       3.202 -37.577  20.051  0.00  0.00     0.161 HD
BRANCH  16  18
ATOM     18  C11 FPT d   1       2.962 -39.697  20.196  0.00  0.00    -0.000 C 
ATOM     19  H6  FPT d   1       3.423 -40.399  19.485  0.00  0.00     0.064 H 
ATOM     20  H7  FPT d   1       1.938 -40.028  20.427  0.00  0.00     0.064 H 
BRANCH  18  21
ATOM     21  C12 FPT d   1       3.781 -39.729  21.500  0.00  0.00    -0.007 C 
ATOM     22  H8  FPT d   1       4.832 -39.942  21.253  0.00  0.00     0.044 H 
ATOM     23  H9  FPT d   1       3.387 -40.528  22.146  0.00  0.00     0.044 H 
BRANCH  21  24
ATOM     24  C13 FPT d   1       3.714 -38.416  22.253  0.00  0.00     0.077 A 
ATOM     25  N14 FPT d   1       4.777 -37.545  22.093  0.00  0.00    -0.262 NA
ATOM     26  C15 FPT d   1       4.859 -36.333  22.749  0.00  0.00     0.005 A 
ATOM     27  C16 FPT d   1       3.837 -35.958  23.624  0.00  0.00    -0.031 A 
ATOM     28  H10 FPT d   1       5.708 -35.679  22.587  0.00  0.00     0.114 H 
ATOM     29  C17 FPT d   1       2.742 -36.829  23.819  0.00  0.00     0.110 A 
ATOM     30  H11 FPT d   1       3.884 -35.010  24.147  0.00  0.00     0.090 H 
ATOM     31  C18 FPT d   1       2.650 -38.069  23.124  0.00  0.00     0.174 A 
ATOM     32  F18 FPT d   1       1.545 -38.837  23.228  0.00  0.00    -0.201 F 
BRANCH  29  33
ATOM     33  O17 FPT d   1       1.812 -36.496  24.803  0.00  0.00    -0.348 OA
BRANCH  33  34
ATOM     34  CA  FPT d   1       0.844 -35.518  24.428  0.00  0.00     0.023 C 
ATOM     35  H12 FPT d   1       0.139 -35.957  23.706  0.00  0.00     0.074 H 
ATOM     36  H13 FPT d   1       1.351 -34.657  23.968  0.00  0.00     0.074 H 
BRANCH  34  37
ATOM     37  CB  FPT d   1       0.082 -35.056  25.666  0.00  0.00    -0.056 C 
ATOM     38  H14 FPT d   1      -0.665 -34.302  25.377  0.00  0.00     0.030 H 
ATOM     39  H15 FPT d   1       0.786 -34.617  26.387  0.00  0.00     0.030 H 
ATOM     40  H16 FPT d   1      -0.426 -35.916  26.127  0.00  0.00     0.030 H 
ENDBRANCH  34  37
ENDBRANCH  33  34
ENDBRANCH  29  33
ENDBRANCH  21  24
ENDBRANCH  18  21
ENDBRANCH  16  18
ENDBRANCH   9  14
TORSDOF 7
