REMARK  28 active torsions:
REMARK  status: ('A' for Active; 'I' for Inactive)
REMARK    1  A    between atoms: AC6_6  and  AN6_7 
REMARK    2  A    between atoms: AN9_10  and  AC1_11 
REMARK    3  A    between atoms: AC2_12  and  AO2_13 
REMARK    4  A    between atoms: AC3_14  and  AO3_15 
REMARK    5  A    between atoms: AO3_15  and  AP3_16 
REMARK    6  A    between atoms: AC4_20  and  AC5_22 
REMARK    7  A    between atoms: AC5_22  and  AO5_23 
REMARK    8  A    between atoms: AO5_23  and  AP1_24 
REMARK    9  A    between atoms: AP1_24  and  AO3_27 
REMARK   10  A    between atoms: AO3_27  and  AP2_28 
REMARK   11  A    between atoms: AP2_28  and  AO6_31 
REMARK   12  A    between atoms: AO6_31  and  PC12_33 
REMARK   13  A    between atoms: PC12_33  and  PC11_32 
REMARK   14  A    between atoms: PC11_32  and  PC13_34 
REMARK   15  A    between atoms: PC11_32  and  PC14_35 
REMARK   16  A    between atoms: PC11_32  and  PC10_36 
REMARK   17  A    between atoms: PC10_36  and  PO10_37 
REMARK   18  A    between atoms: PC10_36  and  PC9_38 
REMARK       I    between atoms: PC9_38  and  PN8_40 
REMARK   19  A    between atoms: PN8_40  and  PC7_41 
REMARK   20  A    between atoms: PC7_41  and  PC6_42 
REMARK   21  A    between atoms: PC6_42  and  PC5_43 
REMARK       I    between atoms: PC5_43  and  PN4_45 
REMARK   22  A    between atoms: PN4_45  and  PC3_46 
REMARK   23  A    between atoms: PC3_46  and  PC2_47 
REMARK   24  A    between atoms: PC2_47  and  PS1_48 
REMARK   25  A    between atoms: PS1_48  and  C1_49 
REMARK   26  A    between atoms: C1_49  and  C2_51 
REMARK   27  A    between atoms: C2_51  and  C3_52 
REMARK   28  A    between atoms: C3_52  and  C4_54 
ROOT
ATOM      1  PC1 CAA d   1      58.016 114.412 180.283  0.00  0.00     0.009 C 
ENDROOT
BRANCH   1   2
ATOM      2  PC1 CAA d   1      56.889 115.334 180.735  0.00  0.00     0.041 C 
ATOM      3  H12 CAA d   1      56.727 116.093 179.955  0.00  0.00     0.076 H 
ATOM      4  H13 CAA d   1      55.976 114.733 180.856  0.00  0.00     0.076 H 
BRANCH   2   5
ATOM      5  AO6 CAA d   1      57.156 116.009 181.976  0.00  0.00    -0.289 OA
BRANCH   5   6
ATOM      6  AP2 CAA d   1      55.990 116.406 182.915  0.00  0.00     0.417 P 
ATOM      7  AO4 CAA d   1      54.976 117.264 182.122  0.00  0.00    -0.624 OA
ATOM      8  AO5 CAA d   1      56.560 117.239 184.085  0.00  0.00    -0.624 OA
BRANCH   6   9
ATOM      9  AO3 CAA d   1      55.260 115.145 183.448  0.00  0.00    -0.180 OA
BRANCH   9  10
ATOM     10  AP1 CAA d   1      55.700 114.130 184.525  0.00  0.00     0.417 P 
ATOM     11  AO1 CAA d   1      55.204 114.591 185.911  0.00  0.00    -0.624 OA
ATOM     12  AO2 CAA d   1      57.243 113.970 184.545  0.00  0.00    -0.624 OA
BRANCH  10  13
ATOM     13  AO5 CAA d   1      55.073 112.790 184.230  0.00  0.00    -0.287 OA
BRANCH  13  14
ATOM     14  AC5 CAA d   1      53.708 112.616 184.403  0.00  0.00     0.058 C 
ATOM     15  H10 CAA d   1      53.314 113.453 184.999  0.00  0.00     0.079 H 
ATOM     16  H11 CAA d   1      53.221 112.607 183.417  0.00  0.00     0.079 H 
BRANCH  14  17
ATOM     17  AC4 CAA d   1      53.402 111.334 185.106  0.00  0.00     0.090 C 
ATOM     18  AC3 CAA d   1      54.343 111.157 186.288  0.00  0.00     0.107 C 
ATOM     19  AC2 CAA d   1      55.515 110.525 185.547  0.00  0.00     0.106 C 
ATOM     20  H8  CAA d   1      54.595 112.089 186.815  0.00  0.00     0.092 H 
ATOM     21  AC1 CAA d   1      54.789 109.496 184.641  0.00  0.00     0.140 C 
ATOM     22  H6  CAA d   1      56.053 111.271 184.944  0.00  0.00     0.093 H 
ATOM     23  AO4 CAA d   1      53.619 110.217 184.226  0.00  0.00    -0.353 OA
ATOM     24  H5  CAA d   1      54.521 108.579 185.186  0.00  0.00     0.122 H 
ATOM     25  H9  CAA d   1      52.358 111.345 185.451  0.00  0.00     0.090 H 
BRANCH  18  26
ATOM     26  AO3 CAA d   1      53.758 110.190 187.150  0.00  0.00    -0.272 OA
BRANCH  26  27
ATOM     27  AP3 CAA d   1      53.798 110.431 188.659  0.00  0.00     0.422 P 
ATOM     28  AO7 CAA d   1      55.016 109.728 189.265  0.00  0.00    -0.617 OA
ATOM     29  AO8 CAA d   1      53.898 111.933 188.968  0.00  0.00    -0.617 OA
ATOM     30  AO9 CAA d   1      52.519 109.842 189.250  0.00  0.00    -0.617 OA
ENDBRANCH  26  27
ENDBRANCH  18  26
BRANCH  19  31
ATOM     31  AO2 CAA d   1      56.454 109.889 186.470  0.00  0.00    -0.388 OA
ATOM     32  H7  CAA d   1      55.984 109.283 187.031  0.00  0.00     0.210 HD
ENDBRANCH  19  31
BRANCH  21  33
ATOM     33  AN9 CAA d   1      55.680 109.175 183.505  0.00  0.00    -0.294 N 
ATOM     34  AC4 CAA d   1      56.230 107.947 183.246  0.00  0.00     0.167 A 
ATOM     35  AN3 CAA d   1      56.051 106.806 183.962  0.00  0.00    -0.222 NA
ATOM     36  AC5 CAA d   1      56.990 108.080 182.128  0.00  0.00     0.149 A 
ATOM     37  AC2 CAA d   1      56.725 105.816 183.426  0.00  0.00     0.091 A 
ATOM     38  AN1 CAA d   1      57.491 105.798 182.371  0.00  0.00    -0.222 NA
ATOM     39  H1  CAA d   1      56.630 104.866 183.940  0.00  0.00     0.146 H 
ATOM     40  AC6 CAA d   1      57.665 106.920 181.670  0.00  0.00     0.155 A 
ATOM     41  AN7 CAA d   1      56.948 109.367 181.664  0.00  0.00    -0.236 NA
ATOM     42  AC8 CAA d   1      56.161 109.994 182.508  0.00  0.00     0.071 A 
ATOM     43  H4  CAA d   1      55.914 111.052 182.428  0.00  0.00     0.144 H 
BRANCH  40  44
ATOM     44  AN6 CAA d   1      58.444 106.891 180.603  0.00  0.00    -0.382 N 
ATOM     45  H2  CAA d   1      58.591 107.747 180.049  0.00  0.00     0.157 HD
ATOM     46  H3  CAA d   1      58.905 106.013 180.325  0.00  0.00     0.157 HD
ENDBRANCH  40  44
ENDBRANCH  21  33
ENDBRANCH  14  17
ENDBRANCH  13  14
ENDBRANCH  10  13
ENDBRANCH   9  10
ENDBRANCH   6   9
ENDBRANCH   5   6
ENDBRANCH   2   5
ENDBRANCH   1   2
BRANCH   1  47
ATOM     47  PC1 CAA d   1      59.158 115.254 179.716  0.00  0.00    -0.065 C 
ATOM     48  H14 CAA d   1      59.974 114.593 179.388  0.00  0.00     0.028 H 
ATOM     49  H15 CAA d   1      59.530 115.938 180.493  0.00  0.00     0.028 H 
ATOM     50  H16 CAA d   1      58.792 115.838 178.858  0.00  0.00     0.028 H 
ENDBRANCH   1  47
BRANCH   1  51
ATOM     51  PC1 CAA d   1      57.484 113.478 179.173  0.00  0.00    -0.065 C 
ATOM     52  H17 CAA d   1      56.661 112.867 179.571  0.00  0.00     0.028 H 
ATOM     53  H18 CAA d   1      58.295 112.820 178.827  0.00  0.00     0.028 H 
ATOM     54  H19 CAA d   1      57.117 114.082 178.330  0.00  0.00     0.028 H 
ENDBRANCH   1  51
BRANCH   1  55
ATOM     55  PC1 CAA d   1      58.486 113.618 181.535  0.00  0.00     0.120 C 
ATOM     56  H20 CAA d   1      58.668 114.348 182.337  0.00  0.00     0.099 H 
BRANCH  55  57
ATOM     57  PO1 CAA d   1      57.492 112.641 181.962  0.00  0.00    -0.385 OA
ATOM     58  H21 CAA d   1      56.682 113.088 182.179  0.00  0.00     0.210 HD
ENDBRANCH  55  57
BRANCH  55  59
ATOM     59  PC9 CAA d   1      59.719 112.758 181.355  0.00  0.00     0.247 C 
ATOM     60  PO9 CAA d   1      60.832 113.238 181.203  0.00  0.00    -0.271 OA
ATOM     61  PN8 CAA d   1      59.486 111.367 181.347  0.00  0.00    -0.358 N 
ATOM     62  H22 CAA d   1      58.557 111.035 181.511  0.00  0.00     0.162 HD
BRANCH  61  63
ATOM     63  PC7 CAA d   1      60.502 110.435 181.119  0.00  0.00     0.003 C 
ATOM     64  H23 CAA d   1      60.496 109.692 181.930  0.00  0.00     0.064 H 
ATOM     65  H24 CAA d   1      61.471 110.956 181.107  0.00  0.00     0.064 H 
BRANCH  63  66
ATOM     66  PC6 CAA d   1      60.306 109.724 179.795  0.00  0.00     0.024 C 
ATOM     67  H25 CAA d   1      60.047 110.476 179.035  0.00  0.00     0.049 H 
ATOM     68  H26 CAA d   1      59.474 109.013 179.905  0.00  0.00     0.049 H 
BRANCH  66  69
ATOM     69  PC5 CAA d   1      61.530 108.957 179.312  0.00  0.00     0.219 C 
ATOM     70  PO5 CAA d   1      62.664 109.170 179.693  0.00  0.00    -0.274 OA
ATOM     71  PN4 CAA d   1      61.154 107.972 178.414  0.00  0.00    -0.360 N 
ATOM     72  H27 CAA d   1      60.185 107.907 178.175  0.00  0.00     0.162 HD
BRANCH  71  73
ATOM     73  PC3 CAA d   1      62.032 107.063 177.819  0.00  0.00     0.003 C 
ATOM     74  H28 CAA d   1      62.811 107.618 177.275  0.00  0.00     0.065 H 
ATOM     75  H29 CAA d   1      61.473 106.430 177.114  0.00  0.00     0.065 H 
BRANCH  73  76
ATOM     76  PC2 CAA d   1      62.675 106.199 178.845  0.00  0.00    -0.001 C 
ATOM     77  H30 CAA d   1      62.089 106.322 179.767  0.00  0.00     0.052 H 
ATOM     78  H31 CAA d   1      63.688 106.599 178.999  0.00  0.00     0.052 H 
BRANCH  76  79
ATOM     79  PS1 CAA d   1      62.865 104.385 178.586  0.00  0.00    -0.090 SA
BRANCH  79  80
ATOM     80  C1  CAA d   1      62.291 103.767 177.040  0.00  0.00     0.193 C 
ATOM     81  O1  CAA d   1      61.869 104.548 176.199  0.00  0.00    -0.285 OA
BRANCH  80  82
ATOM     82  C2  CAA d   1      62.722 102.390 176.670  0.00  0.00     0.055 C 
ATOM     83  H32 CAA d   1      62.045 101.710 177.207  0.00  0.00     0.057 H 
ATOM     84  H33 CAA d   1      63.742 102.279 177.065  0.00  0.00     0.057 H 
BRANCH  82  85
ATOM     85  C3  CAA d   1      62.773 101.892 175.278  0.00  0.00     0.130 C 
ATOM     86  O3  CAA d   1      62.532 102.593 174.350  0.00  0.00    -0.298 OA
BRANCH  85  87
ATOM     87  C4  CAA d   1      63.115 100.488 174.880  0.00  0.00    -0.021 C 
ATOM     88  H34 CAA d   1      63.077 100.398 173.784  0.00  0.00     0.037 H 
ATOM     89  H35 CAA d   1      62.392  99.793 175.331  0.00  0.00     0.037 H 
ATOM     90  H36 CAA d   1      64.128 100.243 175.233  0.00  0.00     0.037 H 
ENDBRANCH  85  87
ENDBRANCH  82  85
ENDBRANCH  80  82
ENDBRANCH  79  80
ENDBRANCH  76  79
ENDBRANCH  73  76
ENDBRANCH  71  73
ENDBRANCH  66  69
ENDBRANCH  63  66
ENDBRANCH  61  63
ENDBRANCH  55  59
ENDBRANCH   1  55
TORSDOF 28
