REMARK WARNING: 32 MAX_TORS EXCEEDED!!!
REMARK  53 active torsions:
REMARK  status: ('A' for Active; 'I' for Inactive)
REMARK    1  A    between atoms: C_1  and  CH3_3 
REMARK       I    between atoms: C_1  and  N_4 
REMARK    2  A    between atoms: N_4  and  CA_5 
REMARK    3  A    between atoms: CA_5  and  C_6 
REMARK    4  A    between atoms: CA_5  and  CB_8 
REMARK       I    between atoms: C_6  and  N_9 
REMARK    5  A    between atoms: N_9  and  CA_10 
REMARK    6  A    between atoms: CA_10  and  C_11 
REMARK    7  A    between atoms: CA_10  and  CB_13 
REMARK       I    between atoms: C_11  and  N_17 
REMARK    8  A    between atoms: CB_13  and  CG_14 
REMARK    9  A    between atoms: CG_14  and  CD1_15 
REMARK   10  A    between atoms: CG_14  and  CD2_16 
REMARK   11  A    between atoms: N_17  and  CA_18 
REMARK   12  A    between atoms: CA_24  and  CB_27 
REMARK   13  A    between atoms: CB_27  and  CG_28 
REMARK   14  A    between atoms: CA_32  and  CB_35 
REMARK   15  A    between atoms: CB_35  and  CG_36 
REMARK   16  A    between atoms: CA_47  and  CB_50 
REMARK   17  A    between atoms: CB_50  and  CG_51 
REMARK   18  A    between atoms: CG_51  and  CD_52 
REMARK   19  A    between atoms: CD_52  and  NE_53 
REMARK       I    between atoms: NE_53  and  CZ_54 
REMARK       I    between atoms: CZ_54  and  NH1_55 
REMARK       I    between atoms: CZ_54  and  NH2_56 
REMARK   20  A    between atoms: CA_58  and  CB_61 
REMARK   21  A    between atoms: CB_61  and  CG1_62 
REMARK   22  A    between atoms: CB_61  and  CG2_63 
REMARK   23  A    between atoms: CA_65  and  CB_68 
REMARK   24  A    between atoms: CB_68  and  CG_69 
REMARK   25  A    between atoms: CA_73  and  CB_76 
REMARK   26  A    between atoms: CB_76  and  CG_77 
REMARK   27  A    between atoms: CG_77  and  CD_78 
REMARK   28  A    between atoms: CD_78  and  NE_79 
REMARK       I    between atoms: NE_79  and  CZ_80 
REMARK       I    between atoms: CZ_80  and  NH1_81 
REMARK   29  A    between atoms: CA_84  and  CB_87 
REMARK   30  A    between atoms: CB_87  and  CG_88 
REMARK   31  A    between atoms: CA_98  and  CB_101 
REMARK   32  A    between atoms: CB_101  and  CG_102 
REMARK   33  A    between atoms: CZ_107  and  OH_108 
REMARK   34  A    between atoms: CA_110  and  C_111 
REMARK       I    between atoms: C_111  and  N_115 
REMARK   35  A    between atoms: N_115  and  CA_116 
REMARK   36  A    between atoms: CA_116  and  C_117 
REMARK   37  A    between atoms: CA_116  and  CB_119 
REMARK       I    between atoms: C_117  and  N_124 
REMARK   38  A    between atoms: CB_119  and  CG_120 
REMARK   39  A    between atoms: CG_120  and  CD_121 
REMARK       I    between atoms: CD_121  and  NE2_123 
REMARK   40  A    between atoms: N_124  and  CA_125 
REMARK   41  A    between atoms: CA_125  and  C_126 
REMARK   42  A    between atoms: CA_125  and  CB_128 
REMARK       I    between atoms: C_126  and  N_135 
REMARK   43  A    between atoms: CB_128  and  CG_129 
REMARK   44  A    between atoms: N_135  and  CA_136 
REMARK   45  A    between atoms: CA_136  and  C_137 
REMARK   46  A    between atoms: CA_136  and  CB_139 
REMARK       I    between atoms: C_137  and  N_142 
REMARK   47  A    between atoms: CB_139  and  CG1_140 
REMARK   48  A    between atoms: CB_139  and  CG2_141 
REMARK   49  A    between atoms: N_142  and  CA_143 
REMARK   50  A    between atoms: CA_143  and  C_144 
REMARK   51  A    between atoms: CA_143  and  CB_146 
REMARK       I    between atoms: C_144  and  N_151 
REMARK   52  A    between atoms: CB_146  and  CG_147 
REMARK   53  A    between atoms: CG_147  and  CD_148 
ROOT
ATOM      1  CA  CYS d   1      43.296   6.214  -1.897  0.00  0.00     0.098 C 
ATOM      2  C   CYS d   1      44.497   5.411  -2.414  0.00  0.00     0.242 C 
ATOM      3  O   CYS d   1      44.523   4.997  -3.570  0.00  0.00    -0.271 OA
ATOM      4  CB  CYS d   1      43.559   7.746  -1.949  0.00  0.00     0.013 C 
ATOM      5  SG  CYS d   1      43.887   8.582  -3.563  0.00  0.00    -0.095 SA
ATOM      6  N   CYS d   1      39.634   9.709  -2.586  0.00  0.00    -0.345 N 
ATOM      7  CA  CYS d   1      40.882  10.472  -2.664  0.00  0.00     0.098 C 
ATOM      8  CB  CYS d   1      41.462  10.432  -4.068  0.00  0.00     0.013 C 
ATOM      9  SG  CYS d   1      42.084   8.789  -4.513  0.00  0.00    -0.095 SA
ATOM     10  H21 CYS d   1      42.432   5.991  -2.541  0.00  0.00     0.088 H 
ATOM     11  H22 CYS d   1      44.434   7.938  -1.310  0.00  0.00     0.053 H 
ATOM     12  H23 CYS d   1      42.674   8.233  -1.515  0.00  0.00     0.053 H 
ATOM     13  H97 CYS d   1      38.993   9.727  -3.353  0.00  0.00     0.163 HD
ATOM     14  H98 CYS d   1      41.602  10.002  -1.979  0.00  0.00     0.088 H 
ATOM     15  H99 CYS d   1      42.292  11.152  -4.128  0.00  0.00     0.053 H 
ATOM     16 0H10 CYS d   1      40.676  10.718  -4.783  0.00  0.00     0.053 H 
ATOM     17  N   ASP d   1      45.480   5.179  -1.557  0.00  0.00    -0.345 N 
ATOM     18  CA  ASP d   1      46.654   4.434  -1.956  0.00  0.00     0.098 C 
ATOM     19  C   ASP d   1      46.313   3.116  -2.657  0.00  0.00     0.241 C 
ATOM     20  O   ASP d   1      47.090   2.631  -3.477  0.00  0.00    -0.271 OA
ATOM     21  N   ASP d   1      45.144   2.551  -2.358  0.00  0.00    -0.345 N 
ATOM     22  CA  ASP d   1      44.728   1.262  -2.923  0.00  0.00     0.099 C 
ATOM     23  C   ASP d   1      44.020   1.318  -4.278  0.00  0.00     0.243 C 
ATOM     24  O   ASP d   1      42.927   1.882  -4.411  0.00  0.00    -0.271 OA
ATOM     25  N   ASP d   1      37.185   3.073  -5.076  0.00  0.00    -0.345 N 
ATOM     26  CA  ASP d   1      36.461   4.142  -5.702  0.00  0.00     0.098 C 
ATOM     27  C   ASP d   1      37.377   5.323  -5.573  0.00  0.00     0.241 C 
ATOM     28  O   ASP d   1      37.848   5.601  -4.478  0.00  0.00    -0.271 OA
ATOM     29  H24 ASP d   1      45.410   5.524  -0.621  0.00  0.00     0.163 HD
ATOM     30  H25 ASP d   1      47.236   5.056  -2.652  0.00  0.00     0.088 H 
ATOM     31  H28 ASP d   1      44.528   3.022  -1.726  0.00  0.00     0.163 HD
ATOM     32  H29 ASP d   1      45.642   0.667  -3.070  0.00  0.00     0.088 H 
ATOM     33  H61 ASP d   1      36.743   2.532  -4.361  0.00  0.00     0.163 HD
ATOM     34  H62 ASP d   1      36.230   3.912  -6.753  0.00  0.00     0.088 H 
ATOM     35  N   PRO d   1      44.613   0.677  -5.290  0.00  0.00    -0.337 N 
ATOM     36  CA  PRO d   1      44.071   0.644  -6.648  0.00  0.00     0.091 C 
ATOM     37  C   PRO d   1      42.650   0.133  -6.843  0.00  0.00     0.241 C 
ATOM     38  O   PRO d   1      41.946   0.562  -7.766  0.00  0.00    -0.271 OA
ATOM     39  CB  PRO d   1      45.065  -0.210  -7.418  0.00  0.00    -0.036 C 
ATOM     40  CG  PRO d   1      46.330  -0.191  -6.622  0.00  0.00    -0.048 C 
ATOM     41  CD  PRO d   1      45.874  -0.080  -5.185  0.00  0.00    -0.001 C 
ATOM     42  H32 PRO d   1      44.091   1.670  -7.043  0.00  0.00     0.087 H 
ATOM     43  H33 PRO d   1      45.237   0.213  -8.419  0.00  0.00     0.036 H 
ATOM     44  H34 PRO d   1      44.690  -1.240  -7.514  0.00  0.00     0.036 H 
ATOM     45  H35 PRO d   1      46.951   0.673  -6.900  0.00  0.00     0.035 H 
ATOM     46  H36 PRO d   1      46.901  -1.118  -6.778  0.00  0.00     0.035 H 
ATOM     47  H37 PRO d   1      45.702  -1.075  -4.748  0.00  0.00     0.064 H 
ATOM     48  H38 PRO d   1      46.612   0.465  -4.578  0.00  0.00     0.064 H 
ATOM     49  N   ARG d   1      42.187  -0.761  -5.990  0.00  0.00    -0.346 N 
ATOM     50  CA  ARG d   1      40.841  -1.268  -6.236  0.00  0.00     0.089 C 
ATOM     51  C   ARG d   1      39.748  -0.453  -5.568  0.00  0.00     0.241 C 
ATOM     52  O   ARG d   1      38.647  -0.958  -5.328  0.00  0.00    -0.271 OA
ATOM     53  N   ARG d   1      37.599   6.044  -6.661  0.00  0.00    -0.346 N 
ATOM     54  CA  ARG d   1      38.523   7.162  -6.599  0.00  0.00     0.089 C 
ATOM     55  C   ARG d   1      38.029   8.362  -5.798  0.00  0.00     0.241 C 
ATOM     56  O   ARG d   1      38.755   9.338  -5.571  0.00  0.00    -0.271 OA
ATOM     57  H39 ARG d   1      42.732  -1.076  -5.213  0.00  0.00     0.163 HD
ATOM     58  H40 ARG d   1      40.669  -1.179  -7.319  0.00  0.00     0.087 H 
ATOM     59  H65 ARG d   1      37.134   5.821  -7.518  0.00  0.00     0.163 HD
ATOM     60  H66 ARG d   1      39.430   6.803  -6.090  0.00  0.00     0.087 H 
ATOM     61  N   VAL d   1      40.051   0.822  -5.305  0.00  0.00    -0.346 N 
ATOM     62  CA  VAL d   1      39.078   1.677  -4.638  0.00  0.00     0.092 C 
ATOM     63  C   VAL d   1      38.430   2.792  -5.431  0.00  0.00     0.241 C 
ATOM     64  O   VAL d   1      39.041   3.410  -6.308  0.00  0.00    -0.271 OA
ATOM     65  H52 VAL d   1      40.944   1.188  -5.566  0.00  0.00     0.163 HD
ATOM     66  H53 VAL d   1      38.273   1.004  -4.307  0.00  0.00     0.088 H 
ATOM     67  N   TRP d   1      36.796   8.246  -5.330  0.00  0.00    -0.346 N 
ATOM     68  CA  TRP d   1      36.128   9.267  -4.527  0.00  0.00     0.093 C 
ATOM     69  C   TRP d   1      36.792   9.358  -3.177  0.00  0.00     0.241 C 
ATOM     70  O   TRP d   1      36.729  10.375  -2.486  0.00  0.00    -0.271 OA
ATOM     71  H78 TRP d   1      36.291   7.408  -5.539  0.00  0.00     0.163 HD
ATOM     72  H79 TRP d   1      36.172  10.241  -5.035  0.00  0.00     0.088 H 
ATOM     73  N   TYR d   1      37.430   8.269  -2.806  0.00  0.00    -0.346 N 
ATOM     74  CA  TYR d   1      38.051   8.214  -1.528  0.00  0.00     0.093 C 
ATOM     75  C   TYR d   1      39.346   8.991  -1.501  0.00  0.00     0.241 C 
ATOM     76  O   TYR d   1      40.078   8.949  -0.503  0.00  0.00    -0.271 OA
ATOM     77  H88 TYR d   1      37.478   7.482  -3.421  0.00  0.00     0.163 HD
ATOM     78  H89 TYR d   1      37.373   8.669  -0.791  0.00  0.00     0.088 H 
ENDROOT
BRANCH   7  79
ATOM     79  C   CYS d   1      40.713  11.899  -2.249  0.00  0.00     0.241 C 
ATOM     80  O   CYS d   1      41.668  12.552  -1.868  0.00  0.00    -0.271 OA
ATOM     81  N   GLN d   1      39.489  12.385  -2.324  0.00  0.00    -0.346 N 
ATOM     82 1H10 GLN d   1      38.741  11.810  -2.656  0.00  0.00     0.163 HD
BRANCH  81  83
ATOM     83  CA  GLN d   1      39.231  13.750  -1.925  0.00  0.00     0.090 C 
ATOM     84 2H10 GLN d   1      39.861  14.426  -2.522  0.00  0.00     0.087 H 
BRANCH  83  85
ATOM     85  C   GLN d   1      39.561  13.913  -0.451  0.00  0.00     0.241 C 
ATOM     86  O   GLN d   1      39.728  15.023   0.027  0.00  0.00    -0.271 OA
ATOM     87  N   PHE d   1      39.668  12.824   0.287  0.00  0.00    -0.346 N 
ATOM     88 9H10 PHE d   1      39.578  11.914  -0.117  0.00  0.00     0.163 HD
BRANCH  87  89
ATOM     89  CA  PHE d   1      39.920  12.993   1.700  0.00  0.00     0.093 C 
ATOM     90 0H11 PHE d   1      39.685  14.038   1.951  0.00  0.00     0.088 H 
BRANCH  89  91
ATOM     91  C   PHE d   1      41.334  12.740   2.087  0.00  0.00     0.241 C 
ATOM     92  O   PHE d   1      41.609  12.586   3.264  0.00  0.00    -0.271 OA
ATOM     93  N   VAL d   1      42.249  12.726   1.124  0.00  0.00    -0.346 N 
ATOM     94 8H11 VAL d   1      41.984  12.897   0.175  0.00  0.00     0.163 HD
BRANCH  93  95
ATOM     95  CA  VAL d   1      43.646  12.459   1.463  0.00  0.00     0.092 C 
ATOM     96 9H11 VAL d   1      43.638  11.966   2.446  0.00  0.00     0.088 H 
BRANCH  95  97
ATOM     97  C   VAL d   1      44.560  13.658   1.557  0.00  0.00     0.241 C 
ATOM     98  O   VAL d   1      44.788  14.225   2.641  0.00  0.00    -0.271 OA
ATOM     99  N   GLU d   1      45.120  13.999   0.400  0.00  0.00    -0.346 N 
ATOM    100 7H12 GLU d   1      44.897  13.459  -0.412  0.00  0.00     0.163 HD
BRANCH  99 101
ATOM    101  CA  GLU d   1      46.036  15.112   0.255  0.00  0.00     0.089 C 
ATOM    102 8H12 GLU d   1      46.750  15.169   1.090  0.00  0.00     0.087 H 
BRANCH 101 103
ATOM    103  C   GLU d   1      45.106  16.292   0.232  0.00  0.00     0.238 C 
ATOM    104  O   GLU d   1      43.942  16.059  -0.175  0.00  0.00    -0.271 OA
ATOM    105  N   GLY d   1      45.522  17.402   0.634  0.00  0.00    -0.368 N 
ATOM    106 3H13 GLY d   1      44.915  18.197   0.625  0.00  0.00     0.159 HD
ATOM    107 4H13 GLY d   1      46.461  17.494   0.964  0.00  0.00     0.159 HD
ENDBRANCH 101 103
BRANCH 101 108
ATOM    108  CB  GLU d   1      46.778  14.996  -1.073  0.00  0.00    -0.029 C 
ATOM    109 9H12 GLU d   1      46.209  15.553  -1.832  0.00  0.00     0.037 H 
ATOM    110 0H13 GLU d   1      46.816  13.932  -1.351  0.00  0.00     0.037 H 
BRANCH 108 111
ATOM    111  CG  GLU d   1      48.190  15.528  -1.062  0.00  0.00     0.018 C 
ATOM    112 1H13 GLU d   1      48.835  14.808  -0.536  0.00  0.00     0.049 H 
ATOM    113 2H13 GLU d   1      48.201  16.489  -0.527  0.00  0.00     0.049 H 
BRANCH 111 114
ATOM    114  CD  GLU d   1      48.743  15.744  -2.472  0.00  0.00     0.172 C 
ATOM    115  OE1 GLU d   1      47.948  15.634  -3.436  0.00  0.00    -0.648 OA
ATOM    116  OE2 GLU d   1      49.964  16.021  -2.618  0.00  0.00    -0.648 OA
ENDBRANCH 111 114
ENDBRANCH 108 111
ENDBRANCH 101 108
ENDBRANCH  99 101
ENDBRANCH  95  97
BRANCH  95 117
ATOM    117  CB  VAL d   1      44.311  11.535   0.465  0.00  0.00    -0.033 C 
ATOM    118 0H12 VAL d   1      44.905  12.141  -0.235  0.00  0.00     0.042 H 
BRANCH 117 119
ATOM    119  CG1 VAL d   1      45.263  10.606   1.214  0.00  0.00    -0.071 C 
ATOM    120 1H12 VAL d   1      45.753   9.929   0.499  0.00  0.00     0.028 H 
ATOM    121 2H12 VAL d   1      44.696  10.015   1.949  0.00  0.00     0.028 H 
ATOM    122 3H12 VAL d   1      46.026  11.204   1.734  0.00  0.00     0.028 H 
ENDBRANCH 117 119
BRANCH 117 123
ATOM    123  CG2 VAL d   1      43.263  10.792  -0.338  0.00  0.00    -0.071 C 
ATOM    124 4H12 VAL d   1      42.613  11.516  -0.851  0.00  0.00     0.028 H 
ATOM    125 5H12 VAL d   1      42.658  10.169   0.337  0.00  0.00     0.028 H 
ATOM    126 6H12 VAL d   1      43.758  10.152  -1.083  0.00  0.00     0.028 H 
ENDBRANCH 117 123
ENDBRANCH  95 117
ENDBRANCH  93  95
ENDBRANCH  89  91
BRANCH  89 127
ATOM    127  CB  PHE d   1      39.015  12.087   2.531  0.00  0.00    -0.014 C 
ATOM    128 1H11 PHE d   1      38.914  12.527   3.534  0.00  0.00     0.043 H 
ATOM    129 2H11 PHE d   1      39.495  11.100   2.611  0.00  0.00     0.043 H 
BRANCH 127 130
ATOM    130  CG  PHE d   1      37.626  11.895   1.954  0.00  0.00    -0.056 A 
ATOM    131  CD1 PHE d   1      37.375  10.922   0.992  0.00  0.00    -0.077 A 
ATOM    132  CE1 PHE d   1      36.111  10.714   0.512  0.00  0.00    -0.082 A 
ATOM    133 3H11 PHE d   1      38.194  10.319   0.617  0.00  0.00     0.084 H 
ATOM    134  CZ  PHE d   1      35.060  11.476   0.977  0.00  0.00    -0.083 A 
ATOM    135 5H11 PHE d   1      35.935   9.949  -0.235  0.00  0.00     0.083 H 
ATOM    136  CE2 PHE d   1      35.282  12.447   1.919  0.00  0.00    -0.082 A 
ATOM    137 7H11 PHE d   1      34.059  11.307   0.598  0.00  0.00     0.083 H 
ATOM    138  CD2 PHE d   1      36.565  12.656   2.409  0.00  0.00    -0.077 A 
ATOM    139 6H11 PHE d   1      34.458  13.051   2.281  0.00  0.00     0.083 H 
ATOM    140 4H11 PHE d   1      36.736  13.423   3.155  0.00  0.00     0.084 H 
ENDBRANCH 127 130
ENDBRANCH  89 127
ENDBRANCH  87  89
ENDBRANCH  83  85
BRANCH  83 141
ATOM    141  CB  GLN d   1      37.763  14.111  -2.136  0.00  0.00    -0.030 C 
ATOM    142 3H10 GLN d   1      37.376  13.531  -2.986  0.00  0.00     0.037 H 
ATOM    143 4H10 GLN d   1      37.693  15.185  -2.363  0.00  0.00     0.037 H 
BRANCH 141 144
ATOM    144  CG  GLN d   1      36.909  13.815  -0.916  0.00  0.00     0.011 C 
ATOM    145 5H10 GLN d   1      37.215  14.489  -0.102  0.00  0.00     0.047 H 
ATOM    146 6H10 GLN d   1      37.081  12.772  -0.612  0.00  0.00     0.047 H 
BRANCH 144 147
ATOM    147  CD  GLN d   1      35.438  14.004  -1.167  0.00  0.00     0.215 C 
ATOM    148  OE1 GLN d   1      34.880  15.083  -0.944  0.00  0.00    -0.274 OA
ATOM    149  NE2 GLN d   1      34.791  12.951  -1.629  0.00  0.00    -0.370 N 
ATOM    150 7H10 GLN d   1      33.811  13.009  -1.817  0.00  0.00     0.159 HD
ATOM    151 8H10 GLN d   1      35.281  12.095  -1.791  0.00  0.00     0.159 HD
ENDBRANCH 144 147
ENDBRANCH 141 144
ENDBRANCH  83 141
ENDBRANCH  81  83
ENDBRANCH   7  79
BRANCH  74 152
ATOM    152  CB  TYR d   1      38.248   6.745  -1.157  0.00  0.00    -0.014 C 
ATOM    153  H90 TYR d   1      39.090   6.665  -0.453  0.00  0.00     0.043 H 
ATOM    154  H91 TYR d   1      38.478   6.175  -2.069  0.00  0.00     0.043 H 
BRANCH 152 155
ATOM    155  CG  TYR d   1      37.021   6.163  -0.516  0.00  0.00    -0.056 A 
ATOM    156  CD1 TYR d   1      35.961   5.734  -1.283  0.00  0.00    -0.074 A 
ATOM    157  CE1 TYR d   1      34.798   5.309  -0.684  0.00  0.00    -0.051 A 
ATOM    158  H92 TYR d   1      36.043   5.731  -2.364  0.00  0.00     0.084 H 
ATOM    159  CZ  TYR d   1      34.697   5.310   0.677  0.00  0.00     0.065 A 
ATOM    160  H94 TYR d   1      33.965   4.974  -1.291  0.00  0.00     0.087 H 
ATOM    161  CE2 TYR d   1      35.708   5.715   1.473  0.00  0.00    -0.051 A 
ATOM    162  CD2 TYR d   1      36.875   6.142   0.884  0.00  0.00    -0.074 A 
ATOM    163  H95 TYR d   1      35.603   5.704   2.552  0.00  0.00     0.087 H 
ATOM    164  H93 TYR d   1      37.698   6.468   1.510  0.00  0.00     0.084 H 
BRANCH 159 165
ATOM    165  OH  TYR d   1      33.558   4.858   1.222  0.00  0.00    -0.361 OA
ATOM    166  H96 TYR d   1      32.953   4.615   0.531  0.00  0.00     0.217 HD
ENDBRANCH 159 165
ENDBRANCH 152 155
ENDBRANCH  74 152
BRANCH   1 167
ATOM    167  N   CYS d   1      42.972   5.811  -0.525  0.00  0.00    -0.345 N 
ATOM    168  C   LEU d   1      42.764   4.536  -0.215  0.00  0.00     0.241 C 
ATOM    169  O   LEU d   1      42.872   3.628  -1.039  0.00  0.00    -0.271 OA
ATOM    170  H20 CYS d   1      42.907   6.508   0.190  0.00  0.00     0.163 HD
BRANCH 168 171
ATOM    171  CA  LEU d   1      42.426   4.229   1.241  0.00  0.00     0.089 C 
ATOM    172  H10 LEU d   1      42.746   3.198   1.454  0.00  0.00     0.087 H 
BRANCH 171 173
ATOM    173  N   LEU d   1      43.134   5.121   2.126  0.00  0.00    -0.346 N 
ATOM    174  C   ALA d   1      44.432   4.967   2.313  0.00  0.00     0.240 C 
ATOM    175  O   ALA d   1      45.082   4.091   1.746  0.00  0.00    -0.271 OA
ATOM    176  H9  LEU d   1      42.643   5.854   2.597  0.00  0.00     0.163 HD
BRANCH 174 177
ATOM    177  CA  ALA d   1      45.118   5.891   3.289  0.00  0.00     0.086 C 
ATOM    178  H5  ALA d   1      44.455   6.364   4.028  0.00  0.00     0.086 H 
BRANCH 177 179
ATOM    179  N   ALA d   1      45.937   4.822   3.811  0.00  0.00    -0.348 N 
ATOM    180  C   ACE d   1      47.255   4.812   3.830  0.00  0.00     0.214 C 
ATOM    181  O   ACE d   1      47.964   5.744   3.440  0.00  0.00    -0.274 OA
ATOM    182  H4  ALA d   1      45.466   4.025   4.189  0.00  0.00     0.163 HD
BRANCH 180 183
ATOM    183  CH3 ACE d   1      47.834   3.531   4.390  0.00  0.00    -0.003 C 
ATOM    184  H1  ACE d   1      47.016   2.851   4.670  0.00  0.00     0.040 H 
ATOM    185  H2  ACE d   1      48.441   3.760   5.279  0.00  0.00     0.040 H 
ATOM    186  H3  ACE d   1      48.466   3.051   3.629  0.00  0.00     0.040 H 
ENDBRANCH 180 183
ENDBRANCH 177 179
BRANCH 177 187
ATOM    187  CB  ALA d   1      45.941   6.936   2.541  0.00  0.00    -0.049 C 
ATOM    188  H6  ALA d   1      45.275   7.726   2.164  0.00  0.00     0.030 H 
ATOM    189  H7  ALA d   1      46.459   6.459   1.696  0.00  0.00     0.030 H 
ATOM    190  H8  ALA d   1      46.682   7.376   3.224  0.00  0.00     0.030 H 
ENDBRANCH 177 187
ENDBRANCH 174 177
ENDBRANCH 171 173
BRANCH 171 191
ATOM    191  CB  LEU d   1      40.917   4.331   1.515  0.00  0.00    -0.035 C 
ATOM    192  H11 LEU d   1      40.400   3.803   0.701  0.00  0.00     0.037 H 
ATOM    193  H12 LEU d   1      40.650   5.398   1.488  0.00  0.00     0.037 H 
BRANCH 191 194
ATOM    194  CG  LEU d   1      40.385   3.758   2.845  0.00  0.00    -0.059 C 
ATOM    195  H13 LEU d   1      39.989   4.582   3.457  0.00  0.00     0.038 H 
BRANCH 194 196
ATOM    196  CD1 LEU d   1      39.296   2.764   2.576  0.00  0.00    -0.073 C 
ATOM    197  H14 LEU d   1      38.923   2.361   3.529  0.00  0.00     0.028 H 
ATOM    198  H15 LEU d   1      39.693   1.943   1.961  0.00  0.00     0.028 H 
ATOM    199  H16 LEU d   1      38.472   3.258   2.040  0.00  0.00     0.028 H 
ENDBRANCH 194 196
BRANCH 194 200
ATOM    200  CD2 LEU d   1      41.481   3.055   3.602  0.00  0.00    -0.073 C 
ATOM    201  H17 LEU d   1      42.295   3.765   3.812  0.00  0.00     0.028 H 
ATOM    202  H18 LEU d   1      41.868   2.222   2.997  0.00  0.00     0.028 H 
ATOM    203  H19 LEU d   1      41.081   2.665   4.549  0.00  0.00     0.028 H 
ENDBRANCH 194 200
ENDBRANCH 191 194
ENDBRANCH 171 191
ENDBRANCH 168 171
ENDBRANCH   1 167
BRANCH  68 204
ATOM    204  CB  TRP d   1      34.685   8.834  -4.337  0.00  0.00    -0.012 C 
ATOM    205  H80 TRP d   1      34.703   7.806  -3.945  0.00  0.00     0.044 H 
ATOM    206  H81 TRP d   1      34.211   8.840  -5.330  0.00  0.00     0.044 H 
BRANCH 204 207
ATOM    207  CG  TRP d   1      33.818   9.633  -3.432  0.00  0.00    -0.028 A 
ATOM    208  CD1 TRP d   1      32.991  10.652  -3.804  0.00  0.00    -0.015 A 
ATOM    209  NE1 TRP d   1      32.132  10.967  -2.787  0.00  0.00    -0.365 N 
ATOM    210  H82 TRP d   1      33.012  11.146  -4.774  0.00  0.00     0.112 H 
ATOM    211  CE2 TRP d   1      32.395  10.157  -1.715  0.00  0.00     0.042 A 
ATOM    212  H83 TRP d   1      31.405  11.696  -2.822  0.00  0.00     0.165 HD
ATOM    213  CD2 TRP d   1      33.467   9.310  -2.083  0.00  0.00    -0.002 A 
ATOM    214  CZ2 TRP d   1      31.789  10.108  -0.443  0.00  0.00    -0.056 A 
ATOM    215  CE3 TRP d   1      33.937   8.376  -1.152  0.00  0.00    -0.070 A 
ATOM    216  CZ3 TRP d   1      33.333   8.325   0.121  0.00  0.00    -0.082 A 
ATOM    217  H84 TRP d   1      34.750   7.705  -1.405  0.00  0.00     0.084 H 
ATOM    218  CH2 TRP d   1      32.267   9.187   0.455  0.00  0.00    -0.081 A 
ATOM    219  H86 TRP d   1      33.693   7.613   0.854  0.00  0.00     0.083 H 
ATOM    220  H87 TRP d   1      31.817   9.120   1.439  0.00  0.00     0.083 H 
ATOM    221  H85 TRP d   1      30.974  10.774  -0.183  0.00  0.00     0.086 H 
ENDBRANCH 204 207
ENDBRANCH  68 204
BRANCH  18 222
ATOM    222  CB  ASP d   1      47.506   4.134  -0.728  0.00  0.00     0.043 C 
ATOM    223  H26 ASP d   1      48.307   3.437  -1.017  0.00  0.00     0.052 H 
ATOM    224  H27 ASP d   1      46.869   3.664   0.036  0.00  0.00     0.052 H 
BRANCH 222 225
ATOM    225  CG  ASP d   1      48.134   5.375  -0.138  0.00  0.00     0.175 C 
ATOM    226  OD1 ASP d   1      47.950   6.467  -0.721  0.00  0.00    -0.648 OA
ATOM    227  OD2 ASP d   1      48.814   5.255   0.910  0.00  0.00    -0.648 OA
ENDBRANCH 222 225
ENDBRANCH  18 222
BRANCH  54 228
ATOM    228  CB  ARG d   1      38.911   7.542  -8.015  0.00  0.00    -0.036 C 
ATOM    229  H67 ARG d   1      39.616   8.386  -7.979  0.00  0.00     0.036 H 
ATOM    230  H68 ARG d   1      38.007   7.842  -8.566  0.00  0.00     0.036 H 
BRANCH 228 231
ATOM    231  CG  ARG d   1      39.575   6.367  -8.745  0.00  0.00    -0.048 C 
ATOM    232  H69 ARG d   1      39.474   6.523  -9.829  0.00  0.00     0.035 H 
ATOM    233  H70 ARG d   1      39.060   5.438  -8.459  0.00  0.00     0.035 H 
BRANCH 231 234
ATOM    234  CD  ARG d   1      41.077   6.227  -8.402  0.00  0.00     0.009 C 
ATOM    235  H71 ARG d   1      41.609   7.106  -8.794  0.00  0.00     0.064 H 
ATOM    236  H72 ARG d   1      41.464   5.318  -8.886  0.00  0.00     0.064 H 
BRANCH 234 237
ATOM    237  NE  ARG d   1      41.331   6.132  -6.963  0.00  0.00    -0.227 N 
ATOM    238  CZ  ARG d   1      42.308   5.409  -6.414  0.00  0.00     0.665 C 
ATOM    239  NH1 ARG d   1      43.138   4.708  -7.177  0.00  0.00    -0.235 N 
ATOM    240  NH2 ARG d   1      42.457   5.370  -5.101  0.00  0.00    -0.235 N 
ATOM    241  H74 ARG d   1      43.890   4.152  -6.745  0.00  0.00     0.174 HD
ATOM    242  H75 ARG d   1      43.030   4.720  -8.201  0.00  0.00     0.174 HD
ATOM    243  H76 ARG d   1      41.822   5.908  -4.494  0.00  0.00     0.174 HD
ATOM    244  H77 ARG d   1      43.208   4.802  -4.685  0.00  0.00     0.174 HD
ATOM    245  H73 ARG d   1      40.712   6.660  -6.331  0.00  0.00     0.177 HD
ENDBRANCH 234 237
ENDBRANCH 231 234
ENDBRANCH 228 231
ENDBRANCH  54 228
BRANCH  22 246
ATOM    246  CB  ASP d   1      43.853   0.541  -1.898  0.00  0.00     0.043 C 
ATOM    247  H30 ASP d   1      42.944   1.137  -1.730  0.00  0.00     0.052 H 
ATOM    248  H31 ASP d   1      44.414   0.455  -0.956  0.00  0.00     0.052 H 
BRANCH 246 249
ATOM    249  CG  ASP d   1      43.448  -0.836  -2.343  0.00  0.00     0.175 C 
ATOM    250  OD1 ASP d   1      43.236  -1.015  -3.563  0.00  0.00    -0.648 OA
ATOM    251  OD2 ASP d   1      43.334  -1.731  -1.471  0.00  0.00    -0.648 OA
ENDBRANCH 246 249
ENDBRANCH  22 246
BRANCH  26 252
ATOM    252  CB  ASP d   1      35.204   4.443  -4.936  0.00  0.00     0.043 C 
ATOM    253  H63 ASP d   1      35.464   4.638  -3.885  0.00  0.00     0.052 H 
ATOM    254  H64 ASP d   1      34.534   3.573  -4.993  0.00  0.00     0.052 H 
BRANCH 252 255
ATOM    255  CG  ASP d   1      34.502   5.629  -5.487  0.00  0.00     0.175 C 
ATOM    256  OD1 ASP d   1      35.014   6.222  -6.470  0.00  0.00    -0.648 OA
ATOM    257  OD2 ASP d   1      33.441   5.964  -4.943  0.00  0.00    -0.648 OA
ENDBRANCH 252 255
ENDBRANCH  26 252
BRANCH  62 258
ATOM    258  CB  VAL d   1      39.648   2.372  -3.420  0.00  0.00    -0.033 C 
ATOM    259  H54 VAL d   1      40.348   3.153  -3.751  0.00  0.00     0.042 H 
BRANCH 258 260
ATOM    260  CG1 VAL d   1      38.524   3.022  -2.629  0.00  0.00    -0.071 C 
ATOM    261  H55 VAL d   1      38.942   3.526  -1.745  0.00  0.00     0.028 H 
ATOM    262  H56 VAL d   1      37.808   2.251  -2.308  0.00  0.00     0.028 H 
ATOM    263  H57 VAL d   1      38.009   3.759  -3.262  0.00  0.00     0.028 H 
ENDBRANCH 258 260
BRANCH 258 264
ATOM    264  CG2 VAL d   1      40.395   1.387  -2.558  0.00  0.00    -0.071 C 
ATOM    265  H58 VAL d   1      41.204   0.926  -3.144  0.00  0.00     0.028 H 
ATOM    266  H59 VAL d   1      39.703   0.606  -2.210  0.00  0.00     0.028 H 
ATOM    267  H60 VAL d   1      40.823   1.910  -1.690  0.00  0.00     0.028 H 
ENDBRANCH 258 264
ENDBRANCH  62 258
BRANCH  50 268
ATOM    268  CB  ARG d   1      40.749  -2.774  -5.895  0.00  0.00    -0.036 C 
ATOM    269  H41 ARG d   1      41.668  -3.256  -6.259  0.00  0.00     0.036 H 
ATOM    270  H42 ARG d   1      39.882  -3.186  -6.432  0.00  0.00     0.036 H 
BRANCH 268 271
ATOM    271  CG  ARG d   1      40.594  -3.127  -4.437  0.00  0.00    -0.048 C 
ATOM    272  H43 ARG d   1      39.592  -3.554  -4.283  0.00  0.00     0.035 H 
ATOM    273  H44 ARG d   1      40.697  -2.209  -3.840  0.00  0.00     0.035 H 
BRANCH 271 274
ATOM    274  CD  ARG d   1      41.638  -4.143  -3.958  0.00  0.00     0.009 C 
ATOM    275  H45 ARG d   1      42.563  -4.029  -4.542  0.00  0.00     0.064 H 
ATOM    276  H46 ARG d   1      41.249  -5.164  -4.084  0.00  0.00     0.064 H 
BRANCH 274 277
ATOM    277  NE  ARG d   1      41.911  -3.887  -2.540  0.00  0.00    -0.227 N 
ATOM    278  CZ  ARG d   1      41.762  -4.770  -1.550  0.00  0.00     0.665 C 
ATOM    279  NH1 ARG d   1      41.325  -5.999  -1.799  0.00  0.00    -0.235 N 
ATOM    280  NH2 ARG d   1      41.999  -4.403  -0.290  0.00  0.00    -0.235 N 
ATOM    281  H48 ARG d   1      41.214  -6.672  -1.027  0.00  0.00     0.174 HD
ATOM    282  H49 ARG d   1      41.097  -6.279  -2.764  0.00  0.00     0.174 HD
ATOM    283  H50 ARG d   1      42.338  -3.452  -0.086  0.00  0.00     0.174 HD
ATOM    284  H51 ARG d   1      41.843  -5.070   0.479  0.00  0.00     0.174 HD
ATOM    285  H47 ARG d   1      42.246  -2.946  -2.287  0.00  0.00     0.177 HD
ENDBRANCH 274 277
ENDBRANCH 271 274
ENDBRANCH 268 271
ENDBRANCH  50 268
TORSDOF 53
