REMARK  11 active torsions:
REMARK  status: ('A' for Active; 'I' for Inactive)
REMARK    1  A    between atoms: C1_1  and  S11_11 
REMARK    2  A    between atoms: C7_7  and  C23_23 
REMARK    3  A    between atoms: S11_11  and  N12_12 
REMARK    4  A    between atoms: N12_12  and  C13_13 
REMARK    5  A    between atoms: C13_13  and  C14_14 
REMARK    6  A    between atoms: C13_13  and  C16_16 
REMARK       I    between atoms: C14_14  and  N26_26 
REMARK    7  A    between atoms: C16_16  and  C17_17 
REMARK    8  A    between atoms: C17_17  and  C18_18 
REMARK    9  A    between atoms: C18_18  and  N19_19 
REMARK       I    between atoms: N19_19  and  C20_20 
REMARK       I    between atoms: C20_20  and  N21_21 
REMARK   10  A    between atoms: C27_27  and  C32_32 
REMARK   11  A    between atoms: C29_29  and  C35_35 
ROOT
ATOM      1  C13 MIT d   1      30.493  14.834  23.936  0.00  0.00     0.097 C 
ATOM      2  H11 MIT d   1      29.920  14.283  23.175  0.00  0.00     0.088 H 
ENDROOT
BRANCH   1   3
ATOM      3  N12 MIT d   1      29.732  14.820  25.183  0.00  0.00    -0.301 N 
ATOM      4  H10 MIT d   1      29.791  15.611  25.791  0.00  0.00     0.173 HD
BRANCH   3   5
ATOM      5  S11 MIT d   1      28.752  13.513  25.638  0.00  0.00     0.261 S 
ATOM      6  O24 MIT d   1      28.554  13.649  27.057  0.00  0.00    -0.200 OA
ATOM      7  O25 MIT d   1      27.669  13.399  24.680  0.00  0.00    -0.200 OA
BRANCH   5   8
ATOM      8  C1  MIT d   1      29.562  11.960  25.333  0.00  0.00     0.106 C 
ATOM      9  C2  MIT d   1      29.379  11.358  24.121  0.00  0.00    -0.058 C 
ATOM     10  C3  MIT d   1      30.109  10.204  23.800  0.00  0.00    -0.081 C 
ATOM     11  H1  MIT d   1      28.672  11.770  23.410  0.00  0.00     0.086 H 
ATOM     12  C4  MIT d   1      31.058   9.676  24.680  0.00  0.00    -0.075 C 
ATOM     13  H2  MIT d   1      29.934   9.712  22.850  0.00  0.00     0.083 H 
ATOM     14  C5  MIT d   1      31.311  10.357  25.865  0.00  0.00    -0.030 C 
ATOM     15  H3  MIT d   1      31.584   8.758  24.444  0.00  0.00     0.084 H 
ATOM     16  C6  MIT d   1      32.263   9.827  26.844  0.00  0.00    -0.034 C 
ATOM     17  C10 MIT d   1      30.596  11.546  26.218  0.00  0.00     0.058 C 
ATOM     18  C7  MIT d   1      32.864  10.956  27.600  0.00  0.00    -0.038 C 
ATOM     19  H4  MIT d   1      33.055   9.270  26.323  0.00  0.00     0.040 H 
ATOM     20  H5  MIT d   1      31.739   9.155  27.540  0.00  0.00     0.040 H 
ATOM     21  C8  MIT d   1      31.796  11.757  28.240  0.00  0.00    -0.004 C 
ATOM     22  H6  MIT d   1      33.433  11.593  26.907  0.00  0.00     0.042 H 
ATOM     23  N9  MIT d   1      30.826  12.247  27.300  0.00  0.00    -0.388 N 
ATOM     24  H7  MIT d   1      32.258  12.616  28.748  0.00  0.00     0.064 H 
ATOM     25  H8  MIT d   1      31.281  11.127  28.980  0.00  0.00     0.064 H 
ATOM     26  H9  MIT d   1      30.323  13.129  27.473  0.00  0.00     0.159 HD
BRANCH  18  27
ATOM     27  C23 MIT d   1      33.794  10.424  28.673  0.00  0.00    -0.071 C 
ATOM     28  H23 MIT d   1      34.591   9.827  28.205  0.00  0.00     0.028 H 
ATOM     29  H24 MIT d   1      33.225   9.792  29.371  0.00  0.00     0.028 H 
ATOM     30  H25 MIT d   1      34.241  11.266  29.221  0.00  0.00     0.028 H 
ENDBRANCH  18  27
ENDBRANCH   5   8
ENDBRANCH   3   5
ENDBRANCH   1   3
BRANCH   1  31
ATOM     31  C14 MIT d   1      31.834  14.152  24.121  0.00  0.00     0.244 C 
ATOM     32  O15 MIT d   1      32.520  14.296  25.111  0.00  0.00    -0.271 OA
ATOM     33  N26 MIT d   1      32.337  13.531  23.009  0.00  0.00    -0.336 N 
ATOM     34  C27 MIT d   1      31.632  13.594  21.735  0.00  0.00     0.099 C 
ATOM     35  C31 MIT d   1      33.628  12.930  23.079  0.00  0.00    -0.001 C 
ATOM     36  C28 MIT d   1      31.563  12.208  21.091  0.00  0.00    -0.033 C 
ATOM     37  H26 MIT d   1      30.598  13.906  21.944  0.00  0.00     0.089 H 
ATOM     38  C29 MIT d   1      32.931  11.624  21.031  0.00  0.00    -0.054 C 
ATOM     39  H27 MIT d   1      31.156  12.296  20.073  0.00  0.00     0.037 H 
ATOM     40  H28 MIT d   1      30.911  11.556  21.691  0.00  0.00     0.037 H 
ATOM     41  C30 MIT d   1      33.571  11.597  22.409  0.00  0.00    -0.047 C 
ATOM     42  H29 MIT d   1      33.559  12.226  20.358  0.00  0.00     0.039 H 
ATOM     43  H30 MIT d   1      34.598  11.218  22.306  0.00  0.00     0.035 H 
ATOM     44  H31 MIT d   1      32.990  10.914  23.047  0.00  0.00     0.035 H 
ATOM     45  H32 MIT d   1      33.921  12.803  24.132  0.00  0.00     0.064 H 
ATOM     46  H33 MIT d   1      34.363  13.570  22.569  0.00  0.00     0.064 H 
BRANCH  34  47
ATOM     47  C32 MIT d   1      32.242  14.652  20.817  0.00  0.00     0.197 C 
ATOM     48  O33 MIT d   1      31.878  14.577  19.649  0.00  0.00    -0.646 OA
ATOM     49  O34 MIT d   1      32.518  15.723  21.305  0.00  0.00    -0.646 OA
ENDBRANCH  34  47
BRANCH  38  50
ATOM     50  C35 MIT d   1      32.800  10.219  20.483  0.00  0.00    -0.073 C 
ATOM     51  H34 MIT d   1      32.336  10.256  19.486  0.00  0.00     0.028 H 
ATOM     52  H35 MIT d   1      32.172   9.619  21.158  0.00  0.00     0.028 H 
ATOM     53  H36 MIT d   1      33.797   9.761  20.406  0.00  0.00     0.028 H 
ENDBRANCH  38  50
ENDBRANCH   1  31
BRANCH   1  54
ATOM     54  C16 MIT d   1      30.709  16.241  23.446  0.00  0.00    -0.036 C 
ATOM     55  H12 MIT d   1      29.828  16.564  22.872  0.00  0.00     0.036 H 
ATOM     56  H13 MIT d   1      31.598  16.266  22.798  0.00  0.00     0.036 H 
BRANCH  54  57
ATOM     57  C17 MIT d   1      30.913  17.170  24.596  0.00  0.00    -0.048 C 
ATOM     58  H14 MIT d   1      31.688  16.774  25.269  0.00  0.00     0.035 H 
ATOM     59  H15 MIT d   1      29.973  17.295  25.153  0.00  0.00     0.035 H 
BRANCH  57  60
ATOM     60  C18 MIT d   1      31.361  18.514  24.009  0.00  0.00     0.009 C 
ATOM     61  H16 MIT d   1      30.583  18.886  23.326  0.00  0.00     0.064 H 
ATOM     62  H17 MIT d   1      32.299  18.369  23.453  0.00  0.00     0.064 H 
BRANCH  60  63
ATOM     63  N19 MIT d   1      31.580  19.501  25.067  0.00  0.00    -0.227 N 
ATOM     64  C20 MIT d   1      32.838  19.878  25.359  0.00  0.00     0.665 C 
ATOM     65  N21 MIT d   1      33.869  19.302  24.687  0.00  0.00    -0.235 N 
ATOM     66  N22 MIT d   1      33.048  20.701  26.406  0.00  0.00    -0.235 N 
ATOM     67  H19 MIT d   1      34.839  19.578  24.897  0.00  0.00     0.174 HD
ATOM     68  H20 MIT d   1      33.681  18.589  23.968  0.00  0.00     0.174 HD
ATOM     69  H21 MIT d   1      32.248  21.124  26.897  0.00  0.00     0.174 HD
ATOM     70  H22 MIT d   1      34.009  20.907  26.715  0.00  0.00     0.174 HD
ATOM     71  H18 MIT d   1      30.782  19.901  25.581  0.00  0.00     0.177 HD
ENDBRANCH  60  63
ENDBRANCH  57  60
ENDBRANCH  54  57
ENDBRANCH   1  54
TORSDOF 11
