REMARK  10 active torsions:
REMARK  status: ('A' for Active; 'I' for Inactive)
REMARK       I    between atoms: C9_9  and  N1_1 
REMARK    1  A    between atoms: N7_7  and  C8_8 
REMARK       I    between atoms: C20_20  and  N7_7 
REMARK    2  A    between atoms: C8_8  and  C9_9 
REMARK    3  A    between atoms: C8_8  and  C11_11 
REMARK    4  A    between atoms: C11_11  and  C12_12 
REMARK    5  A    between atoms: C17_17  and  C35_35 
REMARK    6  A    between atoms: C19_19  and  N18_18 
REMARK    7  A    between atoms: N18_18  and  S22_22 
REMARK    8  A    between atoms: C19_19  and  C20_20 
REMARK    9  A    between atoms: S22_22  and  C26_26 
REMARK   10  A    between atoms: C35_35  and  N36_36 
ROOT
ATOM      1  C8  MID d   1      32.793  14.539  22.486  0.00  0.00     0.093 C 
ATOM      2  H12 MID d   1      33.614  14.531  23.218  0.00  0.00     0.088 H 
ENDROOT
BRANCH   1   3
ATOM      3  N7  MID d   1      31.506  14.248  23.138  0.00  0.00    -0.346 N 
ATOM      4  C20 MID d   1      31.408  14.033  24.473  0.00  0.00     0.236 C 
ATOM      5  O21 MID d   1      32.378  14.117  25.235  0.00  0.00    -0.272 OA
ATOM      6  H11 MID d   1      30.678  14.208  22.579  0.00  0.00     0.163 HD
BRANCH   4   7
ATOM      7  C19 MID d   1      30.046  13.740  24.883  0.00  0.00     0.076 C 
ATOM      8  H20 MID d   1      29.367  14.508  24.484  0.00  0.00     0.079 H 
ATOM      9  H21 MID d   1      29.749  12.753  24.500  0.00  0.00     0.079 H 
BRANCH   7  10
ATOM     10  N18 MID d   1      29.985  13.739  26.306  0.00  0.00    -0.307 N 
ATOM     11  H19 MID d   1      30.328  14.516  26.833  0.00  0.00     0.172 HD
BRANCH  10  12
ATOM     12  S22 MID d   1      29.341  12.438  27.058  0.00  0.00     0.259 S 
ATOM     13  O23 MID d   1      28.363  11.839  26.182  0.00  0.00    -0.201 OA
ATOM     14  O24 MID d   1      29.062  12.809  28.435  0.00  0.00    -0.201 OA
BRANCH  12  15
ATOM     15  C26 MID d   1      30.640  11.263  27.135  0.00  0.00     0.080 A 
ATOM     16  C25 MID d   1      30.507  10.148  26.315  0.00  0.00    -0.059 A 
ATOM     17  C30 MID d   1      31.464   9.171  26.300  0.00  0.00    -0.071 A 
ATOM     18  H22 MID d   1      29.634  10.052  25.680  0.00  0.00     0.085 H 
ATOM     19  C29 MID d   1      32.582   9.285  27.133  0.00  0.00    -0.026 A 
ATOM     20  H24 MID d   1      31.357   8.313  25.646  0.00  0.00     0.084 H 
ATOM     21  C28 MID d   1      32.741  10.453  27.920  0.00  0.00    -0.025 A 
ATOM     22  C34 MID d   1      33.568   8.267  27.118  0.00  0.00    -0.072 A 
ATOM     23  C27 MID d   1      31.727  11.439  27.937  0.00  0.00    -0.050 A 
ATOM     24  C31 MID d   1      33.893  10.593  28.702  0.00  0.00    -0.072 A 
ATOM     25  H23 MID d   1      31.813  12.313  28.573  0.00  0.00     0.087 H 
ATOM     26  C32 MID d   1      34.852   9.585  28.681  0.00  0.00    -0.082 A 
ATOM     27  H25 MID d   1      34.036  11.475  29.316  0.00  0.00     0.084 H 
ATOM     28  C33 MID d   1      34.690   8.415  27.878  0.00  0.00    -0.082 A 
ATOM     29  H26 MID d   1      35.743   9.690  29.289  0.00  0.00     0.083 H 
ATOM     30  H27 MID d   1      35.456   7.648  27.873  0.00  0.00     0.083 H 
ATOM     31  H28 MID d   1      33.431   7.381  26.509  0.00  0.00     0.084 H 
ENDBRANCH  12  15
ENDBRANCH  10  12
ENDBRANCH   7  10
ENDBRANCH   4   7
ENDBRANCH   1   3
BRANCH   1  32
ATOM     32  C9  MID d   1      32.978  13.472  21.462  0.00  0.00     0.242 C 
ATOM     33  N1  MID d   1      33.473  12.286  22.011  0.00  0.00    -0.350 N 
ATOM     34  C2  MID d   1      33.690  11.116  21.167  0.00  0.00    -0.002 C 
ATOM     35  C6  MID d   1      33.756  12.198  23.456  0.00  0.00    -0.002 C 
ATOM     36  C3  MID d   1      32.940   9.920  21.771  0.00  0.00    -0.050 C 
ATOM     37  H1  MID d   1      34.766  10.891  21.118  0.00  0.00     0.064 H 
ATOM     38  H2  MID d   1      33.311  11.316  20.154  0.00  0.00     0.064 H 
ATOM     39  C4  MID d   1      33.331   9.715  23.265  0.00  0.00    -0.062 C 
ATOM     40  H3  MID d   1      33.194   9.012  21.204  0.00  0.00     0.035 H 
ATOM     41  H4  MID d   1      31.857  10.103  21.704  0.00  0.00     0.035 H 
ATOM     42  C5  MID d   1      33.051  10.991  24.086  0.00  0.00    -0.050 C 
ATOM     43  H5  MID d   1      34.403   9.474  23.327  0.00  0.00     0.033 H 
ATOM     44  H6  MID d   1      32.743   8.883  23.680  0.00  0.00     0.033 H 
ATOM     45  H7  MID d   1      33.421  10.850  25.112  0.00  0.00     0.035 H 
ATOM     46  H8  MID d   1      31.967  11.176  24.110  0.00  0.00     0.035 H 
ATOM     47  H9  MID d   1      33.403  13.117  23.948  0.00  0.00     0.064 H 
ATOM     48  H10 MID d   1      34.841  12.097  23.604  0.00  0.00     0.064 H 
ATOM     49  O10 MID d   1      32.744  13.595  20.255  0.00  0.00    -0.271 OA
ENDBRANCH   1  32
BRANCH   1  50
ATOM     50  C11 MID d   1      32.722  15.891  21.790  0.00  0.00    -0.014 C 
ATOM     51  H13 MID d   1      31.817  15.939  21.167  0.00  0.00     0.043 H 
ATOM     52  H14 MID d   1      33.611  16.027  21.156  0.00  0.00     0.043 H 
BRANCH  50  53
ATOM     53  C12 MID d   1      32.676  16.947  22.807  0.00  0.00    -0.056 A 
ATOM     54  C13 MID d   1      33.838  17.468  23.309  0.00  0.00    -0.076 A 
ATOM     55  C15 MID d   1      33.780  18.485  24.280  0.00  0.00    -0.069 A 
ATOM     56  H15 MID d   1      34.796  17.100  22.961  0.00  0.00     0.084 H 
ATOM     57  C17 MID d   1      32.545  18.928  24.748  0.00  0.00     0.007 A 
ATOM     58  H17 MID d   1      34.695  18.923  24.663  0.00  0.00     0.085 H 
ATOM     59  C16 MID d   1      31.382  18.362  24.260  0.00  0.00    -0.069 A 
ATOM     60  C14 MID d   1      31.463  17.355  23.295  0.00  0.00    -0.076 A 
ATOM     61  H18 MID d   1      30.417  18.696  24.622  0.00  0.00     0.085 H 
ATOM     62  H16 MID d   1      30.555  16.891  22.928  0.00  0.00     0.084 H 
BRANCH  57  63
ATOM     63  C35 MID d   1      32.475  19.965  25.786  0.00  0.00     0.102 C 
ATOM     64  N37 MID d   1      33.531  20.749  26.044  0.00  0.00    -0.385 N 
ATOM     65  H31 MID d   1      34.471  20.466  25.732  0.00  0.00     0.157 HD
ATOM     66  H32 MID d   1      33.403  21.635  26.554  0.00  0.00     0.157 HD
BRANCH  63  67
ATOM     67  N36 MID d   1      31.296  20.429  26.237  0.00  0.00    -0.385 N 
ATOM     68  H29 MID d   1      31.274  21.157  26.966  0.00  0.00     0.157 HD
ATOM     69  H30 MID d   1      30.415  20.057  25.854  0.00  0.00     0.157 HD
ENDBRANCH  63  67
ENDBRANCH  57  63
ENDBRANCH  50  53
ENDBRANCH   1  50
TORSDOF 10
