REMARK  4 active torsions:
REMARK  status: ('A' for Active; 'I' for Inactive)
REMARK    1  A    between atoms: C3_3  and  O18_20 
REMARK    2  A    between atoms: C6_8  and  O17_19 
REMARK    3  A    between atoms: N10_12  and  C19_21 
REMARK    4  A    between atoms: O17_19  and  C16_18 
ROOT
ATOM      1  C1  GNT d   1       2.470  67.534  63.201  0.00  0.00    -0.089 C 
ATOM      2  C2  GNT d   1       2.598  67.907  61.941  0.00  0.00    -0.078 C 
ATOM      3  C3  GNT d   1       3.918  68.153  61.266  0.00  0.00     0.054 C 
ATOM      4  C4  GNT d   1       5.161  68.164  62.244  0.00  0.00    -0.012 C 
ATOM      5  C41 GNT d   1       5.012  67.152  63.403  0.00  0.00     0.062 C 
ATOM      6  C42 GNT d   1       3.648  67.206  64.164  0.00  0.00     0.036 C 
ATOM      7  O5  GNT d   1       5.171  65.776  62.885  0.00  0.00    -0.341 OA
ATOM      8  C6  GNT d   1       4.540  63.558  63.792  0.00  0.00     0.102 A 
ATOM      9  C7  GNT d   1       3.682  62.914  64.714  0.00  0.00    -0.047 A 
ATOM     10  C8  GNT d   1       2.801  63.643  65.507  0.00  0.00    -0.072 A 
ATOM     11  C9  GNT d   1       1.746  65.788  66.326  0.00  0.00     0.107 C 
ATOM     12  N10 GNT d   1       2.382  66.888  67.106  0.00  0.00    -0.071 N 
ATOM     13  C11 GNT d   1       2.516  68.160  66.343  0.00  0.00     0.085 C 
ATOM     14  C12 GNT d   1       3.703  68.150  65.376  0.00  0.00    -0.026 C 
ATOM     15  C13 GNT d   1       4.444  64.975  63.733  0.00  0.00     0.110 A 
ATOM     16  C14 GNT d   1       3.544  65.710  64.547  0.00  0.00     0.001 A 
ATOM     17  C15 GNT d   1       2.702  65.054  65.451  0.00  0.00    -0.022 A 
ATOM     18  H1  GNT d   1       1.460  67.449  63.598  0.00  0.00     0.078 H 
ATOM     19  H2  GNT d   1       1.691  68.045  61.355  0.00  0.00     0.080 H 
ATOM     20  H3  GNT d   1       3.871  69.125  60.754  0.00  0.00     0.089 H 
ATOM     21  H4  GNT d   1       5.267  69.173  62.669  0.00  0.00     0.041 H 
ATOM     22  H5  GNT d   1       6.064  67.911  61.669  0.00  0.00     0.041 H 
ATOM     23  H6  GNT d   1       5.813  67.359  64.128  0.00  0.00     0.086 H 
ATOM     24  H7  GNT d   1       3.711  61.834  64.804  0.00  0.00     0.087 H 
ATOM     25  H8  GNT d   1       2.162  63.106  66.199  0.00  0.00     0.084 H 
ATOM     26  H9  GNT d   1       0.956  66.220  65.694  0.00  0.00     0.083 H 
ATOM     27  H10 GNT d   1       1.300  65.072  67.032  0.00  0.00     0.083 H 
ATOM     28  H11 GNT d   1       3.317  66.587  67.333  0.00  0.00     0.279 HD
ATOM     29  H12 GNT d   1       2.652  68.986  67.057  0.00  0.00     0.076 H 
ATOM     30  H13 GNT d   1       1.594  68.322  65.766  0.00  0.00     0.076 H 
ATOM     31  H14 GNT d   1       3.815  69.173  64.987  0.00  0.00     0.037 H 
ATOM     32  H15 GNT d   1       4.596  67.880  65.959  0.00  0.00     0.037 H 
ENDROOT
BRANCH   8  33
ATOM     33  O17 GNT d   1       5.607  62.956  63.147  0.00  0.00    -0.353 OA
BRANCH  33  34
ATOM     34  C16 GNT d   1       5.406  61.807  62.379  0.00  0.00     0.010 C 
ATOM     35  H16 GNT d   1       6.365  61.480  61.950  0.00  0.00     0.066 H 
ATOM     36  H17 GNT d   1       4.698  62.028  61.567  0.00  0.00     0.066 H 
ATOM     37  H18 GNT d   1       4.997  61.008  63.015  0.00  0.00     0.066 H 
ENDBRANCH  33  34
ENDBRANCH   8  33
BRANCH  12  38
ATOM     38  C19 GNT d   1       1.647  67.090  68.404  0.00  0.00     0.067 C 
ATOM     39  H20 GNT d   1       1.570  66.130  68.935  0.00  0.00     0.068 H 
ATOM     40  H21 GNT d   1       0.638  67.477  68.198  0.00  0.00     0.068 H 
ATOM     41  H22 GNT d   1       2.196  67.811  69.028  0.00  0.00     0.068 H 
ENDBRANCH  12  38
BRANCH   3  42
ATOM     42  O18 GNT d   1       4.113  67.129  60.323  0.00  0.00    -0.392 OA
ATOM     43  H19 GNT d   1       4.912  67.296  59.836  0.00  0.00     0.210 HD
ENDBRANCH   3  42
TORSDOF 4
