REMARK WARNING: 32 MAX_TORS EXCEEDED!!!
REMARK  58 active torsions:
REMARK  status: ('A' for Active; 'I' for Inactive)
REMARK    1  A    between atoms: CA_2  and  N_1 
REMARK    2  A    between atoms: C_3  and  CA_2 
REMARK       I    between atoms: N_5  and  C_3 
REMARK    3  A    between atoms: CA_6  and  N_5 
REMARK    4  A    between atoms: CA_6  and  CB_9 
REMARK    5  A    between atoms: C_7  and  CA_6 
REMARK       I    between atoms: N_11  and  C_7 
REMARK    6  A    between atoms: CB_9  and  OG_10 
REMARK    7  A    between atoms: CA_12  and  N_11 
REMARK    8  A    between atoms: CA_12  and  CB_15 
REMARK    9  A    between atoms: C_13  and  CA_12 
REMARK       I    between atoms: N_18  and  C_13 
REMARK   10  A    between atoms: CB_15  and  CG2_17 
REMARK   11  A    between atoms: CB_15  and  CG1_16 
REMARK   12  A    between atoms: CA_19  and  N_18 
REMARK   13  A    between atoms: CA_19  and  CB_22 
REMARK   14  A    between atoms: C_20  and  CA_19 
REMARK       I    between atoms: N_25  and  C_20 
REMARK   15  A    between atoms: CB_22  and  CG2_24 
REMARK   16  A    between atoms: CB_22  and  CG1_23 
REMARK   17  A    between atoms: CA_26  and  N_25 
REMARK   18  A    between atoms: CA_26  and  CB_29 
REMARK   19  A    between atoms: C_27  and  CA_26 
REMARK       I    between atoms: N_33  and  C_27 
REMARK   20  A    between atoms: CB_29  and  CG2_31 
REMARK   21  A    between atoms: CB_29  and  CG1_30 
REMARK   22  A    between atoms: CG1_30  and  CD1_32 
REMARK   23  A    between atoms: CA_34  and  N_33 
REMARK   24  A    between atoms: CA_34  and  CB_37 
REMARK   25  A    between atoms: C_35  and  CA_34 
REMARK       I    between atoms: N_40  and  C_35 
REMARK   26  A    between atoms: CB_37  and  CG2_39 
REMARK   27  A    between atoms: CB_37  and  CG1_38 
REMARK   28  A    between atoms: CA_41  and  N_40 
REMARK   29  A    between atoms: C_42  and  CA_41 
REMARK       I    between atoms: N_44  and  C_42 
REMARK   30  A    between atoms: CA_45  and  N_44 
REMARK   31  A    between atoms: CA_45  and  CB_48 
REMARK   32  A    between atoms: C_46  and  CA_45 
REMARK       I    between atoms: N_55  and  C_46 
REMARK   33  A    between atoms: CB_48  and  CG_49 
REMARK   34  A    between atoms: CG_49  and  CD_50 
REMARK   35  A    between atoms: CD_50  and  NE_51 
REMARK       I    between atoms: NE_51  and  CZ_52 
REMARK       I    between atoms: CZ_52  and  NH1_53 
REMARK   36  A    between atoms: CA_56  and  N_55 
REMARK   37  A    between atoms: CA_56  and  CB_59 
REMARK   38  A    between atoms: C_57  and  CA_56 
REMARK       I    between atoms: N_63  and  C_57 
REMARK   39  A    between atoms: CB_59  and  CG2_61 
REMARK   40  A    between atoms: CB_59  and  CG1_60 
REMARK   41  A    between atoms: CG1_60  and  CD1_62 
REMARK   42  A    between atoms: CA_64  and  N_63 
REMARK   43  A    between atoms: CA_64  and  CB_67 
REMARK   44  A    between atoms: C_65  and  CA_64 
REMARK       I    between atoms: N_71  and  C_65 
REMARK   45  A    between atoms: CB_67  and  CG2_69 
REMARK   46  A    between atoms: CB_67  and  CG1_68 
REMARK   47  A    between atoms: CG1_68  and  CD1_70 
REMARK   48  A    between atoms: CA_72  and  N_71 
REMARK   49  A    between atoms: CA_72  and  CB_75 
REMARK   50  A    between atoms: C_73  and  CA_72 
REMARK       I    between atoms: C_73  and  N_79 
REMARK   51  A    between atoms: CB_75  and  CG_76 
REMARK   52  A    between atoms: CG_76  and  CD1_77 
REMARK   53  A    between atoms: CG_76  and  CD2_78 
REMARK   54  A    between atoms: N_79  and  CA_80 
REMARK   55  A    between atoms: CA_80  and  CB_83 
REMARK   56  A    between atoms: CA_80  and  C_81 
REMARK   57  A    between atoms: C_81  and  O1_85 
REMARK   58  A    between atoms: CB_83  and  OG_84 
ROOT
ATOM      1  C   GLY d   1       9.123  21.968   6.632  0.00  0.00     0.236 C 
ATOM      2  O   GLY d   1       8.136  22.363   7.207  0.00  0.00    -0.272 OA
ATOM      3  N   ARG d   1      10.228  22.683   6.506  0.00  0.00    -0.346 N 
ATOM      4  H52 ARG d   1      10.934  22.359   5.876  0.00  0.00     0.163 HD
ENDROOT
BRANCH   1   5
ATOM      5  CA  GLY d   1       8.998  20.624   5.928  0.00  0.00     0.069 C 
ATOM      6  H50 GLY d   1       9.153  20.761   4.848  0.00  0.00     0.078 H 
ATOM      7  H51 GLY d   1       9.757  19.932   6.322  0.00  0.00     0.078 H 
BRANCH   5   8
ATOM      8  N   GLY d   1       7.670  20.072   6.162  0.00  0.00    -0.351 N 
ATOM      9  C   VAL d   1       7.246  19.007   5.498  0.00  0.00     0.241 C 
ATOM     10  O   VAL d   1       7.930  18.490   4.623  0.00  0.00    -0.271 OA
ATOM     11  H49 GLY d   1       7.069  20.504   6.835  0.00  0.00     0.163 HD
BRANCH   9  12
ATOM     12  CA  VAL d   1       5.881  18.420   5.815  0.00  0.00     0.092 C 
ATOM     13  H41 VAL d   1       6.022  17.397   6.194  0.00  0.00     0.088 H 
BRANCH  12  14
ATOM     14  N   VAL d   1       5.150  19.150   6.841  0.00  0.00    -0.346 N 
ATOM     15  C   ILE d   1       5.196  18.821   8.124  0.00  0.00     0.241 C 
ATOM     16  O   ILE d   1       5.840  17.857   8.528  0.00  0.00    -0.271 OA
ATOM     17  H40 VAL d   1       4.590  19.932   6.566  0.00  0.00     0.163 HD
BRANCH  15  18
ATOM     18  CA  ILE d   1       4.453  19.654   9.148  0.00  0.00     0.092 C 
ATOM     19  H30 ILE d   1       4.230  20.636   8.705  0.00  0.00     0.088 H 
BRANCH  18  20
ATOM     20  N   ILE d   1       3.195  19.008   9.507  0.00  0.00    -0.346 N 
ATOM     21  C   VAL d   1       2.204  18.880   8.636  0.00  0.00     0.241 C 
ATOM     22  O   VAL d   1       2.229  19.506   7.573  0.00  0.00    -0.271 OA
ATOM     23  H29 ILE d   1       3.077  18.653  10.434  0.00  0.00     0.163 HD
BRANCH  21  24
ATOM     24  CA  VAL d   1       1.044  18.004   9.085  0.00  0.00     0.092 C 
ATOM     25  H21 VAL d   1       1.177  17.770  10.152  0.00  0.00     0.088 H 
BRANCH  24  26
ATOM     26  N   VAL d   1      -0.273  18.651   8.930  0.00  0.00    -0.346 N 
ATOM     27  C   VAL d   1      -1.094  18.728   9.973  0.00  0.00     0.241 C 
ATOM     28  O   VAL d   1      -0.740  18.345  11.083  0.00  0.00    -0.271 OA
ATOM     29  H20 VAL d   1      -0.546  19.029   8.046  0.00  0.00     0.163 HD
BRANCH  27  30
ATOM     30  CA  VAL d   1      -2.512  19.287   9.787  0.00  0.00     0.092 C 
ATOM     31  H12 VAL d   1      -2.867  19.066   8.770  0.00  0.00     0.088 H 
BRANCH  30  32
ATOM     32  N   VAL d   1      -3.374  18.569  10.737  0.00  0.00    -0.346 N 
ATOM     33  C   SER d   1      -3.686  17.289  10.515  0.00  0.00     0.243 C 
ATOM     34  O   SER d   1      -3.369  16.671   9.470  0.00  0.00    -0.271 OA
ATOM     35  H11 VAL d   1      -3.726  19.038  11.547  0.00  0.00     0.163 HD
BRANCH  33  36
ATOM     36  CA  SER d   1      -4.607  16.572  11.524  0.00  0.00     0.109 C 
ATOM     37  H7  SER d   1      -5.168  17.311  12.115  0.00  0.00     0.090 H 
BRANCH  36  38
ATOM     38  N   SER d   1      -5.535  15.640  10.898  0.00  0.00    -0.344 N 
ATOM     39  C   GLY d   1      -6.772  15.921  10.554  0.00  0.00     0.243 C 
ATOM     40  O   GLY d   1      -7.206  17.070  10.669  0.00  0.00    -0.272 OA
ATOM     41  H6  SER d   1      -5.205  14.714  10.716  0.00  0.00     0.163 HD
BRANCH  39  42
ATOM     42  CA  GLY d   1      -7.693  14.760  10.163  0.00  0.00     0.152 C 
ATOM     43  H4  GLY d   1      -8.127  14.958   9.172  0.00  0.00     0.090 H 
ATOM     44  H5  GLY d   1      -7.109  13.829  10.128  0.00  0.00     0.090 H 
BRANCH  42  45
ATOM     45  N   GLY d   1      -8.803  14.615  11.173  0.00  0.00    -0.071 N 
ATOM     46  H1  GLY d   1      -9.402  13.849  10.906  0.00  0.00     0.274 HD
ATOM     47  H2  GLY d   1      -9.341  15.467  11.206  0.00  0.00     0.274 HD
ATOM     48  H3  GLY d   1      -8.408  14.432  12.082  0.00  0.00     0.274 HD
ENDBRANCH  42  45
ENDBRANCH  39  42
ENDBRANCH  36  38
BRANCH  36  49
ATOM     49  CB  SER d   1      -3.670  15.756  12.404  0.00  0.00     0.044 C 
ATOM     50  H8  SER d   1      -2.647  16.128  12.243  0.00  0.00     0.077 H 
ATOM     51  H9  SER d   1      -3.733  14.707  12.081  0.00  0.00     0.077 H 
BRANCH  49  52
ATOM     52  OG  SER d   1      -3.930  15.797  13.782  0.00  0.00    -0.398 OA
ATOM     53  H10 SER d   1      -3.867  16.694  14.088  0.00  0.00     0.209 HD
ENDBRANCH  49  52
ENDBRANCH  36  49
ENDBRANCH  33  36
ENDBRANCH  30  32
BRANCH  30  54
ATOM     54  CB  VAL d   1      -2.455  20.806   9.941  0.00  0.00    -0.033 C 
ATOM     55  H13 VAL d   1      -2.069  21.025  10.948  0.00  0.00     0.042 H 
BRANCH  54  56
ATOM     56  CG2 VAL d   1      -3.832  21.460   9.803  0.00  0.00    -0.071 C 
ATOM     57  H17 VAL d   1      -4.523  21.017  10.535  0.00  0.00     0.028 H 
ATOM     58  H18 VAL d   1      -4.217  21.292   8.786  0.00  0.00     0.028 H 
ATOM     59  H19 VAL d   1      -3.745  22.541   9.989  0.00  0.00     0.028 H 
ENDBRANCH  54  56
BRANCH  54  60
ATOM     60  CG1 VAL d   1      -1.514  21.439   8.914  0.00  0.00    -0.071 C 
ATOM     61  H14 VAL d   1      -1.498  22.530   9.055  0.00  0.00     0.028 H 
ATOM     62  H15 VAL d   1      -1.868  21.205   7.899  0.00  0.00     0.028 H 
ATOM     63  H16 VAL d   1      -0.499  21.037   9.050  0.00  0.00     0.028 H 
ENDBRANCH  54  60
ENDBRANCH  30  54
ENDBRANCH  27  30
ENDBRANCH  24  26
BRANCH  24  64
ATOM     64  CB  VAL d   1       1.124  16.695   8.273  0.00  0.00    -0.033 C 
ATOM     65  H22 VAL d   1       1.216  16.957   7.209  0.00  0.00     0.042 H 
BRANCH  64  66
ATOM     66  CG2 VAL d   1      -0.151  15.859   8.441  0.00  0.00    -0.071 C 
ATOM     67  H26 VAL d   1      -1.024  16.457   8.141  0.00  0.00     0.028 H 
ATOM     68  H27 VAL d   1      -0.257  15.559   9.494  0.00  0.00     0.028 H 
ATOM     69  H28 VAL d   1      -0.087  14.961   7.808  0.00  0.00     0.028 H 
ENDBRANCH  64  66
BRANCH  64  70
ATOM     70  CG1 VAL d   1       2.367  15.913   8.675  0.00  0.00    -0.071 C 
ATOM     71  H23 VAL d   1       2.418  14.981   8.093  0.00  0.00     0.028 H 
ATOM     72  H24 VAL d   1       2.318  15.673   9.747  0.00  0.00     0.028 H 
ATOM     73  H25 VAL d   1       3.263  16.520   8.475  0.00  0.00     0.028 H 
ENDBRANCH  64  70
ENDBRANCH  24  64
ENDBRANCH  21  24
ENDBRANCH  18  20
BRANCH  18  74
ATOM     74  CB  ILE d   1       5.321  19.870  10.410  0.00  0.00    -0.030 C 
ATOM     75  H31 ILE d   1       5.415  18.915  10.948  0.00  0.00     0.043 H 
BRANCH  74  76
ATOM     76  CG2 ILE d   1       6.694  20.356  10.063  0.00  0.00    -0.071 C 
ATOM     77  H34 ILE d   1       7.194  19.615   9.422  0.00  0.00     0.028 H 
ATOM     78  H35 ILE d   1       7.277  20.497  10.985  0.00  0.00     0.028 H 
ATOM     79  H36 ILE d   1       6.619  21.314   9.527  0.00  0.00     0.028 H 
ENDBRANCH  74  76
BRANCH  74  80
ATOM     80  CG1 ILE d   1       4.592  20.897  11.314  0.00  0.00    -0.063 C 
ATOM     81  H32 ILE d   1       3.626  20.476  11.630  0.00  0.00     0.033 H 
ATOM     82  H33 ILE d   1       4.420  21.821  10.742  0.00  0.00     0.033 H 
BRANCH  80  83
ATOM     83  CD1 ILE d   1       5.428  21.225  12.558  0.00  0.00    -0.076 C 
ATOM     84  H37 ILE d   1       4.889  21.954  13.180  0.00  0.00     0.027 H 
ATOM     85  H38 ILE d   1       6.394  21.651  12.249  0.00  0.00     0.027 H 
ATOM     86  H39 ILE d   1       5.601  20.306  13.137  0.00  0.00     0.027 H 
ENDBRANCH  80  83
ENDBRANCH  74  80
ENDBRANCH  18  74
ENDBRANCH  15  18
ENDBRANCH  12  14
BRANCH  12  87
ATOM     87  CB  VAL d   1       5.145  18.341   4.450  0.00  0.00    -0.033 C 
ATOM     88  H42 VAL d   1       5.681  17.624   3.810  0.00  0.00     0.042 H 
BRANCH  87  89
ATOM     89  CG2 VAL d   1       5.074  19.649   3.719  0.00  0.00    -0.071 C 
ATOM     90  H46 VAL d   1       6.092  20.021   3.533  0.00  0.00     0.028 H 
ATOM     91  H47 VAL d   1       4.522  20.380   4.328  0.00  0.00     0.028 H 
ATOM     92  H48 VAL d   1       4.555  19.505   2.760  0.00  0.00     0.028 H 
ENDBRANCH  87  89
BRANCH  87  93
ATOM     93  CG1 VAL d   1       3.734  17.823   4.709  0.00  0.00    -0.071 C 
ATOM     94  H43 VAL d   1       3.187  17.756   3.757  0.00  0.00     0.028 H 
ATOM     95  H44 VAL d   1       3.209  18.513   5.386  0.00  0.00     0.028 H 
ATOM     96  H45 VAL d   1       3.788  16.826   5.171  0.00  0.00     0.028 H 
ENDBRANCH  87  93
ENDBRANCH  12  87
ENDBRANCH   9  12
ENDBRANCH   5   8
ENDBRANCH   1   5
BRANCH   3  97
ATOM     97  CA  ARG d   1      10.467  23.909   7.233  0.00  0.00     0.089 C 
ATOM     98  H53 ARG d   1       9.495  24.410   7.351  0.00  0.00     0.087 H 
BRANCH  97  99
ATOM     99  CB  ARG d   1      11.025  23.649   8.619  0.00  0.00    -0.036 C 
ATOM    100  H54 ARG d   1      10.519  22.760   9.024  0.00  0.00     0.036 H 
ATOM    101  H55 ARG d   1      10.790  24.522   9.246  0.00  0.00     0.036 H 
BRANCH  99 102
ATOM    102  CG  ARG d   1      12.537  23.406   8.700  0.00  0.00    -0.048 C 
ATOM    103  H56 ARG d   1      12.886  23.586   9.727  0.00  0.00     0.035 H 
ATOM    104  H57 ARG d   1      13.059  24.086   8.011  0.00  0.00     0.035 H 
BRANCH 102 105
ATOM    105  CD  ARG d   1      12.820  21.963   8.308  0.00  0.00     0.009 C 
ATOM    106  H58 ARG d   1      12.976  21.913   7.220  0.00  0.00     0.064 H 
ATOM    107  H59 ARG d   1      11.954  21.342   8.583  0.00  0.00     0.064 H 
BRANCH 105 108
ATOM    108  NE  ARG d   1      13.997  21.449   8.975  0.00  0.00    -0.227 N 
ATOM    109  CZ  ARG d   1      14.182  20.803  10.111  0.00  0.00     0.665 C 
ATOM    110  NH2 ARG d   1      15.465  20.514  10.346  0.00  0.00    -0.235 N 
ATOM    111  NH1 ARG d   1      13.216  20.452  10.963  0.00  0.00    -0.235 N 
ATOM    112  H63 ARG d   1      16.189  20.798   9.670  0.00  0.00     0.174 HD
ATOM    113  H64 ARG d   1      15.730  20.008  11.203  0.00  0.00     0.174 HD
ATOM    114  H61 ARG d   1      13.452  19.948  11.830  0.00  0.00     0.174 HD
ATOM    115  H62 ARG d   1      12.235  20.685  10.754  0.00  0.00     0.174 HD
ATOM    116  H60 ARG d   1      14.870  21.623   8.457  0.00  0.00     0.177 HD
ENDBRANCH 105 108
ENDBRANCH 102 105
ENDBRANCH  99 102
ENDBRANCH  97  99
BRANCH  97 117
ATOM    117  C   ARG d   1      11.399  24.872   6.484  0.00  0.00     0.241 C 
ATOM    118  O   ARG d   1      12.150  24.546   5.569  0.00  0.00    -0.271 OA
ATOM    119  N   ILE d   1      11.311  26.134   6.892  0.00  0.00    -0.346 N 
ATOM    120  H65 ILE d   1      10.693  26.342   7.650  0.00  0.00     0.163 HD
BRANCH 119 121
ATOM    121  CA  ILE d   1      12.061  27.228   6.299  0.00  0.00     0.092 C 
ATOM    122  H66 ILE d   1      12.752  26.783   5.568  0.00  0.00     0.088 H 
BRANCH 121 123
ATOM    123  CB  ILE d   1      11.227  28.281   5.547  0.00  0.00    -0.030 C 
ATOM    124  H67 ILE d   1      10.415  28.641   6.196  0.00  0.00     0.043 H 
BRANCH 123 125
ATOM    125  CG2 ILE d   1      12.135  29.447   5.168  0.00  0.00    -0.071 C 
ATOM    126  H70 ILE d   1      12.562  29.890   6.080  0.00  0.00     0.028 H 
ATOM    127  H71 ILE d   1      11.550  30.207   4.630  0.00  0.00     0.028 H 
ATOM    128  H72 ILE d   1      12.947  29.084   4.521  0.00  0.00     0.028 H 
ENDBRANCH 123 125
BRANCH 123 129
ATOM    129  CG1 ILE d   1      10.626  27.656   4.277  0.00  0.00    -0.063 C 
ATOM    130  H68 ILE d   1      10.419  26.593   4.468  0.00  0.00     0.033 H 
ATOM    131  H69 ILE d   1      11.354  27.747   3.458  0.00  0.00     0.033 H 
BRANCH 129 132
ATOM    132  CD1 ILE d   1       9.339  28.337   3.864  0.00  0.00    -0.076 C 
ATOM    133  H73 ILE d   1       8.947  27.859   2.954  0.00  0.00     0.027 H 
ATOM    134  H74 ILE d   1       9.535  29.401   3.663  0.00  0.00     0.027 H 
ATOM    135  H75 ILE d   1       8.600  28.247   4.674  0.00  0.00     0.027 H 
ENDBRANCH 129 132
ENDBRANCH 123 129
ENDBRANCH 121 123
BRANCH 121 136
ATOM    136  C   ILE d   1      12.888  27.926   7.377  0.00  0.00     0.241 C 
ATOM    137  O   ILE d   1      12.390  28.374   8.399  0.00  0.00    -0.271 OA
ATOM    138  N   ILE d   1      14.196  27.867   7.162  0.00  0.00    -0.346 N 
ATOM    139  H76 ILE d   1      14.528  27.411   6.336  0.00  0.00     0.163 HD
BRANCH 138 140
ATOM    140  CA  ILE d   1      15.167  28.442   8.084  0.00  0.00     0.092 C 
ATOM    141  H77 ILE d   1      14.722  28.454   9.090  0.00  0.00     0.088 H 
BRANCH 140 142
ATOM    142  CB  ILE d   1      16.443  27.579   8.107  0.00  0.00    -0.030 C 
ATOM    143  H78 ILE d   1      16.870  27.564   7.093  0.00  0.00     0.043 H 
BRANCH 142 144
ATOM    144  CG2 ILE d   1      17.487  28.189   9.033  0.00  0.00    -0.071 C 
ATOM    145  H81 ILE d   1      17.710  29.216   8.708  0.00  0.00     0.028 H 
ATOM    146  H82 ILE d   1      18.406  27.585   8.998  0.00  0.00     0.028 H 
ATOM    147  H83 ILE d   1      17.099  28.206  10.062  0.00  0.00     0.028 H 
ENDBRANCH 142 144
BRANCH 142 148
ATOM    148  CG1 ILE d   1      16.060  26.140   8.476  0.00  0.00    -0.063 C 
ATOM    149  H79 ILE d   1      16.979  25.541   8.554  0.00  0.00     0.033 H 
ATOM    150  H80 ILE d   1      15.423  25.731   7.678  0.00  0.00     0.033 H 
BRANCH 148 151
ATOM    151  CD1 ILE d   1      15.314  26.048   9.782  0.00  0.00    -0.076 C 
ATOM    152  H84 ILE d   1      15.068  24.996   9.991  0.00  0.00     0.027 H 
ATOM    153  H85 ILE d   1      14.386  26.635   9.716  0.00  0.00     0.027 H 
ATOM    154  H86 ILE d   1      15.943  26.445  10.592  0.00  0.00     0.027 H 
ENDBRANCH 148 151
ENDBRANCH 142 148
ENDBRANCH 140 142
BRANCH 140 155
ATOM    155  C   ILE d   1      15.559  29.872   7.707  0.00  0.00     0.241 C 
ATOM    156  O   ILE d   1      15.954  30.239   6.592  0.00  0.00    -0.271 OA
ATOM    157  N   LEU d   1      15.434  30.754   8.694  0.00  0.00    -0.346 N 
ATOM    158  H87 LEU d   1      15.219  30.425   9.613  0.00  0.00     0.163 HD
BRANCH 157 159
ATOM    159  CA  LEU d   1      15.601  32.184   8.478  0.00  0.00     0.089 C 
ATOM    160  H88 LEU d   1      15.519  32.343   7.393  0.00  0.00     0.087 H 
BRANCH 159 161
ATOM    161  CB  LEU d   1      14.489  32.987   9.153  0.00  0.00    -0.035 C 
ATOM    162  H89 LEU d   1      14.960  33.652   9.892  0.00  0.00     0.037 H 
ATOM    163  H90 LEU d   1      13.829  32.274   9.669  0.00  0.00     0.037 H 
BRANCH 161 164
ATOM    164  CG  LEU d   1      13.617  33.850   8.243  0.00  0.00    -0.059 C 
ATOM    165  H91 LEU d   1      14.178  34.765   8.004  0.00  0.00     0.038 H 
BRANCH 164 166
ATOM    166  CD1 LEU d   1      13.260  33.172   6.933  0.00  0.00    -0.073 C 
ATOM    167  H92 LEU d   1      12.634  33.846   6.330  0.00  0.00     0.028 H 
ATOM    168  H93 LEU d   1      12.706  32.244   7.139  0.00  0.00     0.028 H 
ATOM    169  H94 LEU d   1      14.181  32.934   6.380  0.00  0.00     0.028 H 
ENDBRANCH 164 166
BRANCH 164 170
ATOM    170  CD2 LEU d   1      12.352  34.239   8.998  0.00  0.00    -0.073 C 
ATOM    171  H95 LEU d   1      12.626  34.729   9.944  0.00  0.00     0.028 H 
ATOM    172  H96 LEU d   1      11.759  33.337   9.210  0.00  0.00     0.028 H 
ATOM    173  H97 LEU d   1      11.758  34.932   8.385  0.00  0.00     0.028 H 
ENDBRANCH 164 170
ENDBRANCH 161 164
ENDBRANCH 159 161
BRANCH 159 174
ATOM    174  C   LEU d   1      16.939  32.772   8.912  0.00  0.00     0.241 C 
ATOM    175  O   LEU d   1      17.602  32.452   9.892  0.00  0.00    -0.271 OA
ATOM    176  N   SER d   1      17.338  33.751   8.104  0.00  0.00    -0.343 N 
ATOM    177  H98 SER d   1      16.675  34.167   7.481  0.00  0.00     0.163 HD
BRANCH 176 178
ATOM    178  CA  SER d   1      18.714  34.236   8.100  0.00  0.00     0.113 C 
ATOM    179  H99 SER d   1      19.216  33.848   8.999  0.00  0.00     0.092 H 
BRANCH 178 180
ATOM    180  CB  SER d   1      19.451  33.734   6.857  0.00  0.00     0.045 C 
ATOM    181 0H10 SER d   1      19.090  34.286   5.977  0.00  0.00     0.077 H 
ATOM    182 1H10 SER d   1      19.246  32.661   6.726  0.00  0.00     0.077 H 
BRANCH 180 183
ATOM    183  OG  SER d   1      20.843  33.926   6.983  0.00  0.00    -0.398 OA
ATOM    184 2H10 SER d   1      21.160  33.448   7.740  0.00  0.00     0.209 HD
ENDBRANCH 180 183
ENDBRANCH 178 180
BRANCH 178 185
ATOM    185  C   SER d   1      18.809  35.761   8.109  0.00  0.00     0.165 C 
ATOM    186  O   SER d   1      18.415  36.339   7.070  0.00  0.00    -0.648 OA
BRANCH 185 187
ATOM    187  O1  SER d   1      19.281  36.433   9.155  0.00  0.00    -0.775 OA
ATOM    188 3H10 SER d   1      18.610  37.021   9.481  0.00  0.00     0.167 HD
ENDBRANCH 185 187
ENDBRANCH 178 185
ENDBRANCH 176 178
ENDBRANCH 159 174
ENDBRANCH 157 159
ENDBRANCH 140 155
ENDBRANCH 138 140
ENDBRANCH 121 136
ENDBRANCH 119 121
ENDBRANCH  97 117
ENDBRANCH   3  97
TORSDOF 58
