REMARK  7 active torsions:
REMARK  status: ('A' for Active; 'I' for Inactive)
REMARK    1  A    between atoms: C2_2  and  C1_1 
REMARK    2  A    between atoms: C3_3  and  C2_2 
REMARK    3  A    between atoms: C4_4  and  C3_3 
REMARK    4  A    between atoms: C25_13  and  C4_4 
REMARK    5  A    between atoms: C12_6  and  C11_5 
REMARK    6  A    between atoms: C13_7  and  C12_6 
REMARK    7  A    between atoms: C24_12  and  C13_7 
ROOT
ATOM      1  N21 SES d   1      -1.627  27.665  11.602  0.00  0.00    -0.228 NA
ATOM      2  C22 SES d   1      -2.727  28.116  12.228  0.00  0.00     0.165 A 
ATOM      3  N22 SES d   1      -3.341  29.171  11.708  0.00  0.00    -0.378 N 
ATOM      4  SE1 SES d   1      -3.405  27.270  13.815  0.00  0.00    -0.055 SA
ATOM      5  C24 SES d   1      -1.909  26.176  13.414  0.00  0.00     0.011 A 
ATOM      6  C25 SES d   1      -1.096  26.604  12.233  0.00  0.00     0.050 A 
ATOM      7  H17 SES d   1      -2.968  29.616  10.857  0.00  0.00     0.158 HD
ATOM      8  H18 SES d   1      -4.190  29.545  12.155  0.00  0.00     0.158 HD
ENDROOT
BRANCH   6   9
ATOM      9  C4  SES d   1       0.153  25.962  11.673  0.00  0.00    -0.024 C 
ATOM     10  H8  SES d   1       0.682  25.453  12.492  0.00  0.00     0.042 H 
ATOM     11  H9  SES d   1      -0.143  25.224  10.913  0.00  0.00     0.042 H 
BRANCH   9  12
ATOM     12  C3  SES d   1       1.106  26.966  11.029  0.00  0.00    -0.060 C 
ATOM     13  H6  SES d   1       0.774  27.171  10.000  0.00  0.00     0.033 H 
ATOM     14  H7  SES d   1       1.095  27.900  11.611  0.00  0.00     0.033 H 
BRANCH  12  15
ATOM     15  C2  SES d   1       2.524  26.414  10.997  0.00  0.00    -0.068 C 
ATOM     16  H4  SES d   1       2.550  25.508  10.373  0.00  0.00     0.032 H 
ATOM     17  H5  SES d   1       3.202  27.170  10.574  0.00  0.00     0.032 H 
BRANCH  15  18
ATOM     18  C1  SES d   1       2.971  26.068  12.414  0.00  0.00    -0.077 C 
ATOM     19  H1  SES d   1       3.996  25.669  12.388  0.00  0.00     0.027 H 
ATOM     20  H2  SES d   1       2.294  25.312  12.838  0.00  0.00     0.027 H 
ATOM     21  H3  SES d   1       2.946  26.974  13.038  0.00  0.00     0.027 H 
ENDBRANCH  15  18
ENDBRANCH  12  15
ENDBRANCH   9  12
ENDBRANCH   6   9
BRANCH   5  22
ATOM     22  C13 SES d   1      -1.480  25.493  14.690  0.00  0.00    -0.033 C 
ATOM     23  H15 SES d   1      -2.097  25.873  15.518  0.00  0.00     0.041 H 
ATOM     24  H16 SES d   1      -1.640  24.410  14.581  0.00  0.00     0.041 H 
BRANCH  22  25
ATOM     25  C12 SES d   1      -0.008  25.739  15.023  0.00  0.00    -0.064 C 
ATOM     26  H13 SES d   1       0.311  25.028  15.800  0.00  0.00     0.032 H 
ATOM     27  H14 SES d   1       0.598  25.588  14.117  0.00  0.00     0.032 H 
BRANCH  25  28
ATOM     28  C11 SES d   1       0.196  27.163  15.532  0.00  0.00    -0.076 C 
ATOM     29  H10 SES d   1       1.259  27.320  15.766  0.00  0.00     0.027 H 
ATOM     30  H11 SES d   1      -0.406  27.318  16.440  0.00  0.00     0.027 H 
ATOM     31  H12 SES d   1      -0.119  27.878  14.757  0.00  0.00     0.027 H 
ENDBRANCH  25  28
ENDBRANCH  22  25
ENDBRANCH   5  22
TORSDOF 7
