REMARK  4 active torsions:
REMARK  status: ('A' for Active; 'I' for Inactive)
REMARK    1  A    between atoms: C8_1  and  C9_11 
REMARK    2  A    between atoms: C8_1  and  O8_2 
REMARK    3  A    between atoms: O8_2  and  C7_3 
REMARK    4  A    between atoms: C7_3  and  C6_5 
ROOT
ATOM      1  C8  BZM d   1       0.531  26.543  13.746  0.00  0.00     0.053 C 
ATOM      2  H1  BZM d   1       0.714  25.533  13.350  0.00  0.00     0.082 H 
ATOM      3  H2  BZM d   1       0.852  26.588  14.797  0.00  0.00     0.082 H 
ENDROOT
BRANCH   1   4
ATOM      4  C9  BZM d   1      -0.956  26.762  13.728  0.00  0.00    -0.034 A 
ATOM      5  C10 BZM d   1      -1.435  28.044  13.508  0.00  0.00    -0.075 A 
ATOM      6  C11 BZM d   1      -2.796  28.305  13.486  0.00  0.00    -0.082 A 
ATOM      7  H9  BZM d   1      -0.734  28.855  13.351  0.00  0.00     0.084 H 
ATOM      8  C12 BZM d   1      -3.688  27.266  13.685  0.00  0.00    -0.083 A 
ATOM      9  H11 BZM d   1      -3.158  29.312  13.315  0.00  0.00     0.083 H 
ATOM     10  C13 BZM d   1      -3.205  25.983  13.901  0.00  0.00    -0.082 A 
ATOM     11  H12 BZM d   1      -4.756  27.453  13.672  0.00  0.00     0.083 H 
ATOM     12  C14 BZM d   1      -1.847  25.722  13.923  0.00  0.00    -0.075 A 
ATOM     13  H10 BZM d   1      -3.905  25.170  14.055  0.00  0.00     0.083 H 
ATOM     14  H8  BZM d   1      -1.485  24.714  14.091  0.00  0.00     0.084 H 
ENDBRANCH   1   4
BRANCH   1  15
ATOM     15  O8  BZM d   1       1.367  27.441  13.012  0.00  0.00    -0.313 OA
BRANCH  15  16
ATOM     16  C7  BZM d   1       1.988  26.841  11.910  0.00  0.00     0.293 C 
ATOM     17  O7  BZM d   1       2.973  27.365  11.455  0.00  0.00    -0.259 OA
BRANCH  16  18
ATOM     18  C6  BZM d   1       1.460  25.590  11.309  0.00  0.00     0.039 A 
ATOM     19  C5  BZM d   1       0.325  25.012  11.856  0.00  0.00    -0.067 A 
ATOM     20  C4  BZM d   1      -0.143  23.850  11.280  0.00  0.00    -0.082 A 
ATOM     21  H4  BZM d   1      -0.177  25.458  12.707  0.00  0.00     0.085 H 
ATOM     22  C3  BZM d   1       0.522  23.293  10.207  0.00  0.00    -0.083 A 
ATOM     23  H6  BZM d   1      -1.035  23.373  11.671  0.00  0.00     0.083 H 
ATOM     24  C2  BZM d   1       1.640  23.882   9.667  0.00  0.00    -0.082 A 
ATOM     25  H7  BZM d   1       0.153  22.368   9.779  0.00  0.00     0.083 H 
ATOM     26  C1  BZM d   1       2.129  25.046  10.224  0.00  0.00    -0.067 A 
ATOM     27  H5  BZM d   1       2.134  23.436   8.811  0.00  0.00     0.083 H 
ATOM     28  H3  BZM d   1       3.015  25.524   9.822  0.00  0.00     0.085 H 
ENDBRANCH  16  18
ENDBRANCH  15  16
ENDBRANCH   1  15
TORSDOF 4
