REMARK  2 active torsions:
REMARK  status: ('A' for Active; 'I' for Inactive)
REMARK    1  A    between atoms: C5_5  and  C7_7 
REMARK    2  A    between atoms: C7_7  and  C9_9 
ROOT
ATOM      1  C7  BZQ d   1      12.409   4.143  23.041  0.00  0.00     0.127 C 
ATOM      2  O   BZQ d   1      12.764   3.025  22.265  0.00  0.00    -0.190 OA
ENDROOT
BRANCH   1   3
ATOM      3  C5  BZQ d   1      13.018   4.306  24.421  0.00  0.00     0.001 A 
ATOM      4  C4  BZQ d   1      12.292   4.763  25.532  0.00  0.00    -0.070 A 
ATOM      5  C3  BZQ d   1      12.894   4.899  26.796  0.00  0.00    -0.082 A 
ATOM      6  H4  BZQ d   1      11.245   5.017  25.413  0.00  0.00     0.084 H 
ATOM      7  C2  BZQ d   1      14.243   4.572  26.948  0.00  0.00    -0.083 A 
ATOM      8  H3  BZQ d   1      12.317   5.254  27.642  0.00  0.00     0.083 H 
ATOM      9  C1  BZQ d   1      14.988   4.107  25.836  0.00  0.00    -0.082 A 
ATOM     10  H2  BZQ d   1      14.720   4.674  27.916  0.00  0.00     0.083 H 
ATOM     11  C6  BZQ d   1      14.377   3.975  24.589  0.00  0.00    -0.070 A 
ATOM     12  H1  BZQ d   1      16.035   3.853  25.955  0.00  0.00     0.083 H 
ATOM     13  H5  BZQ d   1      14.952   3.615  23.743  0.00  0.00     0.084 H 
ENDBRANCH   1   3
BRANCH   1  14
ATOM     14  C9  BZQ d   1      11.457   5.126  22.434  0.00  0.00     0.001 A 
ATOM     15  C8  BZQ d   1      11.874   6.411  22.088  0.00  0.00    -0.070 A 
ATOM     16  C13 BZQ d   1      10.989   7.299  21.519  0.00  0.00    -0.082 A 
ATOM     17  H6  BZQ d   1      12.900   6.712  22.268  0.00  0.00     0.084 H 
ATOM     18  C12 BZQ d   1       9.669   6.915  21.280  0.00  0.00    -0.083 A 
ATOM     19  H10 BZQ d   1      11.318   8.298  21.256  0.00  0.00     0.083 H 
ATOM     20  C11 BZQ d   1       9.246   5.639  21.614  0.00  0.00    -0.082 A 
ATOM     21  H9  BZQ d   1       8.974   7.616  20.832  0.00  0.00     0.083 H 
ATOM     22  C10 BZQ d   1      10.140   4.756  22.183  0.00  0.00    -0.070 A 
ATOM     23  H8  BZQ d   1       8.221   5.337  21.430  0.00  0.00     0.083 H 
ATOM     24  H7  BZQ d   1       9.810   3.756  22.439  0.00  0.00     0.084 H 
ENDBRANCH   1  14
TORSDOF 2
