REMARK  10 active torsions:
REMARK  status: ('A' for Active; 'I' for Inactive)
REMARK    1  A    between atoms: C7_1  and  C6_2 
REMARK    2  A    between atoms: C6_2  and  C5_3 
REMARK    3  A    between atoms: C5_3  and  C4_4 
REMARK    4  A    between atoms: C5_3  and  C10_10 
REMARK    5  A    between atoms: C4_4  and  C3_5 
REMARK    6  A    between atoms: C3_5  and  C2_6 
REMARK    7  A    between atoms: C2_6  and  C1_7 
REMARK    8  A    between atoms: C1_7  and  C8_8 
REMARK    9  A    between atoms: C1_7  and  C9_9 
REMARK   10  A    between atoms: C1_7  and  O1_11 
ROOT
ATOM      1  C3  DHM d   1      -0.861  26.394  11.879  0.00  0.00    -0.062 C 
ATOM      2  H9  DHM d   1      -1.372  25.425  11.978  0.00  0.00     0.033 H 
ATOM      3  H10 DHM d   1      -0.945  26.749  10.841  0.00  0.00     0.033 H 
ENDROOT
BRANCH   1   4
ATOM      4  C4  DHM d   1       0.591  26.212  12.212  0.00  0.00    -0.062 C 
ATOM      5  H7  DHM d   1       0.961  27.130  12.691  0.00  0.00     0.033 H 
ATOM      6  H8  DHM d   1       0.690  25.368  12.911  0.00  0.00     0.033 H 
BRANCH   4   7
ATOM      7  C5  DHM d   1       1.441  25.927  10.974  0.00  0.00    -0.058 C 
ATOM      8  H6  DHM d   1       0.915  26.309  10.087  0.00  0.00     0.039 H 
BRANCH   7   9
ATOM      9  C6  DHM d   1       1.700  24.450  10.805  0.00  0.00    -0.065 C 
ATOM     10  H4  DHM d   1       2.774  24.289  10.979  0.00  0.00     0.033 H 
ATOM     11  H5  DHM d   1       1.121  23.930  11.583  0.00  0.00     0.033 H 
BRANCH   9  12
ATOM     12  C7  DHM d   1       1.380  23.827   9.558  0.00  0.00    -0.076 C 
ATOM     13  H1  DHM d   1       1.631  22.757   9.608  0.00  0.00     0.027 H 
ATOM     14  H2  DHM d   1       1.958  24.302   8.752  0.00  0.00     0.027 H 
ATOM     15  H3  DHM d   1       0.305  23.943   9.355  0.00  0.00     0.027 H 
ENDBRANCH   9  12
ENDBRANCH   7   9
BRANCH   7  16
ATOM     16  C10 DHM d   1       2.770  26.598  11.099  0.00  0.00    -0.073 C 
ATOM     17  H19 DHM d   1       3.373  26.387  10.204  0.00  0.00     0.028 H 
ATOM     18  H20 DHM d   1       3.291  26.217  11.990  0.00  0.00     0.028 H 
ATOM     19  H21 DHM d   1       2.625  27.684  11.195  0.00  0.00     0.028 H 
ENDBRANCH   7  16
ENDBRANCH   4   7
ENDBRANCH   1   4
BRANCH   1  20
ATOM     20  C2  DHM d   1      -1.542  27.410  12.807  0.00  0.00    -0.037 C 
ATOM     21  H11 DHM d   1      -2.211  28.047  12.210  0.00  0.00     0.037 H 
ATOM     22  H12 DHM d   1      -0.770  28.033  13.283  0.00  0.00     0.037 H 
BRANCH  20  23
ATOM     23  C1  DHM d   1      -2.344  26.726  13.875  0.00  0.00     0.051 C 
BRANCH  23  24
ATOM     24  C8  DHM d   1      -1.625  26.926  15.176  0.00  0.00    -0.048 C 
ATOM     25  H13 DHM d   1      -2.187  26.436  15.985  0.00  0.00     0.031 H 
ATOM     26  H14 DHM d   1      -1.542  28.002  15.387  0.00  0.00     0.031 H 
ATOM     27  H15 DHM d   1      -0.619  26.487  15.110  0.00  0.00     0.031 H 
ENDBRANCH  23  24
BRANCH  23  28
ATOM     28  C9  DHM d   1      -2.304  25.265  13.564  0.00  0.00    -0.048 C 
ATOM     29  H16 DHM d   1      -2.824  25.078  12.613  0.00  0.00     0.031 H 
ATOM     30  H17 DHM d   1      -2.801  24.705  14.370  0.00  0.00     0.031 H 
ATOM     31  H18 DHM d   1      -1.258  24.936  13.481  0.00  0.00     0.031 H 
ENDBRANCH  23  28
BRANCH  23  32
ATOM     32  O1  DHM d   1      -3.773  27.163  14.003  0.00  0.00    -0.391 OA
ATOM     33  H22 DHM d   1      -4.218  27.032  13.174  0.00  0.00     0.210 HD
ENDBRANCH  23  32
ENDBRANCH  20  23
ENDBRANCH   1  20
TORSDOF 10
