REMARK  10 active torsions:
REMARK  status: ('A' for Active; 'I' for Inactive)
REMARK    1  A    between atoms: C11_1  and  C10_2 
REMARK    2  A    between atoms: C10_2  and  C9_3 
REMARK    3  A    between atoms: C9_3  and  C8_4 
REMARK    4  A    between atoms: C8_4  and  C7_5 
REMARK    5  A    between atoms: C7_5  and  C6_6 
REMARK    6  A    between atoms: C6_6  and  C5_7 
REMARK    7  A    between atoms: C5_7  and  C4_8 
REMARK    8  A    between atoms: C4_8  and  C3_9 
REMARK    9  A    between atoms: C3_9  and  C2_10 
REMARK   10  A    between atoms: C2_10  and  C1_11 
ROOT
ATOM      1  C6  UNA d   1       2.612  28.104  14.260  0.00  0.00    -0.065 C 
ATOM      2  H12 UNA d   1       2.717  29.171  14.504  0.00  0.00     0.033 H 
ATOM      3  H13 UNA d   1       3.223  27.508  14.953  0.00  0.00     0.033 H 
ENDROOT
BRANCH   1   4
ATOM      4  C7  UNA d   1       3.119  27.866  12.807  0.00  0.00    -0.065 C 
ATOM      5  H10 UNA d   1       3.566  28.808  12.455  0.00  0.00     0.033 H 
ATOM      6  H11 UNA d   1       3.894  27.087  12.851  0.00  0.00     0.033 H 
BRANCH   4   7
ATOM      7  C8  UNA d   1       2.012  27.397  11.687  0.00  0.00    -0.065 C 
ATOM      8  H8  UNA d   1       1.024  27.738  12.030  0.00  0.00     0.033 H 
ATOM      9  H9  UNA d   1       2.264  27.896  10.740  0.00  0.00     0.033 H 
BRANCH   7  10
ATOM     10  C9  UNA d   1       1.916  25.932  11.416  0.00  0.00    -0.065 C 
ATOM     11  H6  UNA d   1       2.690  25.657  10.684  0.00  0.00     0.033 H 
ATOM     12  H7  UNA d   1       2.090  25.387  12.356  0.00  0.00     0.033 H 
BRANCH  10  13
ATOM     13  C10 UNA d   1       0.616  25.547  10.887  0.00  0.00    -0.069 C 
ATOM     14  H4  UNA d   1       0.760  25.117   9.885  0.00  0.00     0.032 H 
ATOM     15  H5  UNA d   1       0.178  24.788  11.553  0.00  0.00     0.032 H 
BRANCH  13  16
ATOM     16  C11 UNA d   1      -0.383  26.748  10.775  0.00  0.00    -0.077 C 
ATOM     17  H1  UNA d   1      -1.342  26.391  10.370  0.00  0.00     0.027 H 
ATOM     18  H2  UNA d   1       0.036  27.512  10.104  0.00  0.00     0.027 H 
ATOM     19  H3  UNA d   1      -0.545  27.184  11.772  0.00  0.00     0.027 H 
ENDBRANCH  13  16
ENDBRANCH  10  13
ENDBRANCH   7  10
ENDBRANCH   4   7
ENDBRANCH   1   4
BRANCH   1  20
ATOM     20  C5  UNA d   1       1.156  27.704  14.419  0.00  0.00    -0.065 C 
ATOM     21  H14 UNA d   1       1.069  26.922  15.188  0.00  0.00     0.033 H 
ATOM     22  H15 UNA d   1       0.771  27.322  13.462  0.00  0.00     0.033 H 
BRANCH  20  23
ATOM     23  C4  UNA d   1       0.327  28.969  14.855  0.00  0.00    -0.065 C 
ATOM     24  H16 UNA d   1       0.852  29.883  14.539  0.00  0.00     0.033 H 
ATOM     25  H17 UNA d   1       0.208  28.974  15.948  0.00  0.00     0.033 H 
BRANCH  23  26
ATOM     26  C3  UNA d   1      -1.062  28.908  14.181  0.00  0.00    -0.059 C 
ATOM     27  H18 UNA d   1      -0.977  29.204  13.125  0.00  0.00     0.033 H 
ATOM     28  H19 UNA d   1      -1.757  29.587  14.697  0.00  0.00     0.033 H 
BRANCH  26  29
ATOM     29  C2  UNA d   1      -1.601  27.396  14.282  0.00  0.00    -0.017 C 
ATOM     30  H20 UNA d   1      -1.634  27.100  15.341  0.00  0.00     0.043 H 
ATOM     31  H21 UNA d   1      -0.910  26.735  13.738  0.00  0.00     0.043 H 
BRANCH  29  32
ATOM     32  C1  UNA d   1      -2.952  27.254  13.705  0.00  0.00     0.088 C 
ATOM     33  O1  UNA d   1      -2.910  26.205  13.227  0.00  0.00    -0.307 OA
ATOM     34  H22 UNA d   1      -3.780  27.961  13.725  0.00  0.00     0.143 H 
ENDBRANCH  29  32
ENDBRANCH  26  29
ENDBRANCH  23  26
ENDBRANCH  20  23
ENDBRANCH   1  20
TORSDOF 10
