REMARK WARNING: 32 MAX_TORS EXCEEDED!!!
REMARK  52 active torsions:
REMARK  status: ('A' for Active; 'I' for Inactive)
REMARK    1  A    between atoms: O10_1  and  C11_2 
REMARK    2  A    between atoms: O10_1  and  C12_3 
REMARK    3  A    between atoms: C13_4  and  C15_6 
REMARK    4  A    between atoms: C15_6  and  O16_7 
REMARK    5  A    between atoms: O16_7  and  S17_8 
REMARK    6  A    between atoms: S17_8  and  O1A_11 
REMARK    7  A    between atoms: C1B_12  and  O1C_13 
REMARK    8  A    between atoms: O1C_13  and  C1D_14 
REMARK    9  A    between atoms: C1E_15  and  O1F_16 
REMARK   10  A    between atoms: O1F_16  and  S1G_17 
REMARK   11  A    between atoms: S1G_17  and  O1I_19 
REMARK   12  A    between atoms: C1K_21  and  O1L_22 
REMARK   13  A    between atoms: O1L_22  and  C20_23 
REMARK   14  A    between atoms: C21_24  and  C23_26 
REMARK   15  A    between atoms: C26_29  and  O27_30 
REMARK   16  A    between atoms: O27_30  and  C28_31 
REMARK   17  A    between atoms: C29_32  and  O2A_33 
REMARK   18  A    between atoms: O2A_33  and  C2B_34 
REMARK   19  A    between atoms: C2C_35  and  O2D_36 
REMARK   20  A    between atoms: O2D_36  and  C30_37 
REMARK   21  A    between atoms: C31_38  and  C33_40 
REMARK   22  A    between atoms: C33_40  and  O34_41 
REMARK   23  A    between atoms: O34_41  and  S35_42 
REMARK   24  A    between atoms: S35_42  and  O36_43 
REMARK   25  A    between atoms: C39_46  and  O3A_47 
REMARK   26  A    between atoms: O3A_47  and  S3B_48 
REMARK   27  A    between atoms: S3B_48  and  O3E_51 
REMARK   28  A    between atoms: C3F_52  and  O3G_53 
REMARK   29  A    between atoms: O3G_53  and  S3H_54 
REMARK   30  A    between atoms: S3H_54  and  O3I_55 
REMARK   31  A    between atoms: C3L_58  and  O3M_59 
REMARK   32  A    between atoms: O3M_59  and  C40_60 
REMARK   33  A    between atoms: C41_61  and  C43_63 
REMARK   34  A    between atoms: C46_66  and  O47_67 
REMARK   35  A    between atoms: O47_67  and  C48_68 
REMARK   36  A    between atoms: C49_69  and  O4A_70 
REMARK   37  A    between atoms: O4A_70  and  S4B_71 
REMARK   38  A    between atoms: S4B_71  and  O4D_73 
REMARK   39  A    between atoms: C4F_75  and  O4G_76 
REMARK   40  A    between atoms: O4G_76  and  C50_77 
REMARK   41  A    between atoms: C51_78  and  C53_80 
REMARK   42  A    between atoms: C53_80  and  O54_81 
REMARK   43  A    between atoms: O54_81  and  S55_82 
REMARK   44  A    between atoms: S55_82  and  O56_83 
REMARK   45  A    between atoms: C59_86  and  O5A_87 
REMARK   46  A    between atoms: O5A_87  and  S5B_88 
REMARK   47  A    between atoms: S5B_88  and  O5D_90 
REMARK   48  A    between atoms: C5F_92  and  O5G_93 
REMARK   49  A    between atoms: O5G_93  and  S5H_94 
REMARK   50  A    between atoms: S5H_94  and  O5K_97 
REMARK   51  A    between atoms: C5L_98  and  O5M_99 
REMARK   52  A    between atoms: O5M_99  and  C5N_100 
ROOT
ATOM      1  C30 NTP d   1     -11.537 -25.704  23.909  0.00  0.00     0.097 C 
ATOM      2  C31 NTP d   1     -12.775 -26.571  23.609  0.00  0.00     0.091 C 
ATOM      3  O32 NTP d   1     -13.544 -26.798  24.800  0.00  0.00    -0.348 OA
ATOM      4  C39 NTP d   1     -11.988 -24.382  24.553  0.00  0.00     0.117 C 
ATOM      5  C3F NTP d   1     -12.772 -24.698  25.835  0.00  0.00     0.135 C 
ATOM      6  C3L NTP d   1     -13.998 -25.579  25.439  0.00  0.00     0.161 C 
ATOM      7  H27 NTP d   1     -10.841 -26.241  24.570  0.00  0.00     0.091 H 
ATOM      8  H28 NTP d   1     -13.396 -26.065  22.855  0.00  0.00     0.090 H 
ATOM      9  H32 NTP d   1     -12.633 -23.831  23.853  0.00  0.00     0.094 H 
ATOM     10  H34 NTP d   1     -12.136 -25.219  26.565  0.00  0.00     0.097 H 
ATOM     11  H36 NTP d   1     -14.593 -25.829  26.330  0.00  0.00     0.133 H 
ENDROOT
BRANCH   6  12
ATOM     12  O3M NTP d   1     -14.784 -24.794  24.516  0.00  0.00    -0.347 OA
BRANCH  12  13
ATOM     13  C40 NTP d   1     -15.954 -25.411  23.966  0.00  0.00     0.104 C 
ATOM     14  C41 NTP d   1     -16.441 -24.623  22.734  0.00  0.00     0.152 C 
ATOM     15  O42 NTP d   1     -17.112 -23.432  23.095  0.00  0.00    -0.340 OA
ATOM     16  H38 NTP d   1     -17.168 -25.265  22.216  0.00  0.00     0.104 H 
ATOM     17  C4F NTP d   1     -18.272 -23.604  23.869  0.00  0.00     0.161 C 
ATOM     18  C49 NTP d   1     -18.406 -25.026  24.504  0.00  0.00     0.133 C 
ATOM     19  H45 NTP d   1     -18.210 -22.878  24.694  0.00  0.00     0.133 H 
ATOM     20  C46 NTP d   1     -17.040 -25.487  25.059  0.00  0.00     0.097 C 
ATOM     21  H43 NTP d   1     -18.771 -25.741  23.752  0.00  0.00     0.097 H 
ATOM     22  H39 NTP d   1     -16.750 -24.815  25.880  0.00  0.00     0.091 H 
ATOM     23  H37 NTP d   1     -15.703 -26.433  23.648  0.00  0.00     0.092 H 
BRANCH  14  24
ATOM     24  C43 NTP d   1     -15.325 -24.308  21.734  0.00  0.00     0.206 C 
ATOM     25  O44 NTP d   1     -14.582 -25.240  21.329  0.00  0.00    -0.646 OA
ATOM     26  O45 NTP d   1     -14.980 -23.117  21.522  0.00  0.00    -0.646 OA
ENDBRANCH  14  24
BRANCH  17  27
ATOM     27  O4G NTP d   1     -19.454 -23.332  23.143  0.00  0.00    -0.348 OA
BRANCH  27  28
ATOM     28  C50 NTP d   1     -19.699 -22.037  22.645  0.00  0.00     0.097 C 
ATOM     29  C51 NTP d   1     -20.982 -21.416  23.208  0.00  0.00     0.091 C 
ATOM     30  O52 NTP d   1     -21.102 -20.059  22.740  0.00  0.00    -0.348 OA
ATOM     31  H47 NTP d   1     -21.837 -22.003  22.843  0.00  0.00     0.090 H 
ATOM     32  C5L NTP d   1     -21.164 -19.966  21.305  0.00  0.00     0.159 C 
ATOM     33  C5F NTP d   1     -19.915 -20.614  20.648  0.00  0.00     0.135 C 
ATOM     34  H55 NTP d   1     -21.206 -18.904  21.020  0.00  0.00     0.133 H 
ATOM     35  C59 NTP d   1     -19.811 -22.088  21.111  0.00  0.00     0.117 C 
ATOM     36  H53 NTP d   1     -19.013 -20.066  20.957  0.00  0.00     0.097 H 
ATOM     37  H51 NTP d   1     -20.687 -22.670  20.788  0.00  0.00     0.094 H 
ATOM     38  H46 NTP d   1     -18.850 -21.395  22.923  0.00  0.00     0.091 H 
BRANCH  29  39
ATOM     39  C53 NTP d   1     -21.025 -21.397  24.734  0.00  0.00     0.066 C 
ATOM     40  H48 NTP d   1     -21.336 -22.385  25.105  0.00  0.00     0.080 H 
ATOM     41  H49 NTP d   1     -21.744 -20.636  25.071  0.00  0.00     0.080 H 
BRANCH  39  42
ATOM     42  O54 NTP d   1     -19.731 -21.085  25.241  0.00  0.00    -0.261 OA
BRANCH  42  43
ATOM     43  S55 NTP d   1     -19.682 -20.469  26.741  0.00  0.00     0.240 S 
ATOM     44  O57 NTP d   1     -20.917 -19.774  26.898  0.00  0.00    -0.579 OA
ATOM     45  O58 NTP d   1     -18.545 -19.608  26.780  0.00  0.00    -0.579 OA
BRANCH  43  46
ATOM     46  O56 NTP d   1     -19.563 -21.609  27.598  0.00  0.00    -0.274 OA
ATOM     47  H50 NTP d   1     -20.314 -22.177  27.474  0.00  0.00     0.234 HD
ENDBRANCH  43  46
ENDBRANCH  42  43
ENDBRANCH  39  42
ENDBRANCH  29  39
BRANCH  32  48
ATOM     48  O5M NTP d   1     -22.338 -20.625  20.831  0.00  0.00    -0.363 OA
BRANCH  48  49
ATOM     49  C5N NTP d   1     -23.533 -20.007  21.300  0.00  0.00     0.007 C 
ATOM     50  H56 NTP d   1     -24.405 -20.551  20.908  0.00  0.00     0.066 H 
ATOM     51  H57 NTP d   1     -23.566 -18.963  20.954  0.00  0.00     0.066 H 
ATOM     52  H58 NTP d   1     -23.551 -20.030  22.400  0.00  0.00     0.066 H 
ENDBRANCH  48  49
ENDBRANCH  32  48
BRANCH  33  53
ATOM     53  O5G NTP d   1     -20.031 -20.572  19.220  0.00  0.00    -0.251 OA
BRANCH  53  54
ATOM     54  S5H NTP d   1     -19.335 -19.311  18.471  0.00  0.00     0.241 S 
ATOM     55  O5I NTP d   1     -18.402 -19.896  17.571  0.00  0.00    -0.579 OA
ATOM     56  O5J NTP d   1     -18.721 -18.563  19.507  0.00  0.00    -0.579 OA
BRANCH  54  57
ATOM     57  O5K NTP d   1     -20.409 -18.605  17.850  0.00  0.00    -0.274 OA
ATOM     58  H54 NTP d   1     -21.025 -18.320  18.514  0.00  0.00     0.234 HD
ENDBRANCH  54  57
ENDBRANCH  53  54
ENDBRANCH  33  53
BRANCH  35  59
ATOM     59  O5A NTP d   1     -18.603 -22.663  20.606  0.00  0.00    -0.253 OA
BRANCH  59  60
ATOM     60  S5B NTP d   1     -18.632 -23.641  19.325  0.00  0.00     0.240 S 
ATOM     61  O5C NTP d   1     -19.290 -24.822  19.769  0.00  0.00    -0.579 OA
ATOM     62  O5E NTP d   1     -19.342 -22.945  18.306  0.00  0.00    -0.579 OA
BRANCH  60  63
ATOM     63  O5D NTP d   1     -17.257 -23.858  19.013  0.00  0.00    -0.274 OA
ATOM     64  H52 NTP d   1     -16.824 -24.260  19.757  0.00  0.00     0.234 HD
ENDBRANCH  60  63
ENDBRANCH  59  60
ENDBRANCH  35  59
ENDBRANCH  27  28
ENDBRANCH  17  27
BRANCH  18  65
ATOM     65  O4A NTP d   1     -19.321 -24.949  25.610  0.00  0.00    -0.251 OA
BRANCH  65  66
ATOM     66  S4B NTP d   1     -20.623 -25.908  25.656  0.00  0.00     0.241 S 
ATOM     67  O4C NTP d   1     -21.202 -25.912  24.345  0.00  0.00    -0.579 OA
ATOM     68  O4E NTP d   1     -20.106 -27.178  26.058  0.00  0.00    -0.579 OA
BRANCH  66  69
ATOM     69  O4D NTP d   1     -21.492 -25.311  26.627  0.00  0.00    -0.274 OA
ATOM     70  H44 NTP d   1     -21.715 -24.430  26.351  0.00  0.00     0.234 HD
ENDBRANCH  66  69
ENDBRANCH  65  66
ENDBRANCH  18  65
BRANCH  20  71
ATOM     71  O47 NTP d   1     -17.158 -26.800  25.575  0.00  0.00    -0.385 OA
BRANCH  71  72
ATOM     72  C48 NTP d   1     -16.737 -26.893  26.927  0.00  0.00     0.005 C 
ATOM     73  H40 NTP d   1     -16.849 -27.930  27.276  0.00  0.00     0.066 H 
ATOM     74  H41 NTP d   1     -17.354 -26.228  27.550  0.00  0.00     0.066 H 
ATOM     75  H42 NTP d   1     -15.681 -26.593  27.004  0.00  0.00     0.066 H 
ENDBRANCH  71  72
ENDBRANCH  20  71
ENDBRANCH  12  13
ENDBRANCH   6  12
BRANCH   5  76
ATOM     76  O3G NTP d   1     -13.260 -23.455  26.378  0.00  0.00    -0.251 OA
BRANCH  76  77
ATOM     77  S3H NTP d   1     -13.835 -23.451  27.898  0.00  0.00     0.241 S 
ATOM     78  O3J NTP d   1     -12.698 -23.299  28.730  0.00  0.00    -0.579 OA
ATOM     79  O3K NTP d   1     -14.490 -24.705  28.087  0.00  0.00    -0.579 OA
BRANCH  77  80
ATOM     80  O3I NTP d   1     -14.720 -22.331  27.934  0.00  0.00    -0.274 OA
ATOM     81  H35 NTP d   1     -14.235 -21.539  27.733  0.00  0.00     0.234 HD
ENDBRANCH  77  80
ENDBRANCH  76  77
ENDBRANCH   5  76
BRANCH   2  82
ATOM     82  C33 NTP d   1     -12.338 -27.964  23.087  0.00  0.00     0.066 C 
ATOM     83  H29 NTP d   1     -11.492 -27.858  22.392  0.00  0.00     0.080 H 
ATOM     84  H30 NTP d   1     -13.177 -28.454  22.571  0.00  0.00     0.080 H 
BRANCH  82  85
ATOM     85  O34 NTP d   1     -11.944 -28.736  24.225  0.00  0.00    -0.261 OA
BRANCH  85  86
ATOM     86  S35 NTP d   1     -10.754 -29.822  24.030  0.00  0.00     0.240 S 
ATOM     87  O37 NTP d   1     -11.400 -31.024  23.614  0.00  0.00    -0.579 OA
ATOM     88  O38 NTP d   1     -10.123 -29.916  25.309  0.00  0.00    -0.579 OA
BRANCH  86  89
ATOM     89  O36 NTP d   1      -9.898 -29.285  23.018  0.00  0.00    -0.274 OA
ATOM     90  H31 NTP d   1     -10.393 -29.168  22.216  0.00  0.00     0.234 HD
ENDBRANCH  86  89
ENDBRANCH  85  86
ENDBRANCH  82  85
ENDBRANCH   2  82
BRANCH   4  91
ATOM     91  O3A NTP d   1     -10.856 -23.598  24.866  0.00  0.00    -0.253 OA
BRANCH  91  92
ATOM     92  S3B NTP d   1     -10.899 -22.064  24.387  0.00  0.00     0.240 S 
ATOM     93  O3C NTP d   1     -11.947 -21.467  25.138  0.00  0.00    -0.579 OA
ATOM     94  O3D NTP d   1      -9.599 -21.572  24.690  0.00  0.00    -0.579 OA
BRANCH  92  95
ATOM     95  O3E NTP d   1     -11.176 -22.109  22.987  0.00  0.00    -0.274 OA
ATOM     96  H33 NTP d   1     -12.010 -22.541  22.844  0.00  0.00     0.234 HD
ENDBRANCH  92  95
ENDBRANCH  91  92
ENDBRANCH   4  91
BRANCH   1  97
ATOM     97  O2D NTP d   1     -10.912 -25.378  22.663  0.00  0.00    -0.348 OA
BRANCH  97  98
ATOM     98  C2C NTP d   1      -9.637 -25.902  22.341  0.00  0.00     0.160 C 
ATOM     99  O22 NTP d   1      -8.585 -25.063  22.848  0.00  0.00    -0.340 OA
ATOM    100  C21 NTP d   1      -7.280 -25.547  22.484  0.00  0.00     0.152 C 
ATOM    101  C20 NTP d   1      -7.166 -25.546  20.927  0.00  0.00     0.103 C 
ATOM    102  H17 NTP d   1      -7.167 -26.578  22.851  0.00  0.00     0.104 H 
ATOM    103  C26 NTP d   1      -8.227 -26.530  20.379  0.00  0.00     0.095 C 
ATOM    104  H16 NTP d   1      -7.353 -24.537  20.532  0.00  0.00     0.092 H 
ATOM    105  C29 NTP d   1      -9.575 -25.946  20.798  0.00  0.00     0.112 C 
ATOM    106  H18 NTP d   1      -8.090 -27.519  20.840  0.00  0.00     0.091 H 
ATOM    107  H22 NTP d   1      -9.659 -24.922  20.405  0.00  0.00     0.095 H 
ATOM    108  H26 NTP d   1      -9.528 -26.914  22.758  0.00  0.00     0.133 H 
BRANCH 100 109
ATOM    109  C23 NTP d   1      -6.170 -24.679  23.111  0.00  0.00     0.206 C 
ATOM    110  O24 NTP d   1      -5.773 -23.625  22.544  0.00  0.00    -0.646 OA
ATOM    111  O25 NTP d   1      -5.460 -25.161  24.031  0.00  0.00    -0.646 OA
ENDBRANCH 100 109
BRANCH 101 112
ATOM    112  O1L NTP d   1      -5.854 -25.965  20.567  0.00  0.00    -0.347 OA
BRANCH 112 113
ATOM    113  C1K NTP d   1      -5.181 -25.253  19.523  0.00  0.00     0.161 C 
ATOM    114  O14 NTP d   1      -4.526 -24.095  20.029  0.00  0.00    -0.348 OA
ATOM    115  C13 NTP d   1      -3.524 -24.380  21.024  0.00  0.00     0.090 C 
ATOM    116  C12 NTP d   1      -2.443 -25.269  20.392  0.00  0.00     0.092 C 
ATOM    117  H5  NTP d   1      -3.982 -24.915  21.869  0.00  0.00     0.090 H 
ATOM    118  C1B NTP d   1      -3.095 -26.599  19.995  0.00  0.00     0.096 C 
ATOM    119  H4  NTP d   1      -2.051 -24.776  19.490  0.00  0.00     0.091 H 
ATOM    120  C1E NTP d   1      -4.182 -26.267  18.939  0.00  0.00     0.133 C 
ATOM    121  H9  NTP d   1      -3.548 -27.084  20.872  0.00  0.00     0.091 H 
ATOM    122  H13 NTP d   1      -3.721 -25.880  18.018  0.00  0.00     0.097 H 
ATOM    123  H15 NTP d   1      -5.900 -24.944  18.750  0.00  0.00     0.133 H 
BRANCH 115 124
ATOM    124  C15 NTP d   1      -2.935 -23.055  21.527  0.00  0.00     0.066 C 
ATOM    125  H6  NTP d   1      -1.872 -23.000  21.251  0.00  0.00     0.080 H 
ATOM    126  H7  NTP d   1      -3.033 -23.003  22.621  0.00  0.00     0.080 H 
BRANCH 124 127
ATOM    127  O16 NTP d   1      -3.635 -21.963  20.937  0.00  0.00    -0.261 OA
BRANCH 127 128
ATOM    128  S17 NTP d   1      -2.869 -20.544  20.908  0.00  0.00     0.240 S 
ATOM    129  O18 NTP d   1      -2.971 -20.115  19.556  0.00  0.00    -0.579 OA
ATOM    130  O19 NTP d   1      -1.539 -20.814  21.337  0.00  0.00    -0.579 OA
BRANCH 128 131
ATOM    131  O1A NTP d   1      -3.607 -19.724  21.810  0.00  0.00    -0.274 OA
ATOM    132  H8  NTP d   1      -4.504 -19.650  21.507  0.00  0.00     0.234 HD
ENDBRANCH 128 131
ENDBRANCH 127 128
ENDBRANCH 124 127
ENDBRANCH 115 124
BRANCH 116 133
ATOM    133  O10 NTP d   1      -1.367 -25.476  21.301  0.00  0.00    -0.385 OA
BRANCH 133 134
ATOM    134  C11 NTP d   1      -0.559 -26.603  20.950  0.00  0.00     0.005 C 
ATOM    135  H1  NTP d   1       0.253 -26.715  21.683  0.00  0.00     0.066 H 
ATOM    136  H2  NTP d   1      -0.130 -26.449  19.949  0.00  0.00     0.066 H 
ATOM    137  H3  NTP d   1      -1.179 -27.512  20.948  0.00  0.00     0.066 H 
ENDBRANCH 133 134
ENDBRANCH 116 133
BRANCH 118 138
ATOM    138  O1C NTP d   1      -2.107 -27.457  19.421  0.00  0.00    -0.385 OA
BRANCH 138 139
ATOM    139  C1D NTP d   1      -2.559 -27.996  18.173  0.00  0.00     0.005 C 
ATOM    140  H10 NTP d   1      -1.781 -28.651  17.754  0.00  0.00     0.066 H 
ATOM    141  H11 NTP d   1      -2.764 -27.174  17.471  0.00  0.00     0.066 H 
ATOM    142  H12 NTP d   1      -3.479 -28.576  18.336  0.00  0.00     0.066 H 
ENDBRANCH 138 139
ENDBRANCH 118 138
BRANCH 120 143
ATOM    143  O1F NTP d   1      -4.936 -27.474  18.682  0.00  0.00    -0.251 OA
BRANCH 143 144
ATOM    144  S1G NTP d   1      -4.977 -27.895  17.122  0.00  0.00     0.241 S 
ATOM    145  O1H NTP d   1      -3.656 -27.624  16.661  0.00  0.00    -0.579 OA
ATOM    146  O1J NTP d   1      -5.311 -29.282  17.141  0.00  0.00    -0.579 OA
BRANCH 144 147
ATOM    147  O1I NTP d   1      -5.976 -27.060  16.527  0.00  0.00    -0.274 OA
ATOM    148  H14 NTP d   1      -6.811 -27.216  16.951  0.00  0.00     0.234 HD
ENDBRANCH 144 147
ENDBRANCH 143 144
ENDBRANCH 120 143
ENDBRANCH 112 113
ENDBRANCH 101 112
BRANCH 103 149
ATOM    149  O27 NTP d   1      -8.138 -26.673  18.967  0.00  0.00    -0.385 OA
BRANCH 149 150
ATOM    150  C28 NTP d   1      -7.680 -25.494  18.297  0.00  0.00     0.005 C 
ATOM    151  H19 NTP d   1      -7.638 -25.681  17.214  0.00  0.00     0.066 H 
ATOM    152  H20 NTP d   1      -6.677 -25.230  18.663  0.00  0.00     0.066 H 
ATOM    153  H21 NTP d   1      -8.374 -24.665  18.499  0.00  0.00     0.066 H 
ENDBRANCH 149 150
ENDBRANCH 103 149
BRANCH 105 154
ATOM    154  O2A NTP d   1     -10.643 -26.716  20.285  0.00  0.00    -0.383 OA
BRANCH 154 155
ATOM    155  C2B NTP d   1     -11.378 -26.042  19.266  0.00  0.00     0.005 C 
ATOM    156  H23 NTP d   1     -12.191 -26.691  18.910  0.00  0.00     0.066 H 
ATOM    157  H24 NTP d   1     -10.707 -25.802  18.428  0.00  0.00     0.066 H 
ATOM    158  H25 NTP d   1     -11.803 -25.113  19.674  0.00  0.00     0.066 H 
ENDBRANCH 154 155
ENDBRANCH 105 154
ENDBRANCH  97  98
ENDBRANCH   1  97
TORSDOF 52
