REMARK  5 active torsions:
REMARK  status: ('A' for Active; 'I' for Inactive)
REMARK    1  A    between atoms: C4_1  and  C8_7 
REMARK    2  A    between atoms: C1_4  and  C7_8 
REMARK    3  A    between atoms: C3_6  and  O_9 
REMARK    4  A    between atoms: C8_7  and  C10_11 
REMARK    5  A    between atoms: C8_7  and  C9_10 
ROOT
ATOM      1  C4  IPB d   1      -0.321  26.536  12.320  0.00  0.00    -0.022 A 
ATOM      2  C5  IPB d   1      -0.840  25.396  12.676  0.00  0.00    -0.073 A 
ATOM      3  C6  IPB d   1      -2.160  25.325  13.362  0.00  0.00    -0.077 A 
ATOM      4  C1  IPB d   1      -2.844  26.453  13.629  0.00  0.00    -0.059 A 
ATOM      5  C2  IPB d   1      -2.269  27.679  13.236  0.00  0.00    -0.045 A 
ATOM      6  C3  IPB d   1      -1.094  27.776  12.617  0.00  0.00     0.072 A 
ATOM      7  H1  IPB d   1      -0.300  24.479  12.469  0.00  0.00     0.084 H 
ATOM      8  H2  IPB d   1      -2.571  24.363  13.647  0.00  0.00     0.084 H 
ATOM      9  H3  IPB d   1      -2.813  28.592  13.449  0.00  0.00     0.088 H 
ENDROOT
BRANCH   1  10
ATOM     10  C8  IPB d   1       1.031  26.619  11.605  0.00  0.00    -0.033 C 
ATOM     11  H4  IPB d   1       1.366  27.665  11.676  0.00  0.00     0.046 H 
BRANCH  10  12
ATOM     12  C10 IPB d   1       0.927  26.279  10.148  0.00  0.00    -0.069 C 
ATOM     13  H12 IPB d   1       0.155  26.907   9.679  0.00  0.00     0.028 H 
ATOM     14  H13 IPB d   1       0.655  25.219  10.037  0.00  0.00     0.028 H 
ATOM     15  H14 IPB d   1       1.895  26.462   9.659  0.00  0.00     0.028 H 
ENDBRANCH  10  12
BRANCH  10  16
ATOM     16  C9  IPB d   1       2.109  25.747  12.272  0.00  0.00    -0.069 C 
ATOM     17  H9  IPB d   1       3.054  25.846  11.719  0.00  0.00     0.028 H 
ATOM     18  H10 IPB d   1       1.787  24.695  12.263  0.00  0.00     0.028 H 
ATOM     19  H11 IPB d   1       2.256  26.077  13.311  0.00  0.00     0.028 H 
ENDBRANCH  10  16
ENDBRANCH   1  10
BRANCH   6  20
ATOM     20  O   IPB d   1      -0.647  29.011  12.301  0.00  0.00    -0.360 OA
ATOM     21  H8  IPB d   1       0.195  28.940  11.867  0.00  0.00     0.217 HD
ENDBRANCH   6  20
BRANCH   4  22
ATOM     22  C7  IPB d   1      -4.154  26.409  14.298  0.00  0.00    -0.051 C 
ATOM     23  H5  IPB d   1      -4.418  25.364  14.518  0.00  0.00     0.033 H 
ATOM     24  H6  IPB d   1      -4.917  26.849  13.639  0.00  0.00     0.033 H 
ATOM     25  H7  IPB d   1      -4.106  26.981  15.236  0.00  0.00     0.033 H 
ENDBRANCH   4  22
TORSDOF 5
