REMARK  6 active torsions:
REMARK  status: ('A' for Active; 'I' for Inactive)
REMARK    1  A    between atoms: C1_1  and  N1_2 
REMARK    2  A    between atoms: C14_5  and  C8_8 
REMARK    3  A    between atoms: C13_6  and  O3_28 
REMARK    4  A    between atoms: C2_11  and  C21_21 
REMARK    5  A    between atoms: C5_16  and  O5_17 
REMARK    6  A    between atoms: C7_19  and  O7_20 
ROOT
ATOM      1  C8  CPB d   1      39.198  37.507  30.861  0.00  0.00     0.017 A 
ATOM      2  C9  CPB d   1      38.319  36.401  30.537  0.00  0.00     0.102 A 
ATOM      3  O1  CPB d   1      38.485  35.704  29.329  0.00  0.00    -0.308 OA
ATOM      4  C2  CPB d   1      37.705  34.633  28.930  0.00  0.00     0.091 A 
ATOM      5  C3  CPB d   1      36.689  34.177  29.707  0.00  0.00    -0.000 A 
ATOM      6  C4  CPB d   1      36.394  34.816  31.002  0.00  0.00     0.190 A 
ATOM      7  O4  CPB d   1      35.483  34.394  31.686  0.00  0.00    -0.287 OA
ATOM      8  C10 CPB d   1      37.278  36.005  31.456  0.00  0.00     0.082 A 
ATOM      9  C5  CPB d   1      37.097  36.693  32.700  0.00  0.00     0.085 A 
ATOM     10  C6  CPB d   1      37.947  37.782  33.020  0.00  0.00    -0.017 A 
ATOM     11  C7  CPB d   1      38.983  38.195  32.125  0.00  0.00     0.077 A 
ATOM     12  H13 CPB d   1      36.088  33.333  29.371  0.00  0.00     0.094 H 
ATOM     13  H15 CPB d   1      37.809  38.309  33.957  0.00  0.00     0.092 H 
ENDROOT
BRANCH   1  14
ATOM     14  C14 CPB d   1      40.349  37.883  29.829  0.00  0.00     0.005 C 
ATOM     15  C15 CPB d   1      39.993  39.252  29.177  0.00  0.00    -0.033 C 
ATOM     16  C16 CPB d   1      41.099  39.642  28.128  0.00  0.00     0.084 C 
ATOM     17  H7  CPB d   1      39.020  39.174  28.671  0.00  0.00     0.036 H 
ATOM     18  H8  CPB d   1      39.939  40.026  29.957  0.00  0.00     0.036 H 
ATOM     19  N1  CPB d   1      42.482  39.527  28.618  0.00  0.00    -0.072 N 
ATOM     20  H5  CPB d   1      40.989  38.983  27.254  0.00  0.00     0.076 H 
ATOM     21  H6  CPB d   1      40.929  40.685  27.824  0.00  0.00     0.076 H 
ATOM     22  C12 CPB d   1      42.791  38.184  29.184  0.00  0.00     0.107 C 
ATOM     23  H4  CPB d   1      42.559  40.183  29.380  0.00  0.00     0.279 HD
ATOM     24  C13 CPB d   1      41.830  37.844  30.356  0.00  0.00     0.066 C 
ATOM     25  H11 CPB d   1      43.827  38.178  29.554  0.00  0.00     0.080 H 
ATOM     26  H12 CPB d   1      42.679  37.426  28.395  0.00  0.00     0.080 H 
ATOM     27  H10 CPB d   1      42.032  36.834  30.741  0.00  0.00     0.086 H 
ATOM     28  H9  CPB d   1      40.304  37.125  29.033  0.00  0.00     0.051 H 
BRANCH  19  29
ATOM     29  C1  CPB d   1      43.500  39.919  27.633  0.00  0.00     0.066 C 
ATOM     30  H1  CPB d   1      43.255  40.912  27.227  0.00  0.00     0.068 H 
ATOM     31  H2  CPB d   1      43.521  39.184  26.815  0.00  0.00     0.068 H 
ATOM     32  H3  CPB d   1      44.486  39.955  28.119  0.00  0.00     0.068 H 
ENDBRANCH  19  29
BRANCH  24  33
ATOM     33  O3  CPB d   1      42.154  38.803  31.364  0.00  0.00    -0.393 OA
ATOM     34  H21 CPB d   1      41.602  38.660  32.124  0.00  0.00     0.210 HD
ENDBRANCH  24  33
ENDBRANCH   1  14
BRANCH  11  35
ATOM     35  O7  CPB d   1      39.796  39.281  32.516  0.00  0.00    -0.360 OA
ATOM     36  H16 CPB d   1      40.440  39.453  31.839  0.00  0.00     0.217 HD
ENDBRANCH  11  35
BRANCH   4  37
ATOM     37  C21 CPB d   1      37.993  33.937  27.575  0.00  0.00     0.020 A 
ATOM     38  C22 CPB d   1      38.363  34.662  26.390  0.00  0.00     0.047 A 
ATOM     39 CL1  CPB d   1      38.513  36.398  26.354  0.00  0.00    -0.083 Cl
ATOM     40  C23 CPB d   1      38.627  33.987  25.178  0.00  0.00    -0.061 A 
ATOM     41  C24 CPB d   1      38.525  32.567  25.097  0.00  0.00    -0.081 A 
ATOM     42  H17 CPB d   1      38.910  34.555  24.299  0.00  0.00     0.086 H 
ATOM     43  C25 CPB d   1      38.158  31.820  26.264  0.00  0.00    -0.082 A 
ATOM     44  H18 CPB d   1      38.723  32.057  24.161  0.00  0.00     0.083 H 
ATOM     45  C26 CPB d   1      37.893  32.499  27.485  0.00  0.00    -0.069 A 
ATOM     46  H19 CPB d   1      38.083  30.740  26.216  0.00  0.00     0.083 H 
ATOM     47  H20 CPB d   1      37.611  31.928  28.362  0.00  0.00     0.085 H 
ENDBRANCH   4  37
BRANCH   9  48
ATOM     48  O5  CPB d   1      36.077  36.331  33.594  0.00  0.00    -0.360 OA
ATOM     49  H14 CPB d   1      36.197  35.427  33.860  0.00  0.00     0.217 HD
ENDBRANCH   9  48
TORSDOF 6
