REMARK  10 active torsions:
REMARK  status: ('A' for Active; 'I' for Inactive)
REMARK    1  A    between atoms: C_1  and  CA_2 
REMARK    2  A    between atoms: CA_2  and  CB_3 
REMARK    3  A    between atoms: CA_2  and  CD_5 
REMARK    4  A    between atoms: CB_3  and  CC_4 
REMARK    5  A    between atoms: CB_3  and  CK_10 
REMARK    6  A    between atoms: CD_5  and  CE_6 
REMARK    7  A    between atoms: CK_10  and  N_11 
REMARK    8  A    between atoms: N_11  and  S_14 
REMARK    9  A    between atoms: S_14  and  CF_15 
REMARK   10  A    between atoms: CI_20  and  CJ_21 
ROOT
ATOM      1  CK  TPX d   1      -9.619  21.095  36.817  0.00  0.00     0.016 C 
ATOM      2  H9  TPX d   1      -9.853  20.415  35.985  0.00  0.00     0.066 H 
ATOM      3  H10 TPX d   1      -9.711  20.553  37.770  0.00  0.00     0.066 H 
ENDROOT
BRANCH   1   4
ATOM      4  CB  TPX d   1     -10.641  22.164  36.816  0.00  0.00     0.056 C 
ATOM      5  H3  TPX d   1     -10.565  22.634  35.825  0.00  0.00     0.060 H 
BRANCH   4   6
ATOM      6  CA  TPX d   1     -10.456  23.270  37.769  0.00  0.00     0.011 C 
ATOM      7  H2  TPX d   1     -10.608  22.868  38.782  0.00  0.00     0.052 H 
BRANCH   6   8
ATOM      8  C   TPX d   1      -9.036  23.787  37.654  0.00  0.00     0.093 C 
ATOM      9  O   TPX d   1      -8.543  24.453  36.762  0.00  0.00    -0.306 OA
ATOM     10  H1  TPX d   1      -8.370  23.529  38.476  0.00  0.00     0.143 H 
ENDBRANCH   6   8
BRANCH   6  11
ATOM     11  CD  TPX d   1     -11.402  24.416  37.587  0.00  0.00    -0.058 C 
ATOM     12  H4  TPX d   1     -12.433  24.065  37.741  0.00  0.00     0.033 H 
ATOM     13  H5  TPX d   1     -11.299  24.815  36.567  0.00  0.00     0.033 H 
BRANCH  11  14
ATOM     14  CE  TPX d   1     -11.088  25.513  38.591  0.00  0.00    -0.076 C 
ATOM     15  H6  TPX d   1     -11.787  26.350  38.450  0.00  0.00     0.027 H 
ATOM     16  H7  TPX d   1     -10.058  25.866  38.438  0.00  0.00     0.027 H 
ATOM     17  H8  TPX d   1     -11.192  25.116  39.612  0.00  0.00     0.027 H 
ENDBRANCH  11  14
ENDBRANCH   6  11
ENDBRANCH   4   6
BRANCH   4  18
ATOM     18  CC  TPX d   1     -12.015  21.561  36.887  0.00  0.00     0.179 C 
ATOM     19  OA  TPX d   1     -12.526  21.191  35.798  0.00  0.00    -0.648 OA
ATOM     20  OB  TPX d   1     -12.555  21.445  38.003  0.00  0.00    -0.648 OA
ENDBRANCH   4  18
ENDBRANCH   1   4
BRANCH   1  21
ATOM     21  N   TPX d   1      -8.237  21.490  36.676  0.00  0.00    -0.315 N 
ATOM     22  H11 TPX d   1      -7.666  21.699  37.470  0.00  0.00     0.172 HD
BRANCH  21  23
ATOM     23  S   TPX d   1      -7.651  21.578  35.137  0.00  0.00     0.258 S 
ATOM     24  OC  TPX d   1      -8.579  22.217  34.294  0.00  0.00    -0.201 OA
ATOM     25  OD  TPX d   1      -6.314  22.031  35.218  0.00  0.00    -0.201 OA
BRANCH  23  26
ATOM     26  CF  TPX d   1      -7.525  19.854  34.737  0.00  0.00     0.079 C 
ATOM     27  CG1 TPX d   1      -6.085  19.659  34.023  0.00  0.00    -0.060 C 
ATOM     28  CH1 TPX d   1      -5.789  18.393  33.558  0.00  0.00    -0.076 C 
ATOM     29  H12 TPX d   1      -5.388  20.482  33.915  0.00  0.00     0.085 H 
ATOM     30  CI  TPX d   1      -6.772  17.422  33.521  0.00  0.00    -0.062 C 
ATOM     31  H14 TPX d   1      -4.785  18.160  33.222  0.00  0.00     0.084 H 
ATOM     32  CH2 TPX d   1      -8.050  17.721  33.950  0.00  0.00    -0.076 C 
ATOM     33  CG2 TPX d   1      -8.346  18.986  34.416  0.00  0.00    -0.060 C 
ATOM     34  H15 TPX d   1      -8.822  16.961  33.921  0.00  0.00     0.084 H 
ATOM     35  H13 TPX d   1      -9.395  19.243  34.509  0.00  0.00     0.085 H 
BRANCH  30  36
ATOM     36  CJ  TPX d   1      -6.451  16.046  33.014  0.00  0.00    -0.051 C 
ATOM     37  H16 TPX d   1      -5.392  16.001  32.721  0.00  0.00     0.033 H 
ATOM     38  H17 TPX d   1      -7.083  15.820  32.142  0.00  0.00     0.033 H 
ATOM     39  H18 TPX d   1      -6.643  15.309  33.807  0.00  0.00     0.033 H 
ENDBRANCH  30  36
ENDBRANCH  23  26
ENDBRANCH  21  23
ENDBRANCH   1  21
TORSDOF 10
