REMARK  10 active torsions:
REMARK  status: ('A' for Active; 'I' for Inactive)
REMARK    1  A    between atoms: CA_2  and  C_1 
REMARK    2  A    between atoms: CB_3  and  CA_2 
REMARK    3  A    between atoms: CA_2  and  CD_5 
REMARK    4  A    between atoms: CB_3  and  CC_4 
REMARK    5  A    between atoms: CK_14  and  CB_3 
REMARK    6  A    between atoms: CD_5  and  CE_6 
REMARK    7  A    between atoms: N_13  and  S_12 
REMARK    8  A    between atoms: S_12  and  CF_15 
REMARK    9  A    between atoms: N_13  and  CK_14 
REMARK   10  A    between atoms: CI_20  and  NJ_21 
ROOT
ATOM      1  CK  TPY d   1      -9.628  21.313  36.812  0.00  0.00     0.016 C 
ATOM      2  H10 TPY d   1      -9.872  20.639  35.977  0.00  0.00     0.066 H 
ATOM      3  H11 TPY d   1      -9.692  20.760  37.761  0.00  0.00     0.066 H 
ENDROOT
BRANCH   1   4
ATOM      4  CB  TPY d   1     -10.674  22.372  36.846  0.00  0.00     0.056 C 
ATOM      5  H3  TPY d   1     -10.634  22.895  35.879  0.00  0.00     0.060 H 
BRANCH   4   6
ATOM      6  CA  TPY d   1     -10.504  23.408  37.876  0.00  0.00     0.011 C 
ATOM      7  H2  TPY d   1     -10.617  22.919  38.855  0.00  0.00     0.052 H 
BRANCH   6   8
ATOM      8  C   TPY d   1      -9.126  24.001  37.790  0.00  0.00     0.093 C 
ATOM      9  O   TPY d   1      -8.660  24.641  36.856  0.00  0.00    -0.306 OA
ATOM     10  H1  TPY d   1      -8.474  23.845  38.648  0.00  0.00     0.143 H 
ENDBRANCH   6   8
BRANCH   6  11
ATOM     11  CD  TPY d   1     -11.503  24.536  37.806  0.00  0.00    -0.058 C 
ATOM     12  H4  TPY d   1     -12.502  24.139  38.041  0.00  0.00     0.033 H 
ATOM     13  H5  TPY d   1     -11.502  24.947  36.786  0.00  0.00     0.033 H 
BRANCH  11  14
ATOM     14  CE  TPY d   1     -11.179  25.656  38.785  0.00  0.00    -0.076 C 
ATOM     15  H6  TPY d   1     -11.934  26.451  38.695  0.00  0.00     0.027 H 
ATOM     16  H7  TPY d   1     -10.185  26.067  38.556  0.00  0.00     0.027 H 
ATOM     17  H8  TPY d   1     -11.184  25.259  39.811  0.00  0.00     0.027 H 
ENDBRANCH  11  14
ENDBRANCH   6  11
ENDBRANCH   4   6
BRANCH   4  18
ATOM     18  CC  TPY d   1     -12.003  21.685  36.938  0.00  0.00     0.179 C 
ATOM     19  OA  TPY d   1     -12.562  21.330  35.878  0.00  0.00    -0.648 OA
ATOM     20  OB  TPY d   1     -12.481  21.491  38.059  0.00  0.00    -0.648 OA
ENDBRANCH   4  18
ENDBRANCH   1   4
BRANCH   1  21
ATOM     21  N   TPY d   1      -8.256  21.721  36.646  0.00  0.00    -0.315 N 
ATOM     22  H9  TPY d   1      -7.690  21.888  37.453  0.00  0.00     0.172 HD
BRANCH  21  23
ATOM     23  S   TPY d   1      -7.614  21.914  35.161  0.00  0.00     0.258 S 
ATOM     24  OC  TPY d   1      -8.660  22.047  34.234  0.00  0.00    -0.201 OA
ATOM     25  OD  TPY d   1      -6.665  22.997  35.201  0.00  0.00    -0.201 OA
BRANCH  23  26
ATOM     26  CF  TPY d   1      -6.568  20.508  35.048  0.00  0.00     0.079 A 
ATOM     27  CG1 TPY d   1      -5.197  20.696  35.052  0.00  0.00    -0.058 A 
ATOM     28  CH1 TPY d   1      -4.335  19.606  34.972  0.00  0.00    -0.050 A 
ATOM     29  H12 TPY d   1      -4.792  21.699  35.118  0.00  0.00     0.086 H 
ATOM     30  CI  TPY d   1      -4.850  18.328  34.899  0.00  0.00     0.102 A 
ATOM     31  H14 TPY d   1      -3.262  19.761  34.967  0.00  0.00     0.087 H 
ATOM     32  CH2 TPY d   1      -6.215  18.181  34.900  0.00  0.00    -0.050 A 
ATOM     33  CG2 TPY d   1      -7.101  19.232  34.973  0.00  0.00    -0.058 A 
ATOM     34  H15 TPY d   1      -6.619  17.177  34.840  0.00  0.00     0.087 H 
ATOM     35  H13 TPY d   1      -8.172  19.067  34.972  0.00  0.00     0.086 H 
BRANCH  30  36
ATOM     36  NJ  TPY d   1      -3.987  17.099  34.826  0.00  0.00    -0.116 N 
ATOM     37  OE  TPY d   1      -4.630  16.032  34.751  0.00  0.00    -0.532 OA
ATOM     38  OF  TPY d   1      -2.768  17.308  34.848  0.00  0.00    -0.532 OA
ENDBRANCH  30  36
ENDBRANCH  23  26
ENDBRANCH  21  23
ENDBRANCH   1  21
TORSDOF 10
