REMARK  1 active torsions:
REMARK  status: ('A' for Active; 'I' for Inactive)
REMARK    1  A    between atoms: C1_5  and  O1_4 
ROOT
ATOM      1  H2  TBP d   1      43.869  -1.089  25.652  0.00  0.00     0.087 H 
ATOM      2  H3  TBP d   1      40.667   1.535  26.310  0.00  0.00     0.087 H 
ATOM      3  C1  TBP d   1      42.574   0.090  28.605  0.00  0.00     0.100 C 
ATOM      4  C2  TBP d   1      43.575  -0.549  27.749  0.00  0.00     0.046 C 
ATOM      5  C3  TBP d   1      43.263  -0.508  26.337  0.00  0.00    -0.047 C 
ATOM      6  C4  TBP d   1      42.208   0.254  25.822  0.00  0.00     0.013 C 
ATOM      7  C5  TBP d   1      41.473   0.933  26.715  0.00  0.00    -0.047 C 
ATOM      8  C6  TBP d   1      41.608   0.956  27.986  0.00  0.00     0.046 C 
ATOM      9 BR2  TBP d   1      44.917  -1.573  28.502  0.00  0.00    -0.048 Br
ATOM     10 BR4  TBP d   1      41.987   0.293  23.981  0.00  0.00    -0.051 Br
ATOM     11 BR6  TBP d   1      40.458   1.758  29.250  0.00  0.00    -0.048 Br
ENDROOT
BRANCH   3  12
ATOM     12  O1  TBP d   1      42.782   0.006  29.918  0.00  0.00    -0.358 OA
ATOM     13  H1  TBP d   1      43.466  -0.631  30.089  0.00  0.00     0.217 HD
ENDBRANCH   3  12
TORSDOF 1
