REMARK  9 active torsions:
REMARK  status: ('A' for Active; 'I' for Inactive)
REMARK    1  A    between atoms: O3A_8  and  PB_1 
REMARK    2  A    between atoms: PA_5  and  O3A_8 
REMARK    3  A    between atoms: PA_5  and  O5_9 
REMARK    4  A    between atoms: O5_9  and  C5_10 
REMARK    5  A    between atoms: C5_10  and  C4_11 
REMARK    6  A    between atoms: C3_13  and  O3_14 
REMARK    7  A    between atoms: C2_15  and  O2_16 
REMARK    8  A    between atoms: C1_17  and  N9_18 
REMARK    9  A    between atoms: C6_22  and  N6_23 
ROOT
ATOM      1  C4  ADP d   1      96.633  49.536  72.139  0.00  0.00     0.089 C 
ATOM      2  O4  ADP d   1      95.984  48.366  71.596  0.00  0.00    -0.353 OA
ATOM      3  C3  ADP d   1      95.516  50.241  72.914  0.00  0.00     0.091 C 
ATOM      4  C2  ADP d   1      94.388  50.042  71.855  0.00  0.00     0.105 C 
ATOM      5  C1  ADP d   1      94.655  48.595  71.401  0.00  0.00     0.139 C 
ATOM      6  H3  ADP d   1      96.999  50.201  71.343  0.00  0.00     0.090 H 
ATOM      7  H4  ADP d   1      95.298  49.770  73.884  0.00  0.00     0.091 H 
ATOM      8  H6  ADP d   1      93.367  50.229  72.218  0.00  0.00     0.093 H 
ATOM      9  H8  ADP d   1      94.450  48.551  70.321  0.00  0.00     0.122 H 
ENDROOT
BRANCH   5  10
ATOM     10  N9  ADP d   1      93.855  47.559  72.007  0.00  0.00    -0.294 N 
ATOM     11  C8  ADP d   1      94.225  46.671  72.956  0.00  0.00     0.071 A 
ATOM     12  N7  ADP d   1      93.404  45.721  73.200  0.00  0.00    -0.236 NA
ATOM     13  H9  ADP d   1      95.173  46.760  73.485  0.00  0.00     0.144 H 
ATOM     14  C5  ADP d   1      92.421  45.947  72.371  0.00  0.00     0.149 A 
ATOM     15  C6  ADP d   1      91.277  45.242  72.175  0.00  0.00     0.155 A 
ATOM     16  C4  ADP d   1      92.617  47.072  71.603  0.00  0.00     0.167 A 
ATOM     17  N1  ADP d   1      90.403  45.709  71.258  0.00  0.00    -0.222 NA
ATOM     18  C2  ADP d   1      90.705  46.855  70.560  0.00  0.00     0.091 A 
ATOM     19  N3  ADP d   1      91.805  47.572  70.678  0.00  0.00    -0.222 NA
ATOM     20  H12 ADP d   1      89.968  47.202  69.844  0.00  0.00     0.146 H 
BRANCH  15  21
ATOM     21  N6  ADP d   1      90.922  44.156  72.807  0.00  0.00    -0.382 N 
ATOM     22  H10 ADP d   1      90.028  43.697  72.580  0.00  0.00     0.157 HD
ATOM     23  H11 ADP d   1      91.536  43.758  73.532  0.00  0.00     0.157 HD
ENDBRANCH  15  21
ENDBRANCH   5  10
BRANCH   4  24
ATOM     24  O2  ADP d   1      94.789  50.888  70.759  0.00  0.00    -0.388 OA
ATOM     25  H7  ADP d   1      94.845  51.788  71.059  0.00  0.00     0.210 HD
ENDBRANCH   4  24
BRANCH   1  26
ATOM     26  C5  ADP d   1      97.827  49.030  72.944  0.00  0.00     0.058 C 
ATOM     27  H1  ADP d   1      98.198  48.102  72.485  0.00  0.00     0.079 H 
ATOM     28  H2  ADP d   1      98.620  49.792  72.922  0.00  0.00     0.079 H 
BRANCH  26  29
ATOM     29  O5  ADP d   1      97.481  48.769  74.286  0.00  0.00    -0.287 OA
BRANCH  29  30
ATOM     30  PA  ADP d   1      97.826  47.616  75.292  0.00  0.00     0.418 P 
ATOM     31  O1A ADP d   1      97.619  48.178  76.653  0.00  0.00    -0.624 OA
ATOM     32  O2A ADP d   1      97.033  46.376  75.211  0.00  0.00    -0.624 OA
BRANCH  30  33
ATOM     33  O3A ADP d   1      99.403  47.354  75.067  0.00  0.00    -0.173 OA
BRANCH  33  34
ATOM     34  PB  ADP d   1     100.409  46.251  75.689  0.00  0.00     0.431 P 
ATOM     35  O1B ADP d   1     101.528  46.342  74.548  0.00  0.00    -0.616 OA
ATOM     36  O2B ADP d   1      99.800  44.912  75.768  0.00  0.00    -0.616 OA
ATOM     37  O3B ADP d   1     100.758  46.711  77.049  0.00  0.00    -0.616 OA
ENDBRANCH  33  34
ENDBRANCH  30  33
ENDBRANCH  29  30
ENDBRANCH  26  29
ENDBRANCH   1  26
BRANCH   3  38
ATOM     38  O3  ADP d   1      95.787  51.650  73.081  0.00  0.00    -0.390 OA
ATOM     39  H5  ADP d   1      95.864  52.060  72.227  0.00  0.00     0.210 HD
ENDBRANCH   3  38
TORSDOF 9
