REMARK  1 active torsions:
REMARK  status: ('A' for Active; 'I' for Inactive)
REMARK    1  A    between atoms: C19_17  and  S21_21 
ROOT
ATOM      1  C1  INR d   1       5.479  42.288  49.591  0.00  0.00     0.047 A 
ATOM      2  C2  INR d   1       4.474  42.643  50.507  0.00  0.00     0.043 A 
ATOM      3  C3  INR d   1       3.185  42.041  50.488  0.00  0.00    -0.067 A 
ATOM      4  C4  INR d   1       2.939  41.052  49.489  0.00  0.00    -0.082 A 
ATOM      5  C5  INR d   1       3.962  40.688  48.549  0.00  0.00    -0.081 A 
ATOM      6  C6  INR d   1       5.251  41.307  48.589  0.00  0.00    -0.056 A 
ATOM      7  C8  INR d   1       5.139  43.688  51.353  0.00  0.00     0.212 A 
ATOM      8  O10 INR d   1       4.608  44.260  52.282  0.00  0.00    -0.285 OA
ATOM      9  C9  INR d   1       6.514  43.828  50.830  0.00  0.00     0.101 A 
ATOM     10  C11 INR d   1       7.575  44.609  51.186  0.00  0.00     0.075 A 
ATOM     11  C12 INR d   1       8.895  44.592  50.514  0.00  0.00     0.259 A 
ATOM     12  O13 INR d   1       9.167  43.886  49.543  0.00  0.00    -0.267 OA
ATOM     13  N14 INR d   1       9.694  45.429  51.104  0.00  0.00    -0.322 N 
ATOM     14  N7  INR d   1       6.596  42.991  49.815  0.00  0.00    -0.351 N 
ATOM     15  C15 INR d   1       7.776  45.632  52.303  0.00  0.00     0.010 A 
ATOM     16  C20 INR d   1       6.991  46.187  53.355  0.00  0.00    -0.046 A 
ATOM     17  C19 INR d   1       7.591  47.156  54.223  0.00  0.00     0.081 A 
ATOM     18  C18 INR d   1       8.941  47.558  54.040  0.00  0.00    -0.057 A 
ATOM     19  C17 INR d   1       9.716  47.006  52.984  0.00  0.00    -0.055 A 
ATOM     20  C16 INR d   1       9.111  46.047  52.134  0.00  0.00     0.046 A 
ATOM     21  H1  INR d   1       2.421  42.322  51.203  0.00  0.00     0.085 H 
ATOM     22  H2  INR d   1       1.969  40.570  49.439  0.00  0.00     0.083 H 
ATOM     23  H3  INR d   1       3.755  39.934  47.799  0.00  0.00     0.083 H 
ATOM     24  H4  INR d   1       6.026  41.037  47.880  0.00  0.00     0.086 H 
ATOM     25  H5  INR d   1      10.639  45.592  50.819  0.00  0.00     0.169 HD
ATOM     26  H6  INR d   1       7.446  42.887  49.243  0.00  0.00     0.166 HD
ATOM     27  H7  INR d   1       5.960  45.882  53.496  0.00  0.00     0.087 H 
ATOM     28  H8  INR d   1       9.382  48.289  54.708  0.00  0.00     0.086 H 
ATOM     29  H9  INR d   1      10.745  47.311  52.833  0.00  0.00     0.087 H 
ENDROOT
BRANCH  17  30
ATOM     30  S21 INR d   1       6.585  47.819  55.525  0.00  0.00     0.137 S 
ATOM     31  O22 INR d   1       5.563  48.627  54.891  0.00  0.00    -0.591 OA
ATOM     32  O23 INR d   1       6.190  46.745  56.409  0.00  0.00    -0.591 OA
ATOM     33  O24 INR d   1       7.483  48.751  56.254  0.00  0.00    -0.591 OA
ENDBRANCH  17  30
TORSDOF 1
