REMARK  14 active torsions:
REMARK  status: ('A' for Active; 'I' for Inactive)
REMARK    1  A    between atoms: C2_2  and  C1_1 
REMARK    2  A    between atoms: C3_3  and  C2_2 
REMARK    3  A    between atoms: C2_2  and  O1_25 
REMARK    4  A    between atoms: C3_3  and  C4_4 
REMARK    5  A    between atoms: N1_20  and  C3_3 
REMARK    6  A    between atoms: C4_4  and  C5_5 
REMARK    7  A    between atoms: C4_4  and  C6_6 
REMARK    8  A    between atoms: C8_8  and  C7_7 
REMARK       I    between atoms: C7_7  and  N1_20 
REMARK    9  A    between atoms: N2_21  and  C8_8 
REMARK   10  A    between atoms: N4_23  and  C10_10 
REMARK   11  A    between atoms: C12_12  and  C13_13 
REMARK   12  A    between atoms: C16_16  and  N5_24 
REMARK   13  A    between atoms: S1_33  and  C19_19 
REMARK   14  A    between atoms: N4_23  and  S1_33 
ROOT
ATOM      1  C9  TFI d   1     -13.880  19.617  39.370  0.00  0.00     0.278 C 
ATOM      2  C10 TFI d   1     -14.899  18.565  39.261  0.00  0.00     0.128 C 
ATOM      3  C11 TFI d   1     -14.486  17.319  38.944  0.00  0.00     0.036 C 
ATOM      4  C12 TFI d   1     -12.234  17.917  38.743  0.00  0.00     0.143 C 
ATOM      5  N2  TFI d   1     -12.555  19.209  39.176  0.00  0.00    -0.287 N 
ATOM      6  N3  TFI d   1     -13.171  17.001  38.660  0.00  0.00    -0.240 NA
ATOM      7  O3  TFI d   1     -14.172  20.785  39.638  0.00  0.00    -0.265 OA
ATOM      8  H12 TFI d   1     -15.228  16.523  38.910  0.00  0.00     0.118 H 
ENDROOT
BRANCH   5   9
ATOM      9  C8  TFI d   1     -11.460  20.143  39.462  0.00  0.00     0.078 C 
ATOM     10  H10 TFI d   1     -11.639  20.613  40.440  0.00  0.00     0.079 H 
ATOM     11  H11 TFI d   1     -10.514  19.583  39.492  0.00  0.00     0.079 H 
BRANCH   9  12
ATOM     12  C7  TFI d   1     -11.354  21.236  38.401  0.00  0.00     0.236 C 
ATOM     13  N1  TFI d   1     -10.567  22.249  38.767  0.00  0.00    -0.352 N 
ATOM     14  H20 TFI d   1     -10.141  22.228  39.672  0.00  0.00     0.163 HD
ATOM     15  O2  TFI d   1     -12.005  21.196  37.363  0.00  0.00    -0.272 OA
BRANCH  13  16
ATOM     16  C3  TFI d   1     -10.304  23.401  37.879  0.00  0.00     0.048 C 
ATOM     17  H2  TFI d   1     -10.684  23.133  36.882  0.00  0.00     0.077 H 
BRANCH  16  18
ATOM     18  C2  TFI d   1      -8.789  23.505  37.716  0.00  0.00     0.148 C 
ATOM     19  H1  TFI d   1      -8.327  23.419  38.710  0.00  0.00     0.100 H 
BRANCH  18  20
ATOM     20  C1  TFI d   1      -8.204  22.401  36.788  0.00  0.00     0.414 C 
ATOM     21  F1  TFI d   1      -8.442  21.171  37.225  0.00  0.00    -0.168 F 
ATOM     22  F2  TFI d   1      -6.891  22.479  36.640  0.00  0.00    -0.168 F 
ATOM     23  F3  TFI d   1      -8.712  22.468  35.571  0.00  0.00    -0.168 F 
ENDBRANCH  18  20
BRANCH  18  24
ATOM     24  O1  TFI d   1      -8.455  24.718  37.156  0.00  0.00    -0.384 OA
ATOM     25  H24 TFI d   1      -7.511  24.772  37.059  0.00  0.00     0.210 HD
ENDBRANCH  18  24
ENDBRANCH  16  18
BRANCH  16  26
ATOM     26  C4  TFI d   1     -11.140  24.634  38.290  0.00  0.00    -0.039 C 
ATOM     27  H3  TFI d   1     -10.796  25.458  37.647  0.00  0.00     0.042 H 
BRANCH  26  28
ATOM     28  C5  TFI d   1     -12.617  24.460  38.011  0.00  0.00    -0.071 C 
ATOM     29  H4  TFI d   1     -13.158  25.365  38.323  0.00  0.00     0.028 H 
ATOM     30  H5  TFI d   1     -12.997  23.594  38.573  0.00  0.00     0.028 H 
ATOM     31  H6  TFI d   1     -12.770  24.294  36.934  0.00  0.00     0.028 H 
ENDBRANCH  26  28
BRANCH  26  32
ATOM     32  C6  TFI d   1     -10.911  25.088  39.717  0.00  0.00    -0.071 C 
ATOM     33  H7  TFI d   1      -9.832  25.207  39.895  0.00  0.00     0.028 H 
ATOM     34  H8  TFI d   1     -11.316  24.336  40.410  0.00  0.00     0.028 H 
ATOM     35  H9  TFI d   1     -11.418  26.050  39.882  0.00  0.00     0.028 H 
ENDBRANCH  26  32
ENDBRANCH  16  26
ENDBRANCH  13  16
ENDBRANCH   9  12
ENDBRANCH   5   9
BRANCH   4  36
ATOM     36  C13 TFI d   1     -10.837  17.479  38.410  0.00  0.00     0.010 A 
ATOM     37  C14 TFI d   1     -10.117  18.082  37.363  0.00  0.00    -0.067 A 
ATOM     38  C15 TFI d   1      -8.852  17.647  37.063  0.00  0.00    -0.057 A 
ATOM     39  H13 TFI d   1     -10.562  18.890  36.794  0.00  0.00     0.085 H 
ATOM     40  C16 TFI d   1      -8.308  16.561  37.755  0.00  0.00     0.025 A 
ATOM     41  H14 TFI d   1      -8.275  18.144  36.291  0.00  0.00     0.086 H 
ATOM     42  C17 TFI d   1      -9.060  15.883  38.707  0.00  0.00    -0.057 A 
ATOM     43  C18 TFI d   1     -10.300  16.357  39.049  0.00  0.00    -0.067 A 
ATOM     44  H15 TFI d   1      -8.669  14.987  39.175  0.00  0.00     0.086 H 
ATOM     45  H16 TFI d   1     -10.870  15.857  39.823  0.00  0.00     0.085 H 
BRANCH  40  46
ATOM     46  N5  TFI d   1      -6.967  16.177  37.512  0.00  0.00    -0.399 N 
ATOM     47  H22 TFI d   1      -6.408  16.678  36.807  0.00  0.00     0.156 HD
ATOM     48  H23 TFI d   1      -6.551  15.397  38.040  0.00  0.00     0.156 HD
ENDBRANCH  40  46
ENDBRANCH   4  36
BRANCH   2  49
ATOM     49  N4  TFI d   1     -16.242  18.951  39.516  0.00  0.00    -0.278 N 
ATOM     50  H21 TFI d   1     -16.579  19.793  39.094  0.00  0.00     0.179 HD
BRANCH  49  51
ATOM     51  S1  TFI d   1     -17.263  18.101  40.455  0.00  0.00     0.227 S 
ATOM     52  O4  TFI d   1     -18.472  18.810  40.507  0.00  0.00    -0.206 OA
ATOM     53  O5  TFI d   1     -17.240  16.779  40.002  0.00  0.00    -0.206 OA
BRANCH  51  54
ATOM     54  C19 TFI d   1     -16.573  18.120  42.037  0.00  0.00     0.033 C 
ATOM     55  H17 TFI d   1     -17.220  17.558  42.726  0.00  0.00     0.051 H 
ATOM     56  H18 TFI d   1     -16.483  19.160  42.385  0.00  0.00     0.051 H 
ATOM     57  H19 TFI d   1     -15.577  17.655  42.008  0.00  0.00     0.051 H 
ENDBRANCH  51  54
ENDBRANCH  49  51
ENDBRANCH   2  49
TORSDOF 14
