REMARK WARNING: 32 MAX_TORS EXCEEDED!!!
REMARK  39 active torsions:
REMARK  status: ('A' for Active; 'I' for Inactive)
REMARK    1  A    between atoms: N_1  and  CA_2 
REMARK    2  A    between atoms: CA_2  and  C_3 
REMARK    3  A    between atoms: CA_2  and  CB_5 
REMARK       I    between atoms: C_3  and  N_9 
REMARK    4  A    between atoms: CB_5  and  CG_6 
REMARK    5  A    between atoms: N_9  and  CA_10 
REMARK    6  A    between atoms: CA_10  and  C_11 
REMARK    7  A    between atoms: CA_10  and  CB_13 
REMARK       I    between atoms: C_11  and  N_21 
REMARK    8  A    between atoms: CB_13  and  CG_14 
REMARK    9  A    between atoms: CZ_19  and  OH_20 
REMARK   10  A    between atoms: N_21  and  CA_22 
REMARK   11  A    between atoms: CA_22  and  C_23 
REMARK   12  A    between atoms: CA_22  and  CB_25 
REMARK       I    between atoms: C_23  and  N_30 
REMARK   13  A    between atoms: CB_25  and  CG_26 
REMARK   14  A    between atoms: CG_26  and  CD_27 
REMARK   15  A    between atoms: CA_31  and  C_32 
REMARK       I    between atoms: C_32  and  N_37 
REMARK   16  A    between atoms: N_37  and  CA_38 
REMARK   17  A    between atoms: CA_38  and  C_39 
REMARK   18  A    between atoms: CA_38  and  CB_41 
REMARK       I    between atoms: C_39  and  N_45 
REMARK   19  A    between atoms: CB_41  and  CG1_42 
REMARK   20  A    between atoms: CB_41  and  CG2_43 
REMARK   21  A    between atoms: CG1_42  and  CD1_44 
REMARK   22  A    between atoms: CA_46  and  C_47 
REMARK       I    between atoms: C_47  and  N_52 
REMARK   23  A    between atoms: N_52  and  CA_53 
REMARK   24  A    between atoms: CA_53  and  C_54 
REMARK   25  A    between atoms: CA_53  and  CB_56 
REMARK       I    between atoms: C_54  and  N_61 
REMARK   26  A    between atoms: CB_56  and  CG_57 
REMARK   27  A    between atoms: CG_57  and  CD_58 
REMARK   28  A    between atoms: N_61  and  CA_62 
REMARK   29  A    between atoms: CA_62  and  C_63 
REMARK   30  A    between atoms: CA_62  and  CB_65 
REMARK       I    between atoms: C_63  and  N_70 
REMARK   31  A    between atoms: CB_65  and  CG_66 
REMARK   32  A    between atoms: CG_66  and  CD_67 
REMARK   33  A    between atoms: N_70  and  CA_71 
REMARK   34  A    between atoms: CA_71  and  C_72 
REMARK   35  A    between atoms: CA_71  and  CB_74 
REMARK       I    between atoms: C_72  and  N_75 
REMARK   36  A    between atoms: N_75  and  CA_76 
REMARK   37  A    between atoms: CA_76  and  C_77 
REMARK   38  A    between atoms: CA_76  and  CB_79 
REMARK   39  A    between atoms: CB_79  and  CG_80 
ROOT
ATOM      1  CA  ILE d   1      18.468  -1.032  38.796  0.00  0.00     0.092 C 
ATOM      2  H30 ILE d   1      19.408  -0.545  38.498  0.00  0.00     0.088 H 
ENDROOT
BRANCH   1   3
ATOM      3  N   ILE d   1      18.679  -2.463  38.912  0.00  0.00    -0.346 N 
ATOM      4  C   PRO d   1      19.810  -2.961  39.388  0.00  0.00     0.241 C 
ATOM      5  O   PRO d   1      20.762  -2.258  39.730  0.00  0.00    -0.271 OA
ATOM      6  H29 ILE d   1      17.953  -3.088  38.626  0.00  0.00     0.163 HD
BRANCH   4   7
ATOM      7  CA  PRO d   1      19.866  -4.481  39.470  0.00  0.00     0.091 C 
ATOM      8  N   PRO d   1      21.134  -5.114  39.102  0.00  0.00    -0.337 N 
ATOM      9  C   GLU d   1      21.635  -4.978  37.868  0.00  0.00     0.243 C 
ATOM     10  CD  PRO d   1      21.673  -5.909  40.220  0.00  0.00    -0.001 C 
ATOM     11  O   GLU d   1      21.047  -4.333  37.005  0.00  0.00    -0.271 OA
ATOM     12  CG  PRO d   1      20.996  -5.260  41.414  0.00  0.00    -0.048 C 
ATOM     13  H27 PRO d   1      22.768  -5.821  40.283  0.00  0.00     0.064 H 
ATOM     14  H28 PRO d   1      21.395  -6.969  40.129  0.00  0.00     0.064 H 
ATOM     15  CB  PRO d   1      19.613  -5.011  40.886  0.00  0.00    -0.036 C 
ATOM     16  H25 PRO d   1      20.978  -5.937  42.281  0.00  0.00     0.035 H 
ATOM     17  H26 PRO d   1      21.493  -4.319  41.694  0.00  0.00     0.035 H 
ATOM     18  H23 PRO d   1      19.028  -5.942  40.859  0.00  0.00     0.036 H 
ATOM     19  H24 PRO d   1      19.086  -4.264  41.498  0.00  0.00     0.036 H 
ATOM     20  H22 PRO d   1      19.082  -4.859  38.797  0.00  0.00     0.087 H 
BRANCH   9  21
ATOM     21  CA  GLU d   1      22.957  -5.682  37.570  0.00  0.00     0.090 C 
ATOM     22  H17 GLU d   1      23.167  -6.420  38.358  0.00  0.00     0.087 H 
BRANCH  21  23
ATOM     23  N   GLU d   1      22.805  -6.350  36.296  0.00  0.00    -0.346 N 
ATOM     24  C   TYR d   1      21.904  -7.309  36.133  0.00  0.00     0.241 C 
ATOM     25  O   TYR d   1      21.175  -7.702  37.045  0.00  0.00    -0.271 OA
ATOM     26  H16 GLU d   1      23.387  -6.085  35.528  0.00  0.00     0.163 HD
BRANCH  24  27
ATOM     27  CA  TYR d   1      21.802  -7.905  34.733  0.00  0.00     0.093 C 
ATOM     28  H8  TYR d   1      22.621  -7.489  34.127  0.00  0.00     0.088 H 
BRANCH  27  29
ATOM     29  N   TYR d   1      21.932  -9.357  34.707  0.00  0.00    -0.346 N 
ATOM     30  C   ASP d   1      23.057  -9.955  34.322  0.00  0.00     0.249 C 
ATOM     31  O   ASP d   1      24.062  -9.336  33.976  0.00  0.00    -0.271 OA
ATOM     32  H7  TYR d   1      21.154  -9.919  34.986  0.00  0.00     0.163 HD
BRANCH  30  33
ATOM     33  CA  ASP d   1      23.049 -11.483  34.343  0.00  0.00     0.185 C 
ATOM     34  H4  ASP d   1      23.266 -11.812  35.370  0.00  0.00     0.100 H 
BRANCH  33  35
ATOM     35  N   ASP d   1      21.721 -12.031  33.949  0.00  0.00    -0.066 N 
ATOM     36  H1  ASP d   1      21.752 -13.038  33.974  0.00  0.00     0.275 HD
ATOM     37  H2  ASP d   1      21.495 -11.725  33.016  0.00  0.00     0.275 HD
ATOM     38  H3  ASP d   1      21.017 -11.701  34.591  0.00  0.00     0.275 HD
ENDBRANCH  33  35
BRANCH  33  39
ATOM     39  CB  ASP d   1      24.141 -12.037  33.414  0.00  0.00     0.050 C 
ATOM     40  H5  ASP d   1      24.181 -13.130  33.532  0.00  0.00     0.052 H 
ATOM     41  H6  ASP d   1      25.107 -11.601  33.709  0.00  0.00     0.052 H 
BRANCH  39  42
ATOM     42  CG  ASP d   1      23.892 -11.716  31.943  0.00  0.00     0.175 C 
ATOM     43  OD1 ASP d   1      22.713 -11.673  31.529  0.00  0.00    -0.648 OA
ATOM     44  OD2 ASP d   1      24.879 -11.528  31.195  0.00  0.00    -0.648 OA
ENDBRANCH  39  42
ENDBRANCH  33  39
ENDBRANCH  30  33
ENDBRANCH  27  29
BRANCH  27  45
ATOM     45  CB  TYR d   1      20.462  -7.462  34.114  0.00  0.00    -0.014 C 
ATOM     46  H9  TYR d   1      20.284  -6.413  34.392  0.00  0.00     0.043 H 
ATOM     47  H10 TYR d   1      19.664  -8.093  34.532  0.00  0.00     0.043 H 
BRANCH  45  48
ATOM     48  CG  TYR d   1      20.410  -7.568  32.602  0.00  0.00    -0.056 A 
ATOM     49  CD1 TYR d   1      20.076  -8.771  31.978  0.00  0.00    -0.074 A 
ATOM     50  CE1 TYR d   1      20.111  -8.900  30.585  0.00  0.00    -0.051 A 
ATOM     51  H11 TYR d   1      19.784  -9.621  32.584  0.00  0.00     0.084 H 
ATOM     52  CZ  TYR d   1      20.486  -7.811  29.805  0.00  0.00     0.065 A 
ATOM     53  H13 TYR d   1      19.848  -9.842  30.117  0.00  0.00     0.087 H 
ATOM     54  CE2 TYR d   1      20.812  -6.597  30.402  0.00  0.00    -0.051 A 
ATOM     55  CD2 TYR d   1      20.771  -6.482  31.795  0.00  0.00    -0.074 A 
ATOM     56  H14 TYR d   1      21.096  -5.747  29.792  0.00  0.00     0.087 H 
ATOM     57  H12 TYR d   1      21.023  -5.535  32.258  0.00  0.00     0.084 H 
BRANCH  52  58
ATOM     58  OH  TYR d   1      20.576  -7.951  28.441  0.00  0.00    -0.361 OA
ATOM     59  H15 TYR d   1      20.320  -8.833  28.197  0.00  0.00     0.217 HD
ENDBRANCH  52  58
ENDBRANCH  45  48
ENDBRANCH  27  45
ENDBRANCH  24  27
ENDBRANCH  21  23
BRANCH  21  60
ATOM     60  CB  GLU d   1      24.113  -4.690  37.496  0.00  0.00    -0.029 C 
ATOM     61  H18 GLU d   1      24.121  -4.248  36.489  0.00  0.00     0.037 H 
ATOM     62  H19 GLU d   1      25.050  -5.242  37.662  0.00  0.00     0.037 H 
BRANCH  60  63
ATOM     63  CG  GLU d   1      24.046  -3.572  38.497  0.00  0.00     0.018 C 
ATOM     64  H20 GLU d   1      23.867  -3.998  39.495  0.00  0.00     0.049 H 
ATOM     65  H21 GLU d   1      23.214  -2.904  38.229  0.00  0.00     0.049 H 
BRANCH  63  66
ATOM     66  CD  GLU d   1      25.336  -2.764  38.530  0.00  0.00     0.172 C 
ATOM     67  OE1 GLU d   1      26.011  -2.673  37.488  0.00  0.00    -0.648 OA
ATOM     68  OE2 GLU d   1      25.673  -2.216  39.603  0.00  0.00    -0.648 OA
ENDBRANCH  63  66
ENDBRANCH  60  63
ENDBRANCH  21  60
ENDBRANCH   9  21
ENDBRANCH   4   7
ENDBRANCH   1   3
BRANCH   1  69
ATOM     69  C   ILE d   1      18.027  -0.504  40.161  0.00  0.00     0.243 C 
ATOM     70  O   ILE d   1      16.881  -0.688  40.577  0.00  0.00    -0.271 OA
ATOM     71  N   PRO d   1      18.931   0.179  40.872  0.00  0.00    -0.337 N 
ATOM     72  CA  PRO d   1      18.629   0.727  42.198  0.00  0.00     0.091 C 
ATOM     73  CD  PRO d   1      20.208   0.719  40.369  0.00  0.00    -0.001 C 
ATOM     74  CB  PRO d   1      19.920   1.454  42.561  0.00  0.00    -0.036 C 
ATOM     75  H40 PRO d   1      18.439  -0.092  42.908  0.00  0.00     0.087 H 
ATOM     76  CG  PRO d   1      20.402   1.941  41.235  0.00  0.00    -0.048 C 
ATOM     77  H41 PRO d   1      20.647   0.768  43.020  0.00  0.00     0.036 H 
ATOM     78  H42 PRO d   1      19.725   2.293  43.245  0.00  0.00     0.036 H 
ATOM     79  H43 PRO d   1      21.460   2.238  41.278  0.00  0.00     0.035 H 
ATOM     80  H44 PRO d   1      19.798   2.787  40.875  0.00  0.00     0.035 H 
ATOM     81  H45 PRO d   1      20.134   0.992  39.306  0.00  0.00     0.064 H 
ATOM     82  H46 PRO d   1      21.028  -0.002  40.507  0.00  0.00     0.064 H 
BRANCH  72  83
ATOM     83  C   PRO d   1      17.429   1.658  42.219  0.00  0.00     0.241 C 
ATOM     84  O   PRO d   1      17.240   2.437  41.288  0.00  0.00    -0.271 OA
ATOM     85  N   GLU d   1      16.613   1.575  43.272  0.00  0.00    -0.346 N 
ATOM     86  H47 GLU d   1      16.795   0.899  43.986  0.00  0.00     0.163 HD
BRANCH  85  87
ATOM     87  CA  GLU d   1      15.457   2.461  43.394  0.00  0.00     0.090 C 
ATOM     88  H48 GLU d   1      14.724   2.254  42.600  0.00  0.00     0.087 H 
BRANCH  87  89
ATOM     89  C   GLU d   1      16.029   3.860  43.262  0.00  0.00     0.241 C 
ATOM     90  O   GLU d   1      17.240   4.021  43.112  0.00  0.00    -0.271 OA
ATOM     91  N   GLU d   1      15.185   4.875  43.371  0.00  0.00    -0.346 N 
ATOM     92  H53 GLU d   1      14.222   4.701  43.576  0.00  0.00     0.163 HD
BRANCH  91  93
ATOM     93  CA  GLU d   1      15.652   6.246  43.194  0.00  0.00     0.090 C 
ATOM     94  H54 GLU d   1      14.956   6.967  43.648  0.00  0.00     0.087 H 
BRANCH  93  95
ATOM     95  C   GLU d   1      15.698   6.378  41.669  0.00  0.00     0.241 C 
ATOM     96  O   GLU d   1      15.031   7.237  41.094  0.00  0.00    -0.271 OA
ATOM     97  N   ALA d   1      16.468   5.498  41.025  0.00  0.00    -0.346 N 
ATOM     98  H59 ALA d   1      16.970   4.815  41.555  0.00  0.00     0.163 HD
BRANCH  97  99
ATOM     99  CA  ALA d   1      16.601   5.501  39.569  0.00  0.00     0.086 C 
ATOM    100  H60 ALA d   1      17.040   6.463  39.266  0.00  0.00     0.086 H 
BRANCH  99 101
ATOM    101  C   ALA d   1      15.240   5.361  38.890  0.00  0.00     0.240 C 
ATOM    102  O   ALA d   1      14.977   6.011  37.880  0.00  0.00    -0.271 OA
ATOM    103  N   PHE d   1      14.376   4.512  39.437  0.00  0.00    -0.344 N 
ATOM    104  H64 PHE d   1      14.644   3.990  40.247  0.00  0.00     0.163 HD
BRANCH 103 105
ATOM    105  CA  PHE d   1      13.045   4.331  38.874  0.00  0.00     0.100 C 
ATOM    106  H65 PHE d   1      13.131   4.071  37.809  0.00  0.00     0.090 H 
BRANCH 105 107
ATOM    107  C   PHE d   1      12.286   5.645  39.022  0.00  0.00     0.197 C 
ATOM    108  O   PHE d   1      11.783   6.156  38.007  0.00  0.00    -0.646 OA
ATOM    109  O'' PHE d   1      12.197   6.146  40.163  0.00  0.00    -0.646 OA
ENDBRANCH 105 107
BRANCH 105 110
ATOM    110  CB  PHE d   1      12.285   3.213  39.605  0.00  0.00    -0.013 C 
ATOM    111  H66 PHE d   1      11.219   3.295  39.346  0.00  0.00     0.043 H 
ATOM    112  H67 PHE d   1      12.412   3.360  40.688  0.00  0.00     0.043 H 
BRANCH 110 113
ATOM    113  CG  PHE d   1      12.748   1.825  39.261  0.00  0.00    -0.056 A 
ATOM    114  CD1 PHE d   1      14.028   1.400  39.593  0.00  0.00    -0.077 A 
ATOM    115  CE1 PHE d   1      14.453   0.112  39.283  0.00  0.00    -0.082 A 
ATOM    116  H68 PHE d   1      14.704   2.080  40.099  0.00  0.00     0.084 H 
ATOM    117  CZ  PHE d   1      13.592  -0.763  38.629  0.00  0.00    -0.083 A 
ATOM    118  H70 PHE d   1      15.453  -0.209  39.551  0.00  0.00     0.083 H 
ATOM    119  CE2 PHE d   1      12.312  -0.349  38.292  0.00  0.00    -0.082 A 
ATOM    120  H72 PHE d   1      13.921  -1.766  38.383  0.00  0.00     0.083 H 
ATOM    121  CD2 PHE d   1      11.897   0.942  38.607  0.00  0.00    -0.077 A 
ATOM    122  H71 PHE d   1      11.637  -1.029  37.785  0.00  0.00     0.083 H 
ATOM    123  H69 PHE d   1      10.897   1.263  38.339  0.00  0.00     0.084 H 
ENDBRANCH 110 113
ENDBRANCH 105 110
ENDBRANCH 103 105
ENDBRANCH  99 101
BRANCH  99 124
ATOM    124  CB  ALA d   1      17.537   4.381  39.118  0.00  0.00    -0.049 C 
ATOM    125  H61 ALA d   1      17.626   4.397  38.022  0.00  0.00     0.030 H 
ATOM    126  H62 ALA d   1      17.129   3.411  39.439  0.00  0.00     0.030 H 
ATOM    127  H63 ALA d   1      18.529   4.529  39.569  0.00  0.00     0.030 H 
ENDBRANCH  99 124
ENDBRANCH  97  99
ENDBRANCH  93  95
BRANCH  93 128
ATOM    128  CB  GLU d   1      17.068   6.456  43.763  0.00  0.00    -0.029 C 
ATOM    129  H55 GLU d   1      17.303   7.529  43.696  0.00  0.00     0.037 H 
ATOM    130  H56 GLU d   1      17.771   5.887  43.137  0.00  0.00     0.037 H 
BRANCH 128 131
ATOM    131  CG  GLU d   1      17.273   6.024  45.204  0.00  0.00     0.018 C 
ATOM    132  H57 GLU d   1      16.853   5.016  45.335  0.00  0.00     0.049 H 
ATOM    133  H58 GLU d   1      16.747   6.729  45.864  0.00  0.00     0.049 H 
BRANCH 131 134
ATOM    134  CD  GLU d   1      18.741   5.996  45.588  0.00  0.00     0.172 C 
ATOM    135  OE1 GLU d   1      19.397   7.055  45.511  0.00  0.00    -0.648 OA
ATOM    136  OE2 GLU d   1      19.241   4.913  45.963  0.00  0.00    -0.648 OA
ENDBRANCH 131 134
ENDBRANCH 128 131
ENDBRANCH  93 128
ENDBRANCH  91  93
ENDBRANCH  87  89
BRANCH  87 137
ATOM    137  CB  GLU d   1      14.790   2.327  44.763  0.00  0.00    -0.029 C 
ATOM    138  H49 GLU d   1      14.728   3.329  45.212  0.00  0.00     0.037 H 
ATOM    139  H50 GLU d   1      15.424   1.683  45.390  0.00  0.00     0.037 H 
BRANCH 137 140
ATOM    140  CG  GLU d   1      13.394   1.734  44.740  0.00  0.00     0.018 C 
ATOM    141  H51 GLU d   1      12.870   2.094  43.842  0.00  0.00     0.049 H 
ATOM    142  H52 GLU d   1      12.853   2.066  45.638  0.00  0.00     0.049 H 
BRANCH 140 143
ATOM    143  CD  GLU d   1      13.418   0.225  44.717  0.00  0.00     0.172 C 
ATOM    144  OE1 GLU d   1      14.162  -0.355  45.540  0.00  0.00    -0.648 OA
ATOM    145  OE2 GLU d   1      12.694  -0.381  43.893  0.00  0.00    -0.648 OA
ENDBRANCH 140 143
ENDBRANCH 137 140
ENDBRANCH  87 137
ENDBRANCH  85  87
ENDBRANCH  72  83
ENDBRANCH   1  69
BRANCH   1 146
ATOM    146  CB  ILE d   1      17.390  -0.731  37.745  0.00  0.00    -0.030 C 
ATOM    147  H31 ILE d   1      16.440  -1.177  38.074  0.00  0.00     0.043 H 
BRANCH 146 148
ATOM    148  CG1 ILE d   1      17.791  -1.370  36.407  0.00  0.00    -0.063 C 
ATOM    149  H32 ILE d   1      17.938  -2.449  36.565  0.00  0.00     0.033 H 
ATOM    150  H33 ILE d   1      18.735  -0.916  36.072  0.00  0.00     0.033 H 
BRANCH 148 151
ATOM    151  CD1 ILE d   1      16.761  -1.182  35.325  0.00  0.00    -0.076 C 
ATOM    152  H37 ILE d   1      17.110  -1.662  34.399  0.00  0.00     0.027 H 
ATOM    153  H38 ILE d   1      16.609  -0.107  35.146  0.00  0.00     0.027 H 
ATOM    154  H39 ILE d   1      15.811  -1.640  35.639  0.00  0.00     0.027 H 
ENDBRANCH 148 151
ENDBRANCH 146 148
BRANCH 146 155
ATOM    155  CG2 ILE d   1      17.195   0.763  37.612  0.00  0.00    -0.071 C 
ATOM    156  H34 ILE d   1      16.910   1.184  38.587  0.00  0.00     0.028 H 
ATOM    157  H35 ILE d   1      16.400   0.965  36.879  0.00  0.00     0.028 H 
ATOM    158  H36 ILE d   1      18.133   1.227  37.273  0.00  0.00     0.028 H 
ENDBRANCH 146 155
ENDBRANCH   1 146
TORSDOF 39
