REMARK  3 active torsions:
REMARK  status: ('A' for Active; 'I' for Inactive)
REMARK    1  A    between atoms: C2_2  and  C1_1 
REMARK    2  A    between atoms: C1_1  and  P_9 
REMARK       I    between atoms: C2_2  and  N3_3 
REMARK    3  A    between atoms: N3_3  and  O3_4 
ROOT
ATOM      1  C1  PAH d   1      19.021   5.983  20.295  0.00  0.00     0.114 C 
ATOM      2  H1  PAH d   1      19.516   6.918  19.995  0.00  0.00     0.068 H 
ATOM      3  H2  PAH d   1      19.680   5.131  20.072  0.00  0.00     0.068 H 
ENDROOT
BRANCH   1   4
ATOM      4  C2  PAH d   1      17.762   5.833  19.486  0.00  0.00     0.253 C 
ATOM      5  N3  PAH d   1      17.363   4.628  19.128  0.00  0.00    -0.237 N 
ATOM      6  H3  PAH d   1      17.825   3.791  19.422  0.00  0.00     0.197 HD
ATOM      7  O2  PAH d   1      17.076   6.869  19.115  0.00  0.00    -0.271 OA
BRANCH   5   8
ATOM      8  O3  PAH d   1      16.254   4.625  18.314  0.00  0.00    -0.287 OA
ATOM      9  H4  PAH d   1      16.446   5.106  17.517  0.00  0.00     0.244 HD
ENDBRANCH   5   8
ENDBRANCH   1   4
BRANCH   1  10
ATOM     10  P   PAH d   1      18.734   6.036  22.140  0.00  0.00     0.268 P 
ATOM     11  O3P PAH d   1      19.964   6.690  22.851  0.00  0.00    -0.639 OA
ATOM     12  O2P PAH d   1      17.485   6.878  22.446  0.00  0.00    -0.639 OA
ATOM     13  O1P PAH d   1      18.552   4.609  22.693  0.00  0.00    -0.639 OA
ENDBRANCH   1  10
TORSDOF 3
