REMARK  8 active torsions:
REMARK  status: ('A' for Active; 'I' for Inactive)
REMARK    1  A    between atoms: O1_14  and  C1_1 
REMARK    2  A    between atoms: C2_2  and  O2_15 
REMARK    3  A    between atoms: C3_3  and  O3_16 
REMARK    4  A    between atoms: C4_4  and  O4_17 
REMARK    5  A    between atoms: C5_5  and  C6_6 
REMARK    6  A    between atoms: C6_6  and  O6_19 
REMARK    7  A    between atoms: O1_14  and  C7_7 
REMARK    8  A    between atoms: C9_9  and  N1_13 
ROOT
ATOM      1  C1  GAA d   1      30.716  12.927  23.788  0.00  0.00     0.164 C 
ATOM      2  C2  GAA d   1      29.784  12.491  22.670  0.00  0.00     0.110 C 
ATOM      3  C3  GAA d   1      28.669  13.559  22.487  0.00  0.00     0.092 C 
ATOM      4  C4  GAA d   1      27.933  13.703  23.807  0.00  0.00     0.090 C 
ATOM      5  C5  GAA d   1      28.940  14.112  24.835  0.00  0.00     0.089 C 
ATOM      6  O5  GAA d   1      30.006  13.146  25.003  0.00  0.00    -0.348 OA
ATOM      7  H1  GAA d   1      31.498  12.171  23.950  0.00  0.00     0.134 H 
ATOM      8  H2  GAA d   1      29.333  11.514  22.897  0.00  0.00     0.094 H 
ATOM      9  H3  GAA d   1      29.170  14.513  22.265  0.00  0.00     0.091 H 
ATOM     10  H4  GAA d   1      27.167  14.487  23.714  0.00  0.00     0.091 H 
ATOM     11  H5  GAA d   1      29.357  15.100  24.590  0.00  0.00     0.090 H 
ENDROOT
BRANCH   1  12
ATOM     12  O1  GAA d   1      31.292  14.169  23.340  0.00  0.00    -0.318 OA
BRANCH  12  13
ATOM     13  C7  GAA d   1      32.319  14.731  24.169  0.00  0.00     0.074 A 
ATOM     14  C8  GAA d   1      31.922  15.559  25.187  0.00  0.00    -0.019 A 
ATOM     15  C9  GAA d   1      32.905  16.122  26.011  0.00  0.00     0.105 A 
ATOM     16  H8  GAA d   1      30.872  15.773  25.350  0.00  0.00     0.091 H 
ATOM     17  C10 GAA d   1      34.273  15.817  25.755  0.00  0.00    -0.051 A 
ATOM     18  C11 GAA d   1      34.633  14.966  24.696  0.00  0.00    -0.078 A 
ATOM     19  H9  GAA d   1      35.045  16.246  26.384  0.00  0.00     0.087 H 
ATOM     20  C12 GAA d   1      33.637  14.409  23.881  0.00  0.00    -0.051 A 
ATOM     21  H10 GAA d   1      35.677  14.741  24.510  0.00  0.00     0.083 H 
ATOM     22  H11 GAA d   1      33.888  13.751  23.057  0.00  0.00     0.087 H 
BRANCH  15  23
ATOM     23  N1  GAA d   1      32.514  17.001  27.113  0.00  0.00    -0.116 N 
ATOM     24  O7  GAA d   1      33.361  17.510  27.878  0.00  0.00    -0.532 OA
ATOM     25  O8  GAA d   1      31.302  17.261  27.335  0.00  0.00    -0.532 OA
ENDBRANCH  15  23
ENDBRANCH  12  13
ENDBRANCH   1  12
BRANCH   2  26
ATOM     26  O2  GAA d   1      30.554  12.413  21.544  0.00  0.00    -0.388 OA
ATOM     27  H12 GAA d   1      30.934  13.265  21.362  0.00  0.00     0.210 HD
ENDBRANCH   2  26
BRANCH   5  28
ATOM     28  C6  GAA d   1      28.210  14.128  26.107  0.00  0.00     0.043 C 
ATOM     29  H6  GAA d   1      28.003  13.109  26.466  0.00  0.00     0.078 H 
ATOM     30  H7  GAA d   1      27.266  14.686  26.023  0.00  0.00     0.078 H 
BRANCH  28  31
ATOM     31  O6  GAA d   1      29.117  14.784  26.931  0.00  0.00    -0.398 OA
ATOM     32  H15 GAA d   1      29.927  14.289  26.966  0.00  0.00     0.209 HD
ENDBRANCH  28  31
ENDBRANCH   5  28
BRANCH   3  33
ATOM     33  O3  GAA d   1      27.749  13.332  21.438  0.00  0.00    -0.390 OA
ATOM     34  H13 GAA d   1      28.215  13.297  20.611  0.00  0.00     0.210 HD
ENDBRANCH   3  33
BRANCH   4  35
ATOM     35  O4  GAA d   1      27.295  12.487  24.170  0.00  0.00    -0.390 OA
ATOM     36  H14 GAA d   1      26.670  12.246  23.497  0.00  0.00     0.210 HD
ENDBRANCH   4  35
TORSDOF 8
