REMARK  8 active torsions:
REMARK  status: ('A' for Active; 'I' for Inactive)
REMARK    1  A    between atoms: O1_14  and  C1_1 
REMARK    2  A    between atoms: C2_2  and  O2_15 
REMARK    3  A    between atoms: C3_3  and  O3_16 
REMARK    4  A    between atoms: C4_4  and  O4_17 
REMARK    5  A    between atoms: C5_5  and  C6_6 
REMARK    6  A    between atoms: C6_6  and  O6_19 
REMARK    7  A    between atoms: O1_14  and  C7_7 
REMARK    8  A    between atoms: C10_10  and  N1_13 
ROOT
ATOM      1  C1  GAT d   1     -20.102  19.887  14.985  0.00  0.00     0.164 C 
ATOM      2  C2  GAT d   1     -19.316  21.039  15.603  0.00  0.00     0.110 C 
ATOM      3  C3  GAT d   1     -17.888  21.103  15.137  0.00  0.00     0.092 C 
ATOM      4  C4  GAT d   1     -17.238  19.773  15.392  0.00  0.00     0.090 C 
ATOM      5  C5  GAT d   1     -18.080  18.655  14.706  0.00  0.00     0.089 C 
ATOM      6  O5  GAT d   1     -19.440  18.673  15.230  0.00  0.00    -0.348 OA
ATOM      7  H1  GAT d   1     -21.107  19.857  15.431  0.00  0.00     0.134 H 
ATOM      8  H2  GAT d   1     -19.356  20.995  16.701  0.00  0.00     0.094 H 
ATOM      9  H3  GAT d   1     -17.895  21.296  14.054  0.00  0.00     0.091 H 
ATOM     10  H4  GAT d   1     -16.226  19.766  14.962  0.00  0.00     0.091 H 
ATOM     11  H5  GAT d   1     -18.102  18.839  13.622  0.00  0.00     0.090 H 
ENDROOT
BRANCH   1  12
ATOM     12  O1  GAT d   1     -20.214  20.054  13.562  0.00  0.00    -0.318 OA
BRANCH  12  13
ATOM     13  C7  GAT d   1     -21.193  19.324  12.827  0.00  0.00     0.072 A 
ATOM     14  C8  GAT d   1     -20.827  18.272  11.982  0.00  0.00    -0.049 A 
ATOM     15  C9  GAT d   1     -21.794  17.552  11.268  0.00  0.00    -0.055 A 
ATOM     16  H8  GAT d   1     -19.780  18.010  11.878  0.00  0.00     0.087 H 
ATOM     17  C10 GAT d   1     -23.149  17.891  11.403  0.00  0.00     0.025 A 
ATOM     18  H9  GAT d   1     -21.497  16.739  10.616  0.00  0.00     0.087 H 
ATOM     19  C11 GAT d   1     -23.522  18.933  12.226  0.00  0.00    -0.055 A 
ATOM     20  C12 GAT d   1     -22.543  19.643  12.938  0.00  0.00    -0.049 A 
ATOM     21  H10 GAT d   1     -24.567  19.203  12.322  0.00  0.00     0.087 H 
ATOM     22  H11 GAT d   1     -22.845  20.457  13.588  0.00  0.00     0.087 H 
BRANCH  17  23
ATOM     23  N1  GAT d   1     -24.123  17.154  10.763  0.00  0.00    -0.399 N 
ATOM     24  H12 GAT d   1     -23.856  16.374  10.146  0.00  0.00     0.156 HD
ATOM     25  H13 GAT d   1     -25.117  17.384  10.902  0.00  0.00     0.156 HD
ENDBRANCH  17  23
ENDBRANCH  12  13
ENDBRANCH   1  12
BRANCH   2  26
ATOM     26  O2  GAT d   1     -19.963  22.191  15.088  0.00  0.00    -0.388 OA
ATOM     27  H14 GAT d   1     -19.915  22.182  14.139  0.00  0.00     0.210 HD
ENDBRANCH   2  26
BRANCH   3  28
ATOM     28  O3  GAT d   1     -17.112  22.119  15.753  0.00  0.00    -0.390 OA
ATOM     29  H15 GAT d   1     -17.517  22.964  15.596  0.00  0.00     0.210 HD
ENDBRANCH   3  28
BRANCH   5  30
ATOM     30  C6  GAT d   1     -17.469  17.246  14.976  0.00  0.00     0.043 C 
ATOM     31  H6  GAT d   1     -17.284  17.124  16.053  0.00  0.00     0.078 H 
ATOM     32  H7  GAT d   1     -16.521  17.144  14.428  0.00  0.00     0.078 H 
BRANCH  30  33
ATOM     33  O6  GAT d   1     -18.391  16.245  14.531  0.00  0.00    -0.398 OA
ATOM     34  H17 GAT d   1     -19.209  16.336  15.005  0.00  0.00     0.209 HD
ENDBRANCH  30  33
ENDBRANCH   5  30
BRANCH   4  35
ATOM     35  O4  GAT d   1     -17.143  19.606  16.795  0.00  0.00    -0.390 OA
ATOM     36  H16 GAT d   1     -16.622  20.311  17.162  0.00  0.00     0.210 HD
ENDBRANCH   4  35
TORSDOF 8
