REMARK  7 active torsions:
REMARK  status: ('A' for Active; 'I' for Inactive)
REMARK    1  A    between atoms: P_1  and  O5'_5 
REMARK    2  A    between atoms: O5'_5  and  C5'_6 
REMARK    3  A    between atoms: C5'_6  and  C4'_7 
REMARK    4  A    between atoms: C3'_9  and  O3'_10 
REMARK    5  A    between atoms: C2'_11  and  O2'_12 
REMARK    6  A    between atoms: C1'_13  and  N1_14 
REMARK    7  A    between atoms: C6_21  and  O1_22 
ROOT
ATOM      1  C4' BMQ d   1      16.699  23.240 107.486  0.00  0.00     0.089 C 
ATOM      2  O4' BMQ d   1      16.975  24.154 108.707  0.00  0.00    -0.353 OA
ATOM      3  C3' BMQ d   1      17.806  22.238 107.423  0.00  0.00     0.091 C 
ATOM      4  C2' BMQ d   1      18.442  22.276 108.834  0.00  0.00     0.105 C 
ATOM      5  C1' BMQ d   1      18.272  23.734 109.202  0.00  0.00     0.142 C 
ATOM      6  H3  BMQ d   1      16.868  23.870 106.601  0.00  0.00     0.090 H 
ATOM      7  H4  BMQ d   1      17.454  21.233 107.149  0.00  0.00     0.091 H 
ATOM      8  H6  BMQ d   1      17.825  21.660 109.505  0.00  0.00     0.093 H 
ATOM      9  H8  BMQ d   1      19.046  24.302 108.665  0.00  0.00     0.123 H 
ENDROOT
BRANCH   5  10
ATOM     10  N1  BMQ d   1      18.441  24.064 110.699  0.00  0.00    -0.261 N 
ATOM     11  C6  BMQ d   1      19.350  24.906 111.064  0.00  0.00     0.152 A 
ATOM     12  C5  BMQ d   1      19.587  25.268 112.374  0.00  0.00     0.032 A 
ATOM     13  C4  BMQ d   1      18.760  24.658 113.378  0.00  0.00     0.252 A 
ATOM     14  H10 BMQ d   1      20.365  25.983 112.635  0.00  0.00     0.098 H 
ATOM     15  N3  BMQ d   1      17.792  23.763 112.988  0.00  0.00    -0.287 N 
ATOM     16  O4  BMQ d   1      18.891  24.907 114.579  0.00  0.00    -0.268 OA
ATOM     17  C2  BMQ d   1      17.599  23.437 111.645  0.00  0.00     0.265 A 
ATOM     18  H9  BMQ d   1      17.213  23.336 113.683  0.00  0.00     0.172 HD
ATOM     19  O2  BMQ d   1      16.648  22.562 111.299  0.00  0.00    -0.151 OA
BRANCH  11  20
ATOM     20  O1  BMQ d   1      20.135  25.480 110.109  0.00  0.00    -0.346 OA
ATOM     21  H11 BMQ d   1      20.753  26.072 110.522  0.00  0.00     0.219 HD
ENDBRANCH  11  20
ENDBRANCH   5  10
BRANCH   4  22
ATOM     22  O2' BMQ d   1      19.726  21.817 108.977  0.00  0.00    -0.388 OA
ATOM     23  H7  BMQ d   1      19.763  20.900 108.731  0.00  0.00     0.210 HD
ENDBRANCH   4  22
BRANCH   1  24
ATOM     24  C5' BMQ d   1      15.286  22.868 107.349  0.00  0.00     0.059 C 
ATOM     25  H1  BMQ d   1      14.694  23.795 107.377  0.00  0.00     0.079 H 
ATOM     26  H2  BMQ d   1      15.163  22.385 106.368  0.00  0.00     0.079 H 
BRANCH  24  27
ATOM     27  O5' BMQ d   1      14.755  21.991 108.328  0.00  0.00    -0.280 OA
BRANCH  27  28
ATOM     28  P   BMQ d   1      13.243  21.557 108.150  0.00  0.00     0.422 P 
ATOM     29  O3P BMQ d   1      13.071  20.745 106.900  0.00  0.00    -0.617 OA
ATOM     30  O2P BMQ d   1      12.366  22.773 108.076  0.00  0.00    -0.617 OA
ATOM     31  O1P BMQ d   1      12.994  20.656 109.378  0.00  0.00    -0.617 OA
ENDBRANCH  27  28
ENDBRANCH  24  27
ENDBRANCH   1  24
BRANCH   3  32
ATOM     32  O3' BMQ d   1      18.776  22.750 106.475  0.00  0.00    -0.390 OA
ATOM     33  H5  BMQ d   1      19.555  22.207 106.497  0.00  0.00     0.210 HD
ENDBRANCH   3  32
TORSDOF 7
