REMARK WARNING: 32 MAX_TORS EXCEEDED!!!
REMARK  71 active torsions:
REMARK  status: ('A' for Active; 'I' for Inactive)
REMARK    1  A    between atoms: N_1  and  CA_2 
REMARK    2  A    between atoms: CA_2  and  C_3 
REMARK    3  A    between atoms: CA_2  and  CB_5 
REMARK       I    between atoms: C_3  and  N_12 
REMARK    4  A    between atoms: CB_5  and  CG_6 
REMARK    5  A    between atoms: CG_6  and  CD_7 
REMARK    6  A    between atoms: CD_7  and  NE_8 
REMARK       I    between atoms: NE_8  and  CZ_9 
REMARK       I    between atoms: CZ_9  and  NH1_10 
REMARK       I    between atoms: CZ_9  and  NH2_11 
REMARK    7  A    between atoms: N_12  and  CA_13 
REMARK    8  A    between atoms: CA_13  and  C_14 
REMARK    9  A    between atoms: CA_13  and  CB_16 
REMARK       I    between atoms: C_14  and  N_20 
REMARK   10  A    between atoms: CB_16  and  CG1_17 
REMARK   11  A    between atoms: CB_16  and  CG2_18 
REMARK   12  A    between atoms: CG1_17  and  CD1_19 
REMARK   13  A    between atoms: N_20  and  CA_21 
REMARK   14  A    between atoms: CA_21  and  C_22 
REMARK   15  A    between atoms: CA_21  and  CB_24 
REMARK       I    between atoms: C_22  and  N_28 
REMARK   16  A    between atoms: CB_24  and  CG1_25 
REMARK   17  A    between atoms: CB_24  and  CG2_26 
REMARK   18  A    between atoms: CG1_25  and  CD1_27 
REMARK   19  A    between atoms: N_28  and  CA_29 
REMARK   20  A    between atoms: CA_29  and  C_30 
REMARK   21  A    between atoms: CA_29  and  CB_32 
REMARK       I    between atoms: C_30  and  N_40 
REMARK   22  A    between atoms: CB_32  and  CG_33 
REMARK   23  A    between atoms: CZ_38  and  OH_39 
REMARK   24  A    between atoms: N_40  and  CA_41 
REMARK   25  A    between atoms: CA_41  and  C_42 
REMARK   26  A    between atoms: CA_41  and  CB_44 
REMARK       I    between atoms: C_42  and  N_48 
REMARK   27  A    between atoms: CB_44  and  CG_45 
REMARK   28  A    between atoms: N_48  and  CA_49 
REMARK   29  A    between atoms: CA_49  and  C_50 
REMARK   30  A    between atoms: CA_49  and  CB_52 
REMARK       I    between atoms: C_50  and  N_59 
REMARK   31  A    between atoms: CB_52  and  CG_53 
REMARK   32  A    between atoms: CG_53  and  CD_54 
REMARK   33  A    between atoms: CD_54  and  NE_55 
REMARK       I    between atoms: NE_55  and  CZ_56 
REMARK       I    between atoms: CZ_56  and  NH1_57 
REMARK       I    between atoms: CZ_56  and  NH2_58 
REMARK   34  A    between atoms: N_59  and  CA_60 
REMARK   35  A    between atoms: CA_60  and  C_61 
REMARK   36  A    between atoms: CA_60  and  CB_63 
REMARK       I    between atoms: C_61  and  N_64 
REMARK   37  A    between atoms: N_64  and  CA_65 
REMARK   38  A    between atoms: CA_65  and  C_66 
REMARK   39  A    between atoms: CA_65  and  CB_68 
REMARK       I    between atoms: C_66  and  N_75 
REMARK   40  A    between atoms: CB_68  and  CG_69 
REMARK   41  A    between atoms: N_75  and  CA_76 
REMARK   42  A    between atoms: CA_76  and  C_77 
REMARK   43  A    between atoms: CA_76  and  CB_79 
REMARK       I    between atoms: C_77  and  N_83 
REMARK   44  A    between atoms: CB_79  and  CG_80 
REMARK   45  A    between atoms: CG_80  and  CD1_81 
REMARK   46  A    between atoms: CG_80  and  CD2_82 
REMARK   47  A    between atoms: N_83  and  CA_84 
REMARK   48  A    between atoms: CA_84  and  C_85 
REMARK   49  A    between atoms: CA_84  and  CB_87 
REMARK       I    between atoms: C_85  and  N_91 
REMARK   50  A    between atoms: CB_87  and  CG_88 
REMARK   51  A    between atoms: CG_88  and  SD_89 
REMARK   52  A    between atoms: SD_89  and  CE_90 
REMARK   53  A    between atoms: N_91  and  CA_92 
REMARK   54  A    between atoms: CA_92  and  C_93 
REMARK   55  A    between atoms: CA_92  and  CB_95 
REMARK       I    between atoms: C_93  and  N_100 
REMARK   56  A    between atoms: CB_95  and  CG_96 
REMARK   57  A    between atoms: CG_96  and  CD_97 
REMARK   58  A    between atoms: N_100  and  CA_101 
REMARK   59  A    between atoms: CA_101  and  C_102 
REMARK   60  A    between atoms: CA_101  and  CB_104 
REMARK       I    between atoms: C_102  and  N_106 
REMARK   61  A    between atoms: CB_104  and  SG_105 
REMARK   62  A    between atoms: N_106  and  CA_107 
REMARK   63  A    between atoms: CA_107  and  C_108 
REMARK   64  A    between atoms: CA_107  and  CB_110 
REMARK       I    between atoms: C_108  and  N_117 
REMARK   65  A    between atoms: CB_110  and  CG_111 
REMARK   66  A    between atoms: CG_111  and  CD_112 
REMARK   67  A    between atoms: CD_112  and  NE_113 
REMARK       I    between atoms: NE_113  and  CZ_114 
REMARK       I    between atoms: CZ_114  and  NH1_115 
REMARK       I    between atoms: CZ_114  and  NH2_116 
REMARK   68  A    between atoms: N_117  and  CA_118 
REMARK   69  A    between atoms: CA_118  and  C_119 
REMARK   70  A    between atoms: CA_118  and  CB_121 
REMARK   71  A    between atoms: CB_121  and  CG_122 
REMARK       I    between atoms: CG_122  and  ND2_124 
ROOT
ATOM      1  CA  ARG d   1      12.334  11.411  -3.719  0.00  0.00     0.086 C 
ATOM      2  H65 ARG d   1      11.383  10.927  -3.987  0.00  0.00     0.086 H 
ENDROOT
BRANCH   1   3
ATOM      3  N   ARG d   1      12.421  11.434  -2.262  0.00  0.00    -0.346 N 
ATOM      4  C   ARG d   1      12.382  10.326  -1.524  0.00  0.00     0.241 C 
ATOM      5  O   ARG d   1      12.305   9.195  -2.014  0.00  0.00    -0.271 OA
ATOM      6  H64 ARG d   1      12.514  12.316  -1.800  0.00  0.00     0.163 HD
BRANCH   4   7
ATOM      7  CA  ARG d   1      12.474  10.529  -0.008  0.00  0.00     0.089 C 
ATOM      8  H52 ARG d   1      12.602   9.566   0.507  0.00  0.00     0.087 H 
BRANCH   7   9
ATOM      9  N   ARG d   1      13.631  11.391   0.185  0.00  0.00    -0.346 N 
ATOM     10  C   ARG d   1      14.854  11.046  -0.197  0.00  0.00     0.241 C 
ATOM     11  O   ARG d   1      15.120   9.967  -0.719  0.00  0.00    -0.271 OA
ATOM     12  H51 ARG d   1      13.499  12.280   0.624  0.00  0.00     0.163 HD
BRANCH  10  13
ATOM     13  CA  ARG d   1      15.940  12.110  -0.011  0.00  0.00     0.098 C 
ATOM     14  H48 ARG d   1      15.726  12.727   0.874  0.00  0.00     0.088 H 
BRANCH  13  15
ATOM     15  N   ARG d   1      17.247  11.483   0.118  0.00  0.00    -0.345 N 
ATOM     16  C   ARG d   1      17.686  10.786   1.155  0.00  0.00     0.241 C 
ATOM     17  O   ARG d   1      17.044  10.560   2.191  0.00  0.00    -0.271 OA
ATOM     18  H47 ARG d   1      17.876  11.589  -0.652  0.00  0.00     0.163 HD
BRANCH  16  19
ATOM     19  CA  ARG d   1      19.086  10.253   0.952  0.00  0.00     0.093 C 
ATOM     20  H39 ARG d   1      19.580  10.833   0.159  0.00  0.00     0.088 H 
BRANCH  19  21
ATOM     21  N   ARG d   1      19.864  10.391   2.169  0.00  0.00    -0.346 N 
ATOM     22  C   ARG d   1      21.122  10.818   2.162  0.00  0.00     0.241 C 
ATOM     23  O   ARG d   1      21.735  11.110   1.137  0.00  0.00    -0.271 OA
ATOM     24  H38 ARG d   1      19.439  10.157   3.043  0.00  0.00     0.163 HD
BRANCH  22  25
ATOM     25  CA  ARG d   1      21.782  10.935   3.527  0.00  0.00     0.092 C 
ATOM     26  H28 ARG d   1      21.319  10.221   4.224  0.00  0.00     0.088 H 
BRANCH  25  27
ATOM     27  N   ARG d   1      23.191  10.638   3.419  0.00  0.00    -0.346 N 
ATOM     28  C   ARG d   1      23.721   9.562   3.983  0.00  0.00     0.241 C 
ATOM     29  O   ARG d   1      23.064   8.736   4.628  0.00  0.00    -0.271 OA
ATOM     30  H27 ARG d   1      23.782  11.260   2.905  0.00  0.00     0.163 HD
BRANCH  28  31
ATOM     31  CA  ARG d   1      25.219   9.388   3.766  0.00  0.00     0.092 C 
ATOM     32  H17 ARG d   1      25.559  10.122   3.021  0.00  0.00     0.088 H 
BRANCH  31  33
ATOM     33  N   ARG d   1      25.955   9.619   5.005  0.00  0.00    -0.346 N 
ATOM     34  C   ARG d   1      26.493  10.795   5.301  0.00  0.00     0.249 C 
ATOM     35  O   ARG d   1      26.415  11.782   4.568  0.00  0.00    -0.271 OA
ATOM     36  H16 ARG d   1      26.057   8.865   5.653  0.00  0.00     0.163 HD
BRANCH  34  37
ATOM     37  CA  ARG d   1      27.237  10.864   6.631  0.00  0.00     0.176 C 
ATOM     38  H4  ARG d   1      27.477   9.841   6.957  0.00  0.00     0.099 H 
BRANCH  37  39
ATOM     39  N   ARG d   1      28.510  11.620   6.472  0.00  0.00    -0.067 N 
ATOM     40  H1  ARG d   1      28.991  11.658   7.357  0.00  0.00     0.275 HD
ATOM     41  H2  ARG d   1      28.308  12.557   6.159  0.00  0.00     0.275 HD
ATOM     42  H3  ARG d   1      29.093  11.157   5.792  0.00  0.00     0.275 HD
ENDBRANCH  37  39
BRANCH  37  43
ATOM     43  CB  ARG d   1      26.332  11.519   7.692  0.00  0.00    -0.029 C 
ATOM     44  H5  ARG d   1      26.115  12.550   7.376  0.00  0.00     0.036 H 
ATOM     45  H6  ARG d   1      26.873  11.535   8.650  0.00  0.00     0.036 H 
BRANCH  43  46
ATOM     46  CG  ARG d   1      24.990  10.777   7.899  0.00  0.00    -0.047 C 
ATOM     47  H7  ARG d   1      25.199   9.745   8.219  0.00  0.00     0.035 H 
ATOM     48  H8  ARG d   1      24.441  10.761   6.946  0.00  0.00     0.035 H 
BRANCH  46  49
ATOM     49  CD  ARG d   1      24.125  11.459   8.958  0.00  0.00     0.009 C 
ATOM     50  H9  ARG d   1      23.177  10.910   9.056  0.00  0.00     0.064 H 
ATOM     51  H10 ARG d   1      23.919  12.492   8.643  0.00  0.00     0.064 H 
BRANCH  49  52
ATOM     52  NE  ARG d   1      24.800  11.481  10.253  0.00  0.00    -0.227 N 
ATOM     53  CZ  ARG d   1      24.865  10.453  11.092  0.00  0.00     0.665 C 
ATOM     54  NH1 ARG d   1      24.290   9.292  10.794  0.00  0.00    -0.235 N 
ATOM     55  NH2 ARG d   1      25.534  10.588  12.227  0.00  0.00    -0.235 N 
ATOM     56  H12 ARG d   1      24.349   8.504  11.454  0.00  0.00     0.174 HD
ATOM     57  H13 ARG d   1      23.786   9.181   9.903  0.00  0.00     0.174 HD
ATOM     58  H14 ARG d   1      25.980  11.487  12.458  0.00  0.00     0.174 HD
ATOM     59  H15 ARG d   1      25.609   9.794  12.878  0.00  0.00     0.174 HD
ATOM     60  H11 ARG d   1      25.259  12.358  10.537  0.00  0.00     0.177 HD
ENDBRANCH  49  52
ENDBRANCH  46  49
ENDBRANCH  43  46
ENDBRANCH  37  43
ENDBRANCH  34  37
ENDBRANCH  31  33
BRANCH  31  61
ATOM     61  CB  ARG d   1      25.466   7.960   3.209  0.00  0.00    -0.030 C 
ATOM     62  H18 ARG d   1      25.151   7.224   3.963  0.00  0.00     0.043 H 
BRANCH  61  63
ATOM     63  CG1 ARG d   1      26.955   7.761   2.918  0.00  0.00    -0.063 C 
ATOM     64  H19 ARG d   1      27.083   6.733   2.548  0.00  0.00     0.033 H 
ATOM     65  H20 ARG d   1      27.495   7.878   3.869  0.00  0.00     0.033 H 
BRANCH  63  66
ATOM     66  CD1 ARG d   1      27.621   8.714   1.885  0.00  0.00    -0.076 C 
ATOM     67  H24 ARG d   1      28.685   8.454   1.779  0.00  0.00     0.027 H 
ATOM     68  H25 ARG d   1      27.530   9.753   2.233  0.00  0.00     0.027 H 
ATOM     69  H26 ARG d   1      27.119   8.608   0.912  0.00  0.00     0.027 H 
ENDBRANCH  63  66
ENDBRANCH  61  63
BRANCH  61  70
ATOM     70  CG2 ARG d   1      24.653   7.750   1.953  0.00  0.00    -0.071 C 
ATOM     71  H21 ARG d   1      23.586   7.896   2.178  0.00  0.00     0.028 H 
ATOM     72  H22 ARG d   1      24.812   6.728   1.580  0.00  0.00     0.028 H 
ATOM     73  H23 ARG d   1      24.969   8.473   1.187  0.00  0.00     0.028 H 
ENDBRANCH  61  70
ENDBRANCH  31  61
ENDBRANCH  28  31
ENDBRANCH  25  27
BRANCH  25  74
ATOM     74  CB  ARG d   1      21.551  12.357   4.031  0.00  0.00    -0.030 C 
ATOM     75  H29 ARG d   1      21.993  13.064   3.313  0.00  0.00     0.043 H 
BRANCH  74  76
ATOM     76  CG1 ARG d   1      22.232  12.553   5.389  0.00  0.00    -0.063 C 
ATOM     77  H30 ARG d   1      22.054  11.652   5.994  0.00  0.00     0.033 H 
ATOM     78  H31 ARG d   1      21.770  13.422   5.881  0.00  0.00     0.033 H 
BRANCH  76  79
ATOM     79  CD1 ARG d   1      23.736  12.790   5.324  0.00  0.00    -0.076 C 
ATOM     80  H35 ARG d   1      24.131  12.918   6.343  0.00  0.00     0.027 H 
ATOM     81  H36 ARG d   1      23.939  13.696   4.735  0.00  0.00     0.027 H 
ATOM     82  H37 ARG d   1      24.223  11.926   4.848  0.00  0.00     0.027 H 
ENDBRANCH  76  79
ENDBRANCH  74  76
BRANCH  74  83
ATOM     83  CG2 ARG d   1      20.053  12.628   4.123  0.00  0.00    -0.071 C 
ATOM     84  H32 ARG d   1      19.592  12.480   3.135  0.00  0.00     0.028 H 
ATOM     85  H33 ARG d   1      19.887  13.664   4.453  0.00  0.00     0.028 H 
ATOM     86  H34 ARG d   1      19.599  11.936   4.847  0.00  0.00     0.028 H 
ENDBRANCH  74  83
ENDBRANCH  25  74
ENDBRANCH  22  25
ENDBRANCH  19  21
BRANCH  19  87
ATOM     87  CB  ARG d   1      18.977   8.798   0.501  0.00  0.00    -0.014 C 
ATOM     88  H40 ARG d   1      18.233   8.743  -0.307  0.00  0.00     0.043 H 
ATOM     89  H41 ARG d   1      18.635   8.197   1.356  0.00  0.00     0.043 H 
BRANCH  87  90
ATOM     90  CG  ARG d   1      20.267   8.206  -0.005  0.00  0.00    -0.056 A 
ATOM     91  CD1 ARG d   1      20.846   7.133   0.639  0.00  0.00    -0.074 A 
ATOM     92  CE1 ARG d   1      22.017   6.568   0.177  0.00  0.00    -0.051 A 
ATOM     93  H42 ARG d   1      20.372   6.726   1.525  0.00  0.00     0.084 H 
ATOM     94  CZ  ARG d   1      22.632   7.082  -0.952  0.00  0.00     0.065 A 
ATOM     95  H44 ARG d   1      22.455   5.723   0.697  0.00  0.00     0.087 H 
ATOM     96  CE2 ARG d   1      22.080   8.160  -1.628  0.00  0.00    -0.051 A 
ATOM     97  CD2 ARG d   1      20.898   8.716  -1.147  0.00  0.00    -0.074 A 
ATOM     98  H45 ARG d   1      22.560   8.562  -2.513  0.00  0.00     0.087 H 
ATOM     99  H43 ARG d   1      20.457   9.560  -1.666  0.00  0.00     0.084 H 
BRANCH  94 100
ATOM    100  OH  ARG d   1      23.788   6.507  -1.390  0.00  0.00    -0.361 OA
ATOM    101  H46 ARG d   1      24.021   5.788  -0.814  0.00  0.00     0.217 HD
ENDBRANCH  94 100
ENDBRANCH  87  90
ENDBRANCH  19  87
ENDBRANCH  16  19
ENDBRANCH  13  15
BRANCH  13 102
ATOM    102  CB  ARG d   1      15.946  12.968  -1.290  0.00  0.00     0.043 C 
ATOM    103  H49 ARG d   1      15.419  12.420  -2.085  0.00  0.00     0.052 H 
ATOM    104  H50 ARG d   1      16.989  13.141  -1.594  0.00  0.00     0.052 H 
BRANCH 102 105
ATOM    105  CG  ARG d   1      15.292  14.264  -1.101  0.00  0.00     0.175 C 
ATOM    106  OD1 ARG d   1      14.221  14.274  -0.463  0.00  0.00    -0.648 OA
ATOM    107  OD2 ARG d   1      15.830  15.275  -1.589  0.00  0.00    -0.648 OA
ENDBRANCH 102 105
ENDBRANCH  13 102
ENDBRANCH  10  13
ENDBRANCH   7   9
BRANCH   7 108
ATOM    108  CB  ARG d   1      11.227  11.257   0.534  0.00  0.00    -0.036 C 
ATOM    109  H53 ARG d   1      11.303  12.307   0.214  0.00  0.00     0.036 H 
ATOM    110  H54 ARG d   1      11.276  11.204   1.632  0.00  0.00     0.036 H 
BRANCH 108 111
ATOM    111  CG  ARG d   1       9.821  10.759   0.119  0.00  0.00    -0.048 C 
ATOM    112  H55 ARG d   1       9.785  10.703  -0.979  0.00  0.00     0.035 H 
ATOM    113  H56 ARG d   1       9.078  11.488   0.473  0.00  0.00     0.035 H 
BRANCH 111 114
ATOM    114  CD  ARG d   1       9.458   9.408   0.673  0.00  0.00     0.009 C 
ATOM    115  H57 ARG d   1       9.772   9.376   1.727  0.00  0.00     0.064 H 
ATOM    116  H58 ARG d   1      10.010   8.646   0.103  0.00  0.00     0.064 H 
BRANCH 114 117
ATOM    117  NE  ARG d   1       8.023   9.074   0.613  0.00  0.00    -0.227 N 
ATOM    118  CZ  ARG d   1       7.267   9.050  -0.486  0.00  0.00     0.665 C 
ATOM    119  NH1 ARG d   1       7.770   9.352  -1.670  0.00  0.00    -0.235 N 
ATOM    120  NH2 ARG d   1       6.010   8.642  -0.415  0.00  0.00    -0.235 N 
ATOM    121  H60 ARG d   1       7.169   9.327  -2.506  0.00  0.00     0.174 HD
ATOM    122  H61 ARG d   1       8.763   9.612  -1.757  0.00  0.00     0.174 HD
ATOM    123  H62 ARG d   1       5.597   8.401   0.498  0.00  0.00     0.174 HD
ATOM    124  H63 ARG d   1       5.444   8.565  -1.272  0.00  0.00     0.174 HD
ATOM    125  H59 ARG d   1       7.561   8.837   1.503  0.00  0.00     0.177 HD
ENDBRANCH 114 117
ENDBRANCH 111 114
ENDBRANCH 108 111
ENDBRANCH   7 108
ENDBRANCH   4   7
ENDBRANCH   1   3
BRANCH   1 126
ATOM    126  C   ARG d   1      13.456  10.622  -4.379  0.00  0.00     0.240 C 
ATOM    127  O   ARG d   1      13.192   9.799  -5.252  0.00  0.00    -0.271 OA
ATOM    128  N   ARG d   1      14.700  10.863  -3.972  0.00  0.00    -0.346 N 
ATOM    129  H69 ARG d   1      14.866  11.547  -3.261  0.00  0.00     0.163 HD
BRANCH 128 130
ATOM    130  CA  ARG d   1      15.823  10.138  -4.554  0.00  0.00     0.093 C 
ATOM    131  H70 ARG d   1      15.790  10.278  -5.645  0.00  0.00     0.088 H 
BRANCH 130 132
ATOM    132  C   ARG d   1      15.731   8.645  -4.249  0.00  0.00     0.241 C 
ATOM    133  O   ARG d   1      16.002   7.813  -5.114  0.00  0.00    -0.271 OA
ATOM    134  N   ARG d   1      15.368   8.299  -3.017  0.00  0.00    -0.346 N 
ATOM    135  H78 ARG d   1      15.189   9.003  -2.330  0.00  0.00     0.163 HD
BRANCH 134 136
ATOM    136  CA  ARG d   1      15.232   6.891  -2.673  0.00  0.00     0.089 C 
ATOM    137  H79 ARG d   1      16.206   6.398  -2.809  0.00  0.00     0.087 H 
BRANCH 136 138
ATOM    138  C   ARG d   1      14.207   6.224  -3.605  0.00  0.00     0.241 C 
ATOM    139  O   ARG d   1      14.401   5.100  -4.063  0.00  0.00    -0.271 OA
ATOM    140  N   ARG d   1      13.125   6.933  -3.894  0.00  0.00    -0.346 N 
ATOM    141  H89 ARG d   1      13.019   7.845  -3.497  0.00  0.00     0.163 HD
BRANCH 140 142
ATOM    142  CA  ARG d   1      12.085   6.417  -4.777  0.00  0.00     0.090 C 
ATOM    143  H90 ARG d   1      11.763   5.436  -4.397  0.00  0.00     0.087 H 
BRANCH 142 144
ATOM    144  C   ARG d   1      12.603   6.227  -6.205  0.00  0.00     0.241 C 
ATOM    145  O   ARG d   1      12.237   5.273  -6.900  0.00  0.00    -0.271 OA
ATOM    146  N   ARG d   1      13.470   7.141  -6.631  0.00  0.00    -0.346 N 
ATOM    147  H98 ARG d   1      13.723   7.894  -6.024  0.00  0.00     0.163 HD
BRANCH 146 148
ATOM    148  CA  ARG d   1      14.058   7.072  -7.957  0.00  0.00     0.090 C 
ATOM    149  H99 ARG d   1      13.246   6.997  -8.695  0.00  0.00     0.087 H 
BRANCH 148 150
ATOM    150  C   ARG d   1      14.974   5.873  -8.093  0.00  0.00     0.241 C 
ATOM    151  O   ARG d   1      15.110   5.321  -9.183  0.00  0.00    -0.271 OA
ATOM    152  N   ARG d   1      15.618   5.485  -6.995  0.00  0.00    -0.345 N 
ATOM    153 4H10 ARG d   1      15.469   5.975  -6.136  0.00  0.00     0.163 HD
BRANCH 152 154
ATOM    154  CA  ARG d   1      16.540   4.351  -7.028  0.00  0.00     0.097 C 
ATOM    155 5H10 ARG d   1      17.213   4.534  -7.879  0.00  0.00     0.088 H 
BRANCH 154 156
ATOM    156  C   ARG d   1      15.931   2.964  -7.259  0.00  0.00     0.241 C 
ATOM    157  O   ARG d   1      16.664   1.985  -7.426  0.00  0.00    -0.271 OA
ATOM    158  N   ARG d   1      14.606   2.857  -7.258  0.00  0.00    -0.346 N 
ATOM    159 9H10 ARG d   1      14.029   3.654  -7.077  0.00  0.00     0.163 HD
BRANCH 158 160
ATOM    160  CA  ARG d   1      14.011   1.551  -7.527  0.00  0.00     0.089 C 
ATOM    161 0H11 ARG d   1      14.597   0.789  -6.992  0.00  0.00     0.087 H 
BRANCH 160 162
ATOM    162  C   ARG d   1      14.110   1.255  -9.024  0.00  0.00     0.241 C 
ATOM    163  O   ARG d   1      13.776   0.170  -9.473  0.00  0.00    -0.271 OA
ATOM    164  N   ARG d   1      14.611   2.234  -9.776  0.00  0.00    -0.344 N 
ATOM    165 2H12 ARG d   1      14.841   3.101  -9.333  0.00  0.00     0.163 HD
BRANCH 164 166
ATOM    166  CA  ARG d   1      14.843   2.108 -11.215  0.00  0.00     0.104 C 
ATOM    167 3H12 ARG d   1      14.740   1.049 -11.493  0.00  0.00     0.090 H 
BRANCH 166 168
ATOM    168  C   ARG d   1      16.258   2.578 -11.562  0.00  0.00     0.197 C 
ATOM    169  O   ARG d   1      16.427   3.557 -12.325  0.00  0.00    -0.646 OA
ATOM    170  OXT ARG d   1      17.253   1.986 -11.084  0.00  0.00    -0.646 OA
ENDBRANCH 166 168
BRANCH 166 171
ATOM    171  CB  ARG d   1      13.833   2.926 -12.021  0.00  0.00     0.037 C 
ATOM    172 4H12 ARG d   1      14.218   3.053 -13.044  0.00  0.00     0.051 H 
ATOM    173 5H12 ARG d   1      13.719   3.912 -11.547  0.00  0.00     0.051 H 
BRANCH 171 174
ATOM    174  CG  ARG d   1      12.479   2.263 -12.092  0.00  0.00     0.217 C 
ATOM    175  OD1 ARG d   1      12.375   1.091 -12.468  0.00  0.00    -0.274 OA
ATOM    176  ND2 ARG d   1      11.429   3.009 -11.750  0.00  0.00    -0.370 N 
ATOM    177 6H12 ARG d   1      10.508   2.620 -11.779  0.00  0.00     0.159 HD
ATOM    178 7H12 ARG d   1      11.562   3.958 -11.464  0.00  0.00     0.159 HD
ENDBRANCH 171 174
ENDBRANCH 166 171
ENDBRANCH 164 166
ENDBRANCH 160 162
BRANCH 160 179
ATOM    179  CB  ARG d   1      12.571   1.478  -7.002  0.00  0.00    -0.036 C 
ATOM    180 1H11 ARG d   1      12.604   1.315  -5.915  0.00  0.00     0.036 H 
ATOM    181 2H11 ARG d   1      12.067   0.628  -7.485  0.00  0.00     0.036 H 
BRANCH 179 182
ATOM    182  CG  ARG d   1      11.786   2.701  -7.268  0.00  0.00    -0.048 C 
ATOM    183 3H11 ARG d   1      11.566   2.742  -8.345  0.00  0.00     0.035 H 
ATOM    184 4H11 ARG d   1      12.397   3.571  -6.985  0.00  0.00     0.035 H 
BRANCH 182 185
ATOM    185  CD  ARG d   1      10.466   2.776  -6.508  0.00  0.00     0.009 C 
ATOM    186 5H11 ARG d   1      10.643   2.677  -5.427  0.00  0.00     0.064 H 
ATOM    187 6H11 ARG d   1       9.787   1.978  -6.843  0.00  0.00     0.064 H 
BRANCH 185 188
ATOM    188  NE  ARG d   1       9.897   4.081  -6.809  0.00  0.00    -0.227 N 
ATOM    189  CZ  ARG d   1       8.617   4.399  -6.765  0.00  0.00     0.665 C 
ATOM    190  NH1 ARG d   1       7.697   3.504  -6.420  0.00  0.00    -0.235 N 
ATOM    191  NH2 ARG d   1       8.266   5.632  -7.105  0.00  0.00    -0.235 N 
ATOM    192 8H11 ARG d   1       6.703   3.772  -6.392  0.00  0.00     0.174 HD
ATOM    193 9H11 ARG d   1       7.978   2.542  -6.181  0.00  0.00     0.174 HD
ATOM    194 0H12 ARG d   1       8.987   6.318  -7.371  0.00  0.00     0.174 HD
ATOM    195 1H12 ARG d   1       7.272   5.904  -7.103  0.00  0.00     0.174 HD
ATOM    196 7H11 ARG d   1      10.554   4.826  -7.082  0.00  0.00     0.177 HD
ENDBRANCH 185 188
ENDBRANCH 182 185
ENDBRANCH 179 182
ENDBRANCH 160 179
ENDBRANCH 158 160
ENDBRANCH 154 156
BRANCH 154 197
ATOM    197  CB  ARG d   1      17.399   4.325  -5.763  0.00  0.00     0.001 C 
ATOM    198 6H10 ARG d   1      17.936   3.365  -5.730  0.00  0.00     0.052 H 
ATOM    199 7H10 ARG d   1      16.732   4.402  -4.892  0.00  0.00     0.052 H 
BRANCH 197 200
ATOM    200  SG  ARG d   1      18.621   5.665  -5.665  0.00  0.00    -0.180 SA
ATOM    201 8H10 ARG d   1      18.145   6.554  -5.682  0.00  0.00     0.101 HD
ENDBRANCH 197 200
ENDBRANCH 154 197
ENDBRANCH 152 154
ENDBRANCH 148 150
BRANCH 148 202
ATOM    202  CB  ARG d   1      14.904   8.311  -8.257  0.00  0.00    -0.029 C 
ATOM    203 0H10 ARG d   1      15.357   8.178  -9.250  0.00  0.00     0.037 H 
ATOM    204 1H10 ARG d   1      15.697   8.370  -7.497  0.00  0.00     0.037 H 
BRANCH 202 205
ATOM    205  CG  ARG d   1      14.178   9.604  -8.258  0.00  0.00     0.018 C 
ATOM    206 2H10 ARG d   1      14.375  10.129  -7.312  0.00  0.00     0.049 H 
ATOM    207 3H10 ARG d   1      13.099   9.412  -8.354  0.00  0.00     0.049 H 
BRANCH 205 208
ATOM    208  CD  ARG d   1      14.631  10.468  -9.407  0.00  0.00     0.172 C 
ATOM    209  OE1 ARG d   1      15.869  10.627  -9.579  0.00  0.00    -0.648 OA
ATOM    210  OE2 ARG d   1      13.740  10.976 -10.139  0.00  0.00    -0.648 OA
ENDBRANCH 205 208
ENDBRANCH 202 205
ENDBRANCH 148 202
ENDBRANCH 146 148
ENDBRANCH 142 144
BRANCH 142 211
ATOM    211  CB  ARG d   1      10.880   7.368  -4.757  0.00  0.00    -0.030 C 
ATOM    212  H91 ARG d   1      10.184   7.070  -5.555  0.00  0.00     0.037 H 
ATOM    213  H92 ARG d   1      11.237   8.391  -4.945  0.00  0.00     0.037 H 
BRANCH 211 214
ATOM    214  CG  ARG d   1      10.135   7.349  -3.429  0.00  0.00    -0.021 C 
ATOM    215  H93 ARG d   1       9.321   8.089  -3.443  0.00  0.00     0.049 H 
ATOM    216  H94 ARG d   1      10.827   7.580  -2.606  0.00  0.00     0.049 H 
BRANCH 214 217
ATOM    217  SD  ARG d   1       9.455   5.685  -3.217  0.00  0.00    -0.173 SA
BRANCH 217 218
ATOM    218  CE  ARG d   1       8.590   5.821  -1.689  0.00  0.00    -0.035 C 
ATOM    219  H95 ARG d   1       8.123   4.855  -1.445  0.00  0.00     0.041 H 
ATOM    220  H96 ARG d   1       7.811   6.593  -1.776  0.00  0.00     0.041 H 
ATOM    221  H97 ARG d   1       9.295   6.099  -0.892  0.00  0.00     0.041 H 
ENDBRANCH 217 218
ENDBRANCH 214 217
ENDBRANCH 211 214
ENDBRANCH 142 211
ENDBRANCH 140 142
ENDBRANCH 136 138
BRANCH 136 222
ATOM    222  CB  ARG d   1      14.807   6.738  -1.213  0.00  0.00    -0.035 C 
ATOM    223  H80 ARG d   1      14.487   5.696  -1.066  0.00  0.00     0.037 H 
ATOM    224  H81 ARG d   1      13.954   7.411  -1.042  0.00  0.00     0.037 H 
BRANCH 222 225
ATOM    225  CG  ARG d   1      15.867   7.052  -0.152  0.00  0.00    -0.059 C 
ATOM    226  H82 ARG d   1      16.257   8.066  -0.326  0.00  0.00     0.038 H 
BRANCH 225 227
ATOM    227  CD1 ARG d   1      15.243   7.001   1.241  0.00  0.00    -0.073 C 
ATOM    228  H83 ARG d   1      16.011   7.228   1.995  0.00  0.00     0.028 H 
ATOM    229  H84 ARG d   1      14.835   5.996   1.423  0.00  0.00     0.028 H 
ATOM    230  H85 ARG d   1      14.434   7.743   1.308  0.00  0.00     0.028 H 
ENDBRANCH 225 227
BRANCH 225 231
ATOM    231  CD2 ARG d   1      17.023   6.051  -0.269  0.00  0.00    -0.073 C 
ATOM    232  H86 ARG d   1      17.455   6.106  -1.279  0.00  0.00     0.028 H 
ATOM    233  H87 ARG d   1      16.647   5.034  -0.086  0.00  0.00     0.028 H 
ATOM    234  H88 ARG d   1      17.796   6.295   0.474  0.00  0.00     0.028 H 
ENDBRANCH 225 231
ENDBRANCH 222 225
ENDBRANCH 136 222
ENDBRANCH 134 136
ENDBRANCH 130 132
BRANCH 130 235
ATOM    235  CB  ARG d   1      17.161  10.655  -4.040  0.00  0.00    -0.014 C 
ATOM    236  H71 ARG d   1      17.220  10.461  -2.959  0.00  0.00     0.043 H 
ATOM    237  H72 ARG d   1      17.212  11.739  -4.221  0.00  0.00     0.043 H 
BRANCH 235 238
ATOM    238  CG  ARG d   1      18.337  10.002  -4.709  0.00  0.00    -0.056 A 
ATOM    239  CD1 ARG d   1      18.572  10.197  -6.067  0.00  0.00    -0.077 A 
ATOM    240  CE1 ARG d   1      19.614   9.535  -6.710  0.00  0.00    -0.082 A 
ATOM    241  H73 ARG d   1      17.937  10.871  -6.630  0.00  0.00     0.084 H 
ATOM    242  CZ  ARG d   1      20.431   8.677  -6.002  0.00  0.00    -0.083 A 
ATOM    243  H75 ARG d   1      19.784   9.694  -7.769  0.00  0.00     0.083 H 
ATOM    244  CE2 ARG d   1      20.214   8.474  -4.654  0.00  0.00    -0.082 A 
ATOM    245  H77 ARG d   1      21.242   8.163  -6.504  0.00  0.00     0.083 H 
ATOM    246  CD2 ARG d   1      19.166   9.138  -4.009  0.00  0.00    -0.077 A 
ATOM    247  H76 ARG d   1      20.855   7.801  -4.096  0.00  0.00     0.083 H 
ATOM    248  H74 ARG d   1      19.000   8.976  -2.950  0.00  0.00     0.084 H 
ENDBRANCH 235 238
ENDBRANCH 130 235
ENDBRANCH 128 130
ENDBRANCH   1 126
BRANCH   1 249
ATOM    249  CB  ARG d   1      12.318  12.832  -4.266  0.00  0.00    -0.049 C 
ATOM    250  H66 ARG d   1      12.252  12.802  -5.364  0.00  0.00     0.030 H 
ATOM    251  H67 ARG d   1      13.242  13.350  -3.968  0.00  0.00     0.030 H 
ATOM    252  H68 ARG d   1      11.449  13.371  -3.861  0.00  0.00     0.030 H 
ENDBRANCH   1 249
TORSDOF 71
