REMARK  2 active torsions:
REMARK  status: ('A' for Active; 'I' for Inactive)
REMARK    1  A    between atoms: N1_7  and  C3_3 
REMARK       I    between atoms: C7_8  and  N1_7 
REMARK       I    between atoms: N2_10  and  C7_8 
REMARK    2  A    between atoms: C8_11  and  N2_10 
ROOT
ATOM      1  C1  CIU d   1     -41.122-112.504 -27.030  0.00  0.00    -0.063 C 
ATOM      2  C2  CIU d   1     -41.908-112.530 -28.367  0.00  0.00    -0.046 C 
ATOM      3  C3  CIU d   1     -42.320-114.015 -28.786  0.00  0.00     0.014 C 
ATOM      4  C4  CIU d   1     -41.040-114.982 -28.897  0.00  0.00    -0.046 C 
ATOM      5  C5  CIU d   1     -40.209-115.020 -27.539  0.00  0.00    -0.063 C 
ATOM      6  C6  CIU d   1     -39.889-113.537 -26.984  0.00  0.00    -0.065 C 
ATOM      7  H1  CIU d   1     -41.816-112.755 -26.214  0.00  0.00     0.033 H 
ATOM      8  H2  CIU d   1     -40.729-111.488 -26.878  0.00  0.00     0.033 H 
ATOM      9  H3  CIU d   1     -41.278-112.099 -29.159  0.00  0.00     0.035 H 
ATOM     10  H4  CIU d   1     -42.820-111.926 -28.255  0.00  0.00     0.035 H 
ATOM     11  H5  CIU d   1     -42.996-114.427 -28.022  0.00  0.00     0.072 H 
ATOM     12  H6  CIU d   1     -40.387-114.618 -29.704  0.00  0.00     0.035 H 
ATOM     13  H7  CIU d   1     -41.382-116.000 -29.134  0.00  0.00     0.035 H 
ATOM     14  H8  CIU d   1     -39.259-115.545 -27.718  0.00  0.00     0.033 H 
ATOM     15  H9  CIU d   1     -40.791-115.565 -26.781  0.00  0.00     0.033 H 
ATOM     16  H10 CIU d   1     -39.562-113.629 -25.938  0.00  0.00     0.033 H 
ATOM     17  H11 CIU d   1     -39.071-113.117 -27.588  0.00  0.00     0.033 H 
ENDROOT
BRANCH   3  18
ATOM     18  N1  CIU d   1     -43.051-113.929 -30.092  0.00  0.00    -0.338 N 
ATOM     19  C7  CIU d   1     -44.230-114.377 -30.406  0.00  0.00     0.321 C 
ATOM     20  O2  CIU d   1     -44.946-114.616 -29.452  0.00  0.00    -0.247 OA
ATOM     21  N2  CIU d   1     -44.589-114.541 -31.673  0.00  0.00    -0.309 N 
ATOM     22  H13 CIU d   1     -43.868-114.262 -32.307  0.00  0.00     0.170 HD
ATOM     23  H12 CIU d   1     -42.561-113.460 -30.827  0.00  0.00     0.164 HD
BRANCH  21  24
ATOM     24  C8  CIU d   1     -45.751-115.018 -32.358  0.00  0.00     0.036 A 
ATOM     25  C9  CIU d   1     -46.879-115.495 -31.659  0.00  0.00    -0.056 A 
ATOM     26  C10 CIU d   1     -48.016-115.961 -32.343  0.00  0.00    -0.065 A 
ATOM     27  H14 CIU d   1     -46.870-115.503 -30.575  0.00  0.00     0.087 H 
ATOM     28  C11 CIU d   1     -48.059-115.960 -33.779  0.00  0.00     0.006 A 
ATOM     29  H15 CIU d   1     -48.869-116.325 -31.781  0.00  0.00     0.085 H 
ATOM     30  I4  CIU d   1     -49.923-116.694 -34.836  0.00  0.00    -0.045 I 
ATOM     31  C12 CIU d   1     -46.884-115.463 -34.506  0.00  0.00    -0.065 A 
ATOM     32  C13 CIU d   1     -45.750-115.001 -33.795  0.00  0.00    -0.056 A 
ATOM     33  H16 CIU d   1     -46.885-115.450 -35.590  0.00  0.00     0.085 H 
ATOM     34  H17 CIU d   1     -44.883-114.635 -34.333  0.00  0.00     0.087 H 
ENDBRANCH  21  24
ENDBRANCH   3  18
TORSDOF 2
