REMARK  11 active torsions:
REMARK  status: ('A' for Active; 'I' for Inactive)
REMARK    1  A    between atoms: C5_5  and  N1_7 
REMARK       I    between atoms: N1_7  and  C8_8 
REMARK       I    between atoms: C8_8  and  N2_10 
REMARK    2  A    between atoms: N2_10  and  C11_11 
REMARK    3  A    between atoms: C11_11  and  C12_12 
REMARK    4  A    between atoms: C12_12  and  C13_13 
REMARK    5  A    between atoms: C13_13  and  C14_14 
REMARK    6  A    between atoms: C14_14  and  C15_15 
REMARK    7  A    between atoms: C15_15  and  C16_16 
REMARK    8  A    between atoms: C16_16  and  C17_17 
REMARK    9  A    between atoms: C17_17  and  C18_18 
REMARK   10  A    between atoms: C18_18  and  C19_19 
REMARK   11  A    between atoms: C19_19  and  C20_20 
ROOT
ATOM      1  C12 CDU d   1     -46.421-115.603 -33.134  0.00  0.00    -0.050 C 
ATOM      2  H16 CDU d   1     -45.616-116.244 -33.523  0.00  0.00     0.035 H 
ATOM      3  H17 CDU d   1     -46.432-114.652 -33.686  0.00  0.00     0.035 H 
ENDROOT
BRANCH   1   4
ATOM      4  C11 CDU d   1     -46.156-115.315 -31.649  0.00  0.00    -0.003 C 
ATOM      5  H14 CDU d   1     -46.952-114.662 -31.263  0.00  0.00     0.064 H 
ATOM      6  H15 CDU d   1     -46.158-116.264 -31.093  0.00  0.00     0.064 H 
BRANCH   4   7
ATOM      7  N2  CDU d   1     -44.829-114.637 -31.455  0.00  0.00    -0.343 N 
ATOM      8  C8  CDU d   1     -44.321-114.288 -30.235  0.00  0.00     0.316 C 
ATOM      9  N1  CDU d   1     -43.121-113.696 -29.930  0.00  0.00    -0.339 N 
ATOM     10  O   CDU d   1     -45.052-114.570 -29.262  0.00  0.00    -0.247 OA
ATOM     11  H12 CDU d   1     -42.566-113.465 -30.729  0.00  0.00     0.164 HD
ATOM     12  H13 CDU d   1     -44.285-114.429 -32.268  0.00  0.00     0.164 HD
BRANCH   9  13
ATOM     13  C5  CDU d   1     -42.477-113.325 -28.594  0.00  0.00     0.014 C 
ATOM     14  C4  CDU d   1     -41.075-112.659 -28.905  0.00  0.00    -0.046 C 
ATOM     15  C3  CDU d   1     -40.252-112.243 -27.601  0.00  0.00    -0.063 C 
ATOM     16  H7  CDU d   1     -40.471-113.376 -29.481  0.00  0.00     0.035 H 
ATOM     17  H8  CDU d   1     -41.247-111.756 -29.509  0.00  0.00     0.035 H 
ATOM     18  C2  CDU d   1     -40.142-113.419 -26.535  0.00  0.00    -0.065 C 
ATOM     19  H5  CDU d   1     -39.237-111.950 -27.906  0.00  0.00     0.033 H 
ATOM     20  H6  CDU d   1     -40.754-111.386 -27.128  0.00  0.00     0.033 H 
ATOM     21  C1  CDU d   1     -41.510-114.205 -26.317  0.00  0.00    -0.063 C 
ATOM     22  H3  CDU d   1     -39.381-114.133 -26.881  0.00  0.00     0.033 H 
ATOM     23  H4  CDU d   1     -39.830-112.989 -25.572  0.00  0.00     0.033 H 
ATOM     24  C6  CDU d   1     -42.214-114.606 -27.689  0.00  0.00    -0.046 C 
ATOM     25  H1  CDU d   1     -42.196-113.565 -25.743  0.00  0.00     0.033 H 
ATOM     26  H2  CDU d   1     -41.302-115.123 -25.747  0.00  0.00     0.033 H 
ATOM     27  H10 CDU d   1     -43.175-115.095 -27.470  0.00  0.00     0.035 H 
ATOM     28  H11 CDU d   1     -41.563-115.305 -28.236  0.00  0.00     0.035 H 
ATOM     29  H9  CDU d   1     -43.126-112.619 -28.055  0.00  0.00     0.072 H 
ENDBRANCH   9  13
ENDBRANCH   4   7
ENDBRANCH   1   4
BRANCH   1  30
ATOM     30  C13 CDU d   1     -47.787-116.324 -33.340  0.00  0.00    -0.064 C 
ATOM     31  H18 CDU d   1     -48.570-115.732 -32.844  0.00  0.00     0.033 H 
ATOM     32  H19 CDU d   1     -47.728-117.318 -32.873  0.00  0.00     0.033 H 
BRANCH  30  33
ATOM     33  C14 CDU d   1     -48.186-116.508 -34.855  0.00  0.00    -0.065 C 
ATOM     34  H20 CDU d   1     -47.613-117.356 -35.258  0.00  0.00     0.033 H 
ATOM     35  H21 CDU d   1     -47.910-115.590 -35.394  0.00  0.00     0.033 H 
BRANCH  33  36
ATOM     36  C15 CDU d   1     -49.730-116.788 -35.116  0.00  0.00    -0.065 C 
ATOM     37  H22 CDU d   1     -49.994-116.401 -36.111  0.00  0.00     0.033 H 
ATOM     38  H23 CDU d   1     -50.317-116.261 -34.350  0.00  0.00     0.033 H 
BRANCH  36  39
ATOM     39  C16 CDU d   1     -50.087-118.307 -35.061  0.00  0.00    -0.065 C 
ATOM     40  H24 CDU d   1     -49.820-118.692 -34.066  0.00  0.00     0.033 H 
ATOM     41  H25 CDU d   1     -49.497-118.831 -35.827  0.00  0.00     0.033 H 
BRANCH  39  42
ATOM     42  C17 CDU d   1     -51.605-118.602 -35.316  0.00  0.00    -0.065 C 
ATOM     43  H26 CDU d   1     -51.878-118.222 -36.312  0.00  0.00     0.033 H 
ATOM     44  H27 CDU d   1     -52.200-118.084 -34.550  0.00  0.00     0.033 H 
BRANCH  42  45
ATOM     45  C18 CDU d   1     -51.928-120.141 -35.254  0.00  0.00    -0.065 C 
ATOM     46  H28 CDU d   1     -51.646-120.518 -34.260  0.00  0.00     0.033 H 
ATOM     47  H29 CDU d   1     -51.333-120.655 -36.023  0.00  0.00     0.033 H 
BRANCH  45  48
ATOM     48  C19 CDU d   1     -53.438-120.461 -35.497  0.00  0.00    -0.069 C 
ATOM     49  H30 CDU d   1     -53.721-120.085 -36.491  0.00  0.00     0.032 H 
ATOM     50  H31 CDU d   1     -54.034-119.948 -34.727  0.00  0.00     0.032 H 
BRANCH  48  51
ATOM     51  C20 CDU d   1     -53.750-121.980 -35.435  0.00  0.00    -0.077 C 
ATOM     52  H32 CDU d   1     -54.824-122.141 -35.613  0.00  0.00     0.027 H 
ATOM     53  H33 CDU d   1     -53.480-122.370 -34.442  0.00  0.00     0.027 H 
ATOM     54  H34 CDU d   1     -53.168-122.506 -36.206  0.00  0.00     0.027 H 
ENDBRANCH  48  51
ENDBRANCH  45  48
ENDBRANCH  42  45
ENDBRANCH  39  42
ENDBRANCH  36  39
ENDBRANCH  33  36
ENDBRANCH  30  33
ENDBRANCH   1  30
TORSDOF 11
