REMARK  20 active torsions:
REMARK  status: ('A' for Active; 'I' for Inactive)
REMARK    1  A    between atoms: N_1  and  CA_2 
REMARK    2  A    between atoms: CA_2  and  C_3 
REMARK    3  A    between atoms: CA_2  and  CB_5 
REMARK       I    between atoms: C_3  and  N_9 
REMARK    4  A    between atoms: CB_5  and  CG_6 
REMARK    5  A    between atoms: N_9  and  CA_10 
REMARK    6  A    between atoms: CA_10  and  C_11 
REMARK    7  A    between atoms: CA_10  and  CB_13 
REMARK       I    between atoms: C_11  and  N_17 
REMARK    8  A    between atoms: CB_13  and  CG_14 
REMARK    9  A    between atoms: N_17  and  CA_18 
REMARK   10  A    between atoms: CA_18  and  C_19 
REMARK   11  A    between atoms: CA_18  and  CB_21 
REMARK       I    between atoms: C_19  and  N_25 
REMARK   12  A    between atoms: CB_21  and  CG_22 
REMARK   13  A    between atoms: N_25  and  CA_26 
REMARK   14  A    between atoms: CA_26  and  C_27 
REMARK   15  A    between atoms: CA_26  and  CB_29 
REMARK   16  A    between atoms: C_27  and  O_28 
REMARK   17  A    between atoms: CB_29  and  CG_30 
REMARK   18  A    between atoms: CG_30  and  CD_31 
REMARK   19  A    between atoms: CD_31  and  CE_32 
REMARK   20  A    between atoms: CE_32  and  NZ_33 
ROOT
ATOM      1  CA  ASP d   1       7.992  13.755  14.597  0.00  0.00     0.098 C 
ATOM      2  H12 ASP d   1       8.704  13.121  14.049  0.00  0.00     0.088 H 
ENDROOT
BRANCH   1   3
ATOM      3  N   ASP d   1       7.985  15.077  13.971  0.00  0.00    -0.345 N 
ATOM      4  C   ASP d   1       7.603  15.269  12.709  0.00  0.00     0.241 C 
ATOM      5  O   ASP d   1       7.198  14.364  11.979  0.00  0.00    -0.271 OA
ATOM      6  H11 ASP d   1       8.278  15.866  14.511  0.00  0.00     0.163 HD
BRANCH   4   7
ATOM      7  CA  ASP d   1       7.677  16.708  12.212  0.00  0.00     0.098 C 
ATOM      8  H8  ASP d   1       6.750  17.004  11.698  0.00  0.00     0.088 H 
BRANCH   7   9
ATOM      9  N   ASP d   1       7.874  17.472  13.427  0.00  0.00    -0.345 N 
ATOM     10  C   ASP d   1       6.851  17.947  14.122  0.00  0.00     0.249 C 
ATOM     11  O   ASP d   1       5.679  17.831  13.754  0.00  0.00    -0.271 OA
ATOM     12  H7  ASP d   1       8.805  17.645  13.749  0.00  0.00     0.163 HD
BRANCH  10  13
ATOM     13  CA  ASP d   1       7.210  18.682  15.415  0.00  0.00     0.185 C 
ATOM     14  H4  ASP d   1       6.954  19.748  15.321  0.00  0.00     0.100 H 
BRANCH  13  15
ATOM     15  N   ASP d   1       6.433  18.064  16.535  0.00  0.00    -0.066 N 
ATOM     16  H1  ASP d   1       6.655  18.535  17.398  0.00  0.00     0.275 HD
ATOM     17  H2  ASP d   1       6.674  17.088  16.613  0.00  0.00     0.275 HD
ATOM     18  H3  ASP d   1       5.446  18.153  16.349  0.00  0.00     0.275 HD
ENDBRANCH  13  15
BRANCH  13  19
ATOM     19  CB  ASP d   1       8.714  18.534  15.711  0.00  0.00     0.050 C 
ATOM     20  H5  ASP d   1       8.992  17.477  15.587  0.00  0.00     0.052 H 
ATOM     21  H6  ASP d   1       8.897  18.841  16.751  0.00  0.00     0.052 H 
BRANCH  19  22
ATOM     22  CG  ASP d   1       9.593  19.373  14.800  0.00  0.00     0.175 C 
ATOM     23  OD1 ASP d   1       9.067  20.092  13.925  0.00  0.00    -0.648 OA
ATOM     24  OD2 ASP d   1      10.829  19.315  14.963  0.00  0.00    -0.648 OA
ENDBRANCH  19  22
ENDBRANCH  13  19
ENDBRANCH  10  13
ENDBRANCH   7   9
BRANCH   7  25
ATOM     25  CB  ASP d   1       8.873  16.878  11.274  0.00  0.00     0.043 C 
ATOM     26  H9  ASP d   1       8.756  16.190  10.424  0.00  0.00     0.052 H 
ATOM     27  H10 ASP d   1       9.792  16.628  11.824  0.00  0.00     0.052 H 
BRANCH  25  28
ATOM     28  CG  ASP d   1       8.993  18.290  10.743  0.00  0.00     0.175 C 
ATOM     29  OD1 ASP d   1       7.954  18.851  10.327  0.00  0.00    -0.648 OA
ATOM     30  OD2 ASP d   1      10.118  18.838  10.749  0.00  0.00    -0.648 OA
ENDBRANCH  25  28
ENDBRANCH   7  25
ENDBRANCH   4   7
ENDBRANCH   1   3
BRANCH   1  31
ATOM     31  C   ASP d   1       6.631  13.093  14.557  0.00  0.00     0.241 C 
ATOM     32  O   ASP d   1       5.606  13.751  14.682  0.00  0.00    -0.271 OA
ATOM     33  N   LYK d   1       6.624  11.780  14.393  0.00  0.00    -0.353 N 
ATOM     34  H15 LYK d   1       7.488  11.286  14.294  0.00  0.00     0.163 HD
BRANCH  33  35
ATOM     35  CA  LYK d   1       5.369  11.053  14.356  0.00  0.00     0.032 C 
ATOM     36  H16 LYK d   1       4.547  11.781  14.295  0.00  0.00     0.075 H 
BRANCH  35  37
ATOM     37  C   LYK d   1       5.182  10.222  15.620  0.00  0.00     0.035 C 
ATOM     38  H17 LYK d   1       5.791  10.693  16.406  0.00  0.00     0.077 H 
ATOM     39  H18 LYK d   1       5.575   9.217  15.404  0.00  0.00     0.077 H 
BRANCH  37  40
ATOM     40  O   LYK d   1       4.049  10.073  16.084  0.00  0.00    -0.399 OA
ATOM     41  H19 LYK d   1       3.684  10.922  16.304  0.00  0.00     0.209 HD
ENDBRANCH  37  40
ENDBRANCH  35  37
BRANCH  35  42
ATOM     42  CB  LYK d   1       5.318  10.157  13.119  0.00  0.00    -0.044 C 
ATOM     43  H20 LYK d   1       4.389   9.568  13.153  0.00  0.00     0.036 H 
ATOM     44  H21 LYK d   1       6.184   9.479  13.144  0.00  0.00     0.036 H 
BRANCH  42  45
ATOM     45  CG  LYK d   1       5.350  10.931  11.809  0.00  0.00    -0.062 C 
ATOM     46  H22 LYK d   1       6.188  11.643  11.837  0.00  0.00     0.033 H 
ATOM     47  H23 LYK d   1       4.404  11.481  11.698  0.00  0.00     0.033 H 
BRANCH  45  48
ATOM     48  CD  LYK d   1       5.528  10.006  10.606  0.00  0.00    -0.043 C 
ATOM     49  H24 LYK d   1       4.676   9.312  10.557  0.00  0.00     0.035 H 
ATOM     50  H25 LYK d   1       6.460   9.435  10.726  0.00  0.00     0.035 H 
BRANCH  48  51
ATOM     51  CE  LYK d   1       5.596  10.804   9.309  0.00  0.00     0.080 C 
ATOM     52  H26 LYK d   1       6.493  11.441   9.334  0.00  0.00     0.075 H 
ATOM     53  H27 LYK d   1       4.699  11.437   9.237  0.00  0.00     0.075 H 
BRANCH  51  54
ATOM     54  NZ  LYK d   1       5.663   9.931   8.100  0.00  0.00    -0.079 N 
ATOM     55  H28 LYK d   1       5.706  10.505   7.273  0.00  0.00     0.274 HD
ATOM     56  H29 LYK d   1       4.842   9.347   8.061  0.00  0.00     0.274 HD
ATOM     57  H30 LYK d   1       6.486   9.351   8.150  0.00  0.00     0.274 HD
ENDBRANCH  51  54
ENDBRANCH  48  51
ENDBRANCH  45  48
ENDBRANCH  42  45
ENDBRANCH  35  42
ENDBRANCH  33  35
ENDBRANCH   1  31
BRANCH   1  58
ATOM     58  CB  ASP d   1       8.440  13.853  16.056  0.00  0.00     0.043 C 
ATOM     59  H13 ASP d   1       8.328  12.864  16.524  0.00  0.00     0.052 H 
ATOM     60  H14 ASP d   1       7.795  14.579  16.573  0.00  0.00     0.052 H 
BRANCH  58  61
ATOM     61  CG  ASP d   1       9.886  14.298  16.206  0.00  0.00     0.175 C 
ATOM     62  OD1 ASP d   1      10.794  13.595  15.707  0.00  0.00    -0.648 OA
ATOM     63  OD2 ASP d   1      10.110  15.354  16.840  0.00  0.00    -0.648 OA
ENDBRANCH  58  61
ENDBRANCH   1  58
TORSDOF 20
