REMARK  3 active torsions:
REMARK  status: ('A' for Active; 'I' for Inactive)
REMARK    1  A    between atoms: C1_1  and  P9_9 
REMARK    2  A    between atoms: C1_1  and  C2_2 
REMARK       I    between atoms: C2_2  and  N3_3 
REMARK    3  A    between atoms: N3_3  and  O4_4 
ROOT
ATOM      1  C1  PAH d   1      96.726  47.122  24.877  0.00  0.00     0.114 C 
ATOM      2  H1  PAH d   1      97.154  47.740  24.074  0.00  0.00     0.068 H 
ATOM      3  H2  PAH d   1      97.414  46.296  25.110  0.00  0.00     0.068 H 
ENDROOT
BRANCH   1   4
ATOM      4  P9  PAH d   1      95.330  46.251  24.013  0.00  0.00     0.268 P 
ATOM      5  O6  PAH d   1      94.191  47.250  24.297  0.00  0.00    -0.639 OA
ATOM      6  O8  PAH d   1      94.928  45.058  24.683  0.00  0.00    -0.639 OA
ATOM      7  O7  PAH d   1      95.739  46.208  22.524  0.00  0.00    -0.639 OA
ENDBRANCH   1   4
BRANCH   1   8
ATOM      8  C2  PAH d   1      96.863  47.992  26.056  0.00  0.00     0.253 C 
ATOM      9  O5  PAH d   1      97.379  47.369  27.042  0.00  0.00    -0.271 OA
ATOM     10  N3  PAH d   1      95.983  49.162  26.395  0.00  0.00    -0.237 N 
ATOM     11  H3  PAH d   1      95.540  49.018  27.280  0.00  0.00     0.197 HD
BRANCH  10  12
ATOM     12  O4  PAH d   1      95.595  50.390  25.851  0.00  0.00    -0.287 OA
ATOM     13  H4  PAH d   1      96.362  50.936  25.725  0.00  0.00     0.244 HD
ENDBRANCH  10  12
ENDBRANCH   1   8
TORSDOF 3
