REMARK  11 active torsions:
REMARK  status: ('A' for Active; 'I' for Inactive)
REMARK    1  A    between atoms: C6_7  and  C9_10 
REMARK       I    between atoms: C9_10  and  N11_12 
REMARK    2  A    between atoms: N11_12  and  C13_14 
REMARK    3  A    between atoms: C13_14  and  C14_15 
REMARK    4  A    between atoms: C14_15  and  O15_16 
REMARK    5  A    between atoms: O15_16  and  C16_17 
REMARK    6  A    between atoms: C16_17  and  C17_18 
REMARK    7  A    between atoms: C17_18  and  O18_19 
REMARK    8  A    between atoms: O18_19  and  C19_20 
REMARK    9  A    between atoms: C19_20  and  C20_21 
REMARK   10  A    between atoms: C20_21  and  N21_22 
REMARK       I    between atoms: N21_22  and  C22_23 
REMARK   11  A    between atoms: C22_23  and  C23_24 
ROOT
ATOM      1  C16 CP4 d   1      -1.674  35.224  66.444  0.00  0.00     0.039 C 
ATOM      2  H11 CP4 d   1      -0.924  35.472  67.209  0.00  0.00     0.077 H 
ATOM      3  H12 CP4 d   1      -1.571  35.913  65.593  0.00  0.00     0.077 H 
ENDROOT
BRANCH   1   4
ATOM      4  O15 CP4 d   1      -3.011  35.310  67.003  0.00  0.00    -0.387 OA
BRANCH   4   5
ATOM      5  C14 CP4 d   1      -3.663  36.593  66.867  0.00  0.00     0.034 C 
ATOM      6  H9  CP4 d   1      -3.196  37.176  66.059  0.00  0.00     0.076 H 
ATOM      7  H10 CP4 d   1      -4.733  36.458  66.651  0.00  0.00     0.076 H 
BRANCH   5   8
ATOM      8  C13 CP4 d   1      -3.475  37.303  68.218  0.00  0.00     0.015 C 
ATOM      9  H7  CP4 d   1      -2.411  37.241  68.491  0.00  0.00     0.067 H 
ATOM     10  H8  CP4 d   1      -3.760  38.358  68.092  0.00  0.00     0.067 H 
BRANCH   8  11
ATOM     11  N11 CP4 d   1      -4.265  36.746  69.328  0.00  0.00    -0.354 N 
ATOM     12  C9  CP4 d   1      -3.673  36.110  70.393  0.00  0.00     0.268 C 
ATOM     13  O12 CP4 d   1      -2.452  35.934  70.466  0.00  0.00    -0.266 OA
ATOM     14  H6  CP4 d   1      -5.261  36.833  69.307  0.00  0.00     0.162 HD
BRANCH  12  15
ATOM     15  C6  CP4 d   1      -4.484  35.622  71.546  0.00  0.00     0.102 A 
ATOM     16  C2  CP4 d   1      -5.814  35.705  71.715  0.00  0.00    -0.040 A 
ATOM     17  C0  CP4 d   1      -6.128  35.074  73.049  0.00  0.00    -0.005 A 
ATOM     18  H1  CP4 d   1      -6.529  36.144  71.021  0.00  0.00     0.088 H 
ATOM     19  C1  CP4 d   1      -4.867  34.692  73.510  0.00  0.00     0.043 A 
ATOM     20  C3  CP4 d   1      -7.310  34.844  73.797  0.00  0.00    -0.050 A 
ATOM     21  N4  CP4 d   1      -3.947  35.035  72.592  0.00  0.00    -0.351 N 
ATOM     22  C5  CP4 d   1      -4.700  34.042  74.769  0.00  0.00    -0.055 A 
ATOM     23  H3  CP4 d   1      -2.938  34.858  72.696  0.00  0.00     0.166 HD
ATOM     24  C8  CP4 d   1      -5.884  33.802  75.547  0.00  0.00    -0.060 A 
ATOM     25  H4  CP4 d   1      -3.721  33.742  75.124  0.00  0.00     0.087 H 
ATOM     26  C7  CP4 d   1      -7.173  34.198  75.064  0.00  0.00     0.035 A 
ATOM     27  H5  CP4 d   1      -5.801  33.315  76.512  0.00  0.00     0.086 H 
ATOM     28 CL10 CP4 d   1      -8.588  33.884  76.023  0.00  0.00    -0.084 Cl
ATOM     29  H2  CP4 d   1      -8.281  35.147  73.422  0.00  0.00     0.087 H 
ENDBRANCH  12  15
ENDBRANCH   8  11
ENDBRANCH   5   8
ENDBRANCH   4   5
ENDBRANCH   1   4
BRANCH   1  30
ATOM     30  C17 CP4 d   1      -1.497  33.759  65.974  0.00  0.00     0.039 C 
ATOM     31  H13 CP4 d   1      -1.613  33.080  66.832  0.00  0.00     0.077 H 
ATOM     32  H14 CP4 d   1      -0.496  33.630  65.537  0.00  0.00     0.077 H 
BRANCH  30  33
ATOM     33  O18 CP4 d   1      -2.498  33.460  64.983  0.00  0.00    -0.387 OA
BRANCH  33  34
ATOM     34  C19 CP4 d   1      -2.911  32.076  64.952  0.00  0.00     0.034 C 
ATOM     35  H15 CP4 d   1      -4.003  32.020  64.832  0.00  0.00     0.076 H 
ATOM     36  H16 CP4 d   1      -2.619  31.583  65.891  0.00  0.00     0.076 H 
BRANCH  34  37
ATOM     37  C20 CP4 d   1      -2.218  31.366  63.753  0.00  0.00     0.015 C 
ATOM     38  H17 CP4 d   1      -2.354  30.280  63.867  0.00  0.00     0.067 H 
ATOM     39  H18 CP4 d   1      -1.145  31.606  63.781  0.00  0.00     0.067 H 
BRANCH  37  40
ATOM     40  N21 CP4 d   1      -2.751  31.767  62.436  0.00  0.00    -0.354 N 
ATOM     41  C22 CP4 d   1      -2.058  32.599  61.604  0.00  0.00     0.268 C 
ATOM     42  O24 CP4 d   1      -0.959  33.056  61.908  0.00  0.00    -0.266 OA
ATOM     43  H19 CP4 d   1      -3.643  31.420  62.146  0.00  0.00     0.162 HD
BRANCH  41  44
ATOM     44  C23 CP4 d   1      -2.583  32.981  60.252  0.00  0.00     0.102 A 
ATOM     45  N25 CP4 d   1      -1.846  33.657  59.390  0.00  0.00    -0.351 N 
ATOM     46  C27 CP4 d   1      -2.502  33.878  58.230  0.00  0.00     0.043 A 
ATOM     47  H20 CP4 d   1      -0.886  33.977  59.579  0.00  0.00     0.166 HD
ATOM     48  C28 CP4 d   1      -3.785  33.310  58.318  0.00  0.00    -0.005 A 
ATOM     49  C29 CP4 d   1      -2.066  34.562  57.056  0.00  0.00    -0.055 A 
ATOM     50  C26 CP4 d   1      -3.793  32.711  59.702  0.00  0.00    -0.040 A 
ATOM     51  C30 CP4 d   1      -4.711  33.375  57.246  0.00  0.00    -0.050 A 
ATOM     52  H21 CP4 d   1      -4.612  32.167  60.169  0.00  0.00     0.088 H 
ATOM     53  C32 CP4 d   1      -4.295  34.049  56.056  0.00  0.00     0.035 A 
ATOM     54  H23 CP4 d   1      -5.697  32.931  57.326  0.00  0.00     0.087 H 
ATOM     55  C31 CP4 d   1      -2.988  34.637  55.963  0.00  0.00    -0.060 A 
ATOM     56 CL33 CP4 d   1      -5.390  34.152  54.706  0.00  0.00    -0.084 Cl
ATOM     57  H24 CP4 d   1      -2.695  35.145  55.051  0.00  0.00     0.086 H 
ATOM     58  H22 CP4 d   1      -1.079  35.006  56.994  0.00  0.00     0.087 H 
ENDBRANCH  41  44
ENDBRANCH  37  40
ENDBRANCH  34  37
ENDBRANCH  33  34
ENDBRANCH  30  33
ENDBRANCH   1  30
TORSDOF 11
