REMARK  26 active torsions:
REMARK  status: ('A' for Active; 'I' for Inactive)
REMARK    1  A    between atoms: CT1_2  and  OT2_3 
REMARK       I    between atoms: N_8  and  CT1_2 
REMARK    2  A    between atoms: OT2_3  and  CT2_4 
REMARK    3  A    between atoms: CT2_4  and  CT5_7 
REMARK    4  A    between atoms: CT2_4  and  CT4_6 
REMARK    5  A    between atoms: CT2_4  and  CT3_5 
REMARK    6  A    between atoms: CA_9  and  N_8 
REMARK    7  A    between atoms: C_10  and  CA_9 
REMARK    8  A    between atoms: CA_9  and  CB_12 
REMARK       I    between atoms: N_19  and  C_10 
REMARK    9  A    between atoms: CB_12  and  CG_13 
REMARK   10  A    between atoms: CA_20  and  N_19 
REMARK   11  A    between atoms: C_21  and  CA_20 
REMARK   12  A    between atoms: CA_20  and  CB_23 
REMARK       I    between atoms: N_29  and  C_21 
REMARK   13  A    between atoms: CB_23  and  CG_24 
REMARK   14  A    between atoms: CA_30  and  N_29 
REMARK   15  A    between atoms: P_35  and  CA_30 
REMARK   16  A    between atoms: CA_30  and  CB_31 
REMARK   17  A    between atoms: CB_31  and  CG_32 
REMARK   18  A    between atoms: CG_32  and  CD2_34 
REMARK   19  A    between atoms: CG_32  and  CD1_33 
REMARK   20  A    between atoms: CM_38  and  P_35 
REMARK   21  A    between atoms: C_39  and  CM_38 
REMARK       I    between atoms: C_39  and  N_41 
REMARK   22  A    between atoms: N_41  and  CA_42 
REMARK   23  A    between atoms: CA_42  and  CB_43 
REMARK   24  A    between atoms: CB_43  and  CG2_45 
REMARK   25  A    between atoms: CB_43  and  CG1_44 
REMARK   26  A    between atoms: CG1_44  and  CD1_46 
ROOT
ATOM      1  CA  0EM d   1       2.345  30.671  16.518  0.00  0.00     0.094 C 
ATOM      2  H20 0EM d   1       2.236  30.076  15.600  0.00  0.00     0.088 H 
ENDROOT
BRANCH   1   3
ATOM      3  C   0EM d   1       3.017  32.015  16.217  0.00  0.00     0.241 C 
ATOM      4  O   0EM d   1       2.565  33.057  16.673  0.00  0.00    -0.271 OA
ATOM      5  N   0EM d   1       4.097  31.957  15.455  0.00  0.00    -0.345 N 
ATOM      6  H26 0EM d   1       4.400  31.064  15.124  0.00  0.00     0.163 HD
BRANCH   5   7
ATOM      7  CA  0EM d   1       4.868  33.142  15.075  0.00  0.00     0.088 C 
ATOM      8  H27 0EM d   1       4.449  34.015  15.597  0.00  0.00     0.089 H 
BRANCH   7   9
ATOM      9  P   0EM d   1       4.822  33.449  13.296  0.00  0.00     0.138 P 
ATOM     10  O2  0EM d   1       5.834  34.525  13.015  0.00  0.00    -0.666 OA
ATOM     11  O1  0EM d   1       5.103  32.161  12.558  0.00  0.00    -0.666 OA
BRANCH   9  12
ATOM     12  CM  0EM d   1       3.225  34.114  12.759  0.00  0.00     0.082 C 
ATOM     13  H37 0EM d   1       2.409  33.501  13.168  0.00  0.00     0.063 H 
ATOM     14  H38 0EM d   1       3.170  34.111  11.660  0.00  0.00     0.063 H 
BRANCH  12  15
ATOM     15  C   0EM d   1       3.108  35.542  13.278  0.00  0.00     0.227 C 
ATOM     16  O   0EM d   1       2.602  35.770  14.372  0.00  0.00    -0.273 OA
ATOM     17  N   0EM d   1       3.572  36.538  12.525  0.00  0.00    -0.360 N 
ATOM     18  H39 0EM d   1       3.983  36.347  11.633  0.00  0.00     0.162 HD
BRANCH  17  19
ATOM     19  CA  0EM d   1       3.474  37.923  13.018  0.00  0.00    -0.002 C 
ATOM     20  H40 0EM d   1       4.295  38.104  13.728  0.00  0.00     0.064 H 
ATOM     21  H41 0EM d   1       2.510  38.047  13.533  0.00  0.00     0.064 H 
BRANCH  19  22
ATOM     22  CB  0EM d   1       3.564  38.944  11.900  0.00  0.00    -0.043 C 
ATOM     23  H42 0EM d   1       4.518  38.805  11.369  0.00  0.00     0.041 H 
BRANCH  22  24
ATOM     24  CG2 0EM d   1       2.419  38.752  10.912  0.00  0.00    -0.071 C 
ATOM     25  H45 0EM d   1       2.457  37.733  10.500  0.00  0.00     0.028 H 
ATOM     26  H46 0EM d   1       2.514  39.481  10.094  0.00  0.00     0.028 H 
ATOM     27  H47 0EM d   1       1.460  38.903  11.428  0.00  0.00     0.028 H 
ENDBRANCH  22  24
BRANCH  22  28
ATOM     28  CG1 0EM d   1       3.520  40.368  12.482  0.00  0.00    -0.064 C 
ATOM     29  H43 0EM d   1       3.730  40.312  13.560  0.00  0.00     0.033 H 
ATOM     30  H44 0EM d   1       2.512  40.779  12.326  0.00  0.00     0.033 H 
BRANCH  28  31
ATOM     31  CD1 0EM d   1       4.527  41.303  11.842  0.00  0.00    -0.076 C 
ATOM     32  H48 0EM d   1       4.445  42.300  12.300  0.00  0.00     0.027 H 
ATOM     33  H49 0EM d   1       4.324  41.377  10.763  0.00  0.00     0.027 H 
ATOM     34  H50 0EM d   1       5.543  40.910  11.998  0.00  0.00     0.027 H 
ENDBRANCH  28  31
ENDBRANCH  22  28
ENDBRANCH  19  22
ENDBRANCH  17  19
ENDBRANCH  12  15
ENDBRANCH   9  12
ENDBRANCH   7   9
BRANCH   7  35
ATOM     35  CB  0EM d   1       6.339  32.951  15.496  0.00  0.00    -0.034 C 
ATOM     36  H28 0EM d   1       6.876  33.900  15.351  0.00  0.00     0.037 H 
ATOM     37  H29 0EM d   1       6.791  32.173  14.863  0.00  0.00     0.037 H 
BRANCH  35  38
ATOM     38  CG  0EM d   1       6.465  32.533  16.954  0.00  0.00    -0.059 C 
ATOM     39  H30 0EM d   1       5.928  31.580  17.064  0.00  0.00     0.039 H 
BRANCH  38  40
ATOM     40  CD2 0EM d   1       5.823  33.563  17.934  0.00  0.00    -0.073 C 
ATOM     41  H34 0EM d   1       4.776  33.740  17.646  0.00  0.00     0.028 H 
ATOM     42  H35 0EM d   1       6.381  34.510  17.888  0.00  0.00     0.028 H 
ATOM     43  H36 0EM d   1       5.859  33.165  18.959  0.00  0.00     0.028 H 
ENDBRANCH  38  40
BRANCH  38  44
ATOM     44  CD1 0EM d   1       7.902  32.310  17.375  0.00  0.00    -0.073 C 
ATOM     45  H31 0EM d   1       7.932  32.011  18.433  0.00  0.00     0.028 H 
ATOM     46  H32 0EM d   1       8.472  33.241  17.241  0.00  0.00     0.028 H 
ATOM     47  H33 0EM d   1       8.346  31.516  16.757  0.00  0.00     0.028 H 
ENDBRANCH  38  44
ENDBRANCH  35  38
ENDBRANCH   7  35
ENDBRANCH   5   7
ENDBRANCH   1   3
BRANCH   1  48
ATOM     48  CB  0EM d   1       0.973  30.929  17.168  0.00  0.00     0.002 C 
ATOM     49  H21 0EM d   1       1.060  31.747  17.899  0.00  0.00     0.046 H 
ATOM     50  H22 0EM d   1       0.630  30.017  17.678  0.00  0.00     0.046 H 
BRANCH  48  51
ATOM     51  CG  0EM d   1      -0.027  31.315  16.092  0.00  0.00     0.030 A 
ATOM     52  CD2 0EM d   1       0.297  31.810  14.833  0.00  0.00     0.025 A 
ATOM     53  NE2 0EM d   1      -0.895  32.080  14.180  0.00  0.00    -0.254 NA
ATOM     54  H24 0EM d   1       1.300  31.958  14.435  0.00  0.00     0.117 H 
ATOM     55  CE1 0EM d   1      -1.951  31.732  15.020  0.00  0.00     0.063 A 
ATOM     56  ND1 0EM d   1      -1.410  31.268  16.212  0.00  0.00    -0.353 N 
ATOM     57  H25 0EM d   1      -3.011  31.810  14.784  0.00  0.00     0.143 H 
ATOM     58  H23 0EM d   1      -1.939  30.947  17.036  0.00  0.00     0.166 HD
ENDBRANCH  48  51
ENDBRANCH   1  48
BRANCH   1  59
ATOM     59  N   0EM d   1       3.188  29.962  17.518  0.00  0.00    -0.346 N 
ATOM     60  C   0EM d   1       3.402  28.671  17.448  0.00  0.00     0.241 C 
ATOM     61  O   0EM d   1       2.954  27.928  16.591  0.00  0.00    -0.271 OA
ATOM     62  H19 0EM d   1       3.602  30.484  18.263  0.00  0.00     0.163 HD
BRANCH  60  63
ATOM     63  CA  0EM d   1       4.297  28.101  18.556  0.00  0.00     0.095 C 
ATOM     64  H11 0EM d   1       4.161  28.687  19.477  0.00  0.00     0.088 H 
BRANCH  63  65
ATOM     65  CB  0EM d   1       5.752  28.201  18.107  0.00  0.00    -0.014 C 
ATOM     66  H12 0EM d   1       5.919  29.196  17.670  0.00  0.00     0.043 H 
ATOM     67  H13 0EM d   1       5.941  27.430  17.346  0.00  0.00     0.043 H 
BRANCH  65  68
ATOM     68  CG  0EM d   1       6.730  28.002  19.258  0.00  0.00    -0.056 A 
ATOM     69  CD2 0EM d   1       7.636  29.009  19.581  0.00  0.00    -0.077 A 
ATOM     70  CE2 0EM d   1       8.540  28.839  20.622  0.00  0.00    -0.082 A 
ATOM     71  H15 0EM d   1       7.636  29.934  19.015  0.00  0.00     0.084 H 
ATOM     72  CZ  0EM d   1       8.555  27.641  21.337  0.00  0.00    -0.083 A 
ATOM     73  H17 0EM d   1       9.231  29.634  20.878  0.00  0.00     0.083 H 
ATOM     74  CE1 0EM d   1       7.656  26.643  21.017  0.00  0.00    -0.082 A 
ATOM     75  H18 0EM d   1       9.269  27.494  22.140  0.00  0.00     0.083 H 
ATOM     76  CD1 0EM d   1       6.752  26.810  19.973  0.00  0.00    -0.077 A 
ATOM     77  H16 0EM d   1       7.655  25.720  21.585  0.00  0.00     0.083 H 
ATOM     78  H14 0EM d   1       6.065  26.011  19.717  0.00  0.00     0.084 H 
ENDBRANCH  65  68
ENDBRANCH  63  65
BRANCH  63  79
ATOM     79  N   0EM d   1       3.923  26.703  18.815  0.00  0.00    -0.323 N 
ATOM     80  CT1 0EM d   1       2.780  26.381  19.394  0.00  0.00     0.362 C 
ATOM     81  OT1 0EM d   1       1.939  27.209  19.766  0.00  0.00    -0.238 OA
ATOM     82  H10 0EM d   1       4.552  25.974  18.545  0.00  0.00     0.165 HD
BRANCH  80  83
ATOM     83  OT2 0EM d   1       2.580  24.986  19.567  0.00  0.00    -0.294 OA
BRANCH  83  84
ATOM     84  CT2 0EM d   1       1.447  24.484  20.284  0.00  0.00     0.061 C 
BRANCH  84  85
ATOM     85  CT5 0EM d   1       0.179  24.760  19.472  0.00  0.00    -0.048 C 
ATOM     86  H7  0EM d   1      -0.696  24.377  20.017  0.00  0.00     0.031 H 
ATOM     87  H8  0EM d   1       0.252  24.258  18.496  0.00  0.00     0.031 H 
ATOM     88  H9  0EM d   1       0.070  25.844  19.319  0.00  0.00     0.031 H 
ENDBRANCH  84  85
BRANCH  84  89
ATOM     89  CT4 0EM d   1       1.615  22.968  20.452  0.00  0.00    -0.048 C 
ATOM     90  H4  0EM d   1       0.753  22.562  21.002  0.00  0.00     0.031 H 
ATOM     91  H5  0EM d   1       2.538  22.761  21.014  0.00  0.00     0.031 H 
ATOM     92  H6  0EM d   1       1.674  22.494  19.461  0.00  0.00     0.031 H 
ENDBRANCH  84  89
BRANCH  84  93
ATOM     93  CT3 0EM d   1       1.341  25.159  21.657  0.00  0.00    -0.048 C 
ATOM     94  H1  0EM d   1       0.467  24.762  22.194  0.00  0.00     0.031 H 
ATOM     95  H2  0EM d   1       1.228  26.245  21.524  0.00  0.00     0.031 H 
ATOM     96  H3  0EM d   1       2.252  24.953  22.238  0.00  0.00     0.031 H 
ENDBRANCH  84  93
ENDBRANCH  83  84
ENDBRANCH  80  83
ENDBRANCH  63  79
ENDBRANCH  60  63
ENDBRANCH   1  59
TORSDOF 26
