REMARK WARNING: 32 MAX_TORS EXCEEDED!!!
REMARK  58 active torsions:
REMARK  status: ('A' for Active; 'I' for Inactive)
REMARK    1  A    between atoms: CA_2  and  N_1 
REMARK    2  A    between atoms: CA_2  and  CB_5 
REMARK    3  A    between atoms: C_3  and  CA_2 
REMARK       I    between atoms: N1_12  and  C_3 
REMARK    4  A    between atoms: CB_5  and  CG_6 
REMARK    5  A    between atoms: CG_6  and  CD_7 
REMARK    6  A    between atoms: CD_7  and  NE_8 
REMARK       I    between atoms: NE_8  and  CZ_9 
REMARK       I    between atoms: CZ_9  and  NH2_11 
REMARK       I    between atoms: CZ_9  and  NH1_10 
REMARK    7  A    between atoms: C_18  and  C6_17 
REMARK       I    between atoms: N_20  and  C_18 
REMARK    8  A    between atoms: CA_21  and  N_20 
REMARK    9  A    between atoms: C_22  and  CA_21 
REMARK   10  A    between atoms: CA_21  and  CB_24 
REMARK       I    between atoms: N_30  and  C_22 
REMARK   11  A    between atoms: CB_24  and  CG_25 
REMARK   12  A    between atoms: CA_31  and  N_30 
REMARK   13  A    between atoms: C2_32  and  CA_31 
REMARK   14  A    between atoms: C3_33  and  C2_32 
REMARK   15  A    between atoms: C4_34  and  C3_33 
REMARK   16  A    between atoms: C5_35  and  C4_34 
REMARK   17  A    between atoms: C6_36  and  C5_35 
REMARK   18  A    between atoms: C7_37  and  C6_36 
REMARK   19  A    between atoms: C8_38  and  C7_37 
REMARK   20  A    between atoms: C9_39  and  C8_38 
REMARK   21  A    between atoms: C10_40  and  C9_39 
REMARK   22  A    between atoms: CA2_41  and  C10_40 
REMARK   23  A    between atoms: C_42  and  CA2_41 
REMARK       I    between atoms: N_44  and  C_42 
REMARK   24  A    between atoms: N_44  and  CA_45 
REMARK   25  A    between atoms: CA_45  and  CB_48 
REMARK   26  A    between atoms: CA_45  and  C_46 
REMARK       I    between atoms: C_46  and  N_52 
REMARK   27  A    between atoms: CB_48  and  CG_49 
REMARK   28  A    between atoms: N_52  and  CA_53 
REMARK   29  A    between atoms: CA_53  and  CB_56 
REMARK   30  A    between atoms: CA_53  and  C_54 
REMARK       I    between atoms: C_54  and  N_64 
REMARK   31  A    between atoms: CB_56  and  CG_57 
REMARK   32  A    between atoms: CZ_62  and  OH_63 
REMARK   33  A    between atoms: N_64  and  CA_65 
REMARK   34  A    between atoms: CA_65  and  CB_68 
REMARK   35  A    between atoms: CA_65  and  C_66 
REMARK       I    between atoms: C_66  and  N_73 
REMARK   36  A    between atoms: CB_68  and  CG_69 
REMARK   37  A    between atoms: CG_69  and  CD_70 
REMARK   38  A    between atoms: CA_74  and  C_75 
REMARK       I    between atoms: C_75  and  N_80 
REMARK   39  A    between atoms: N_80  and  CA_81 
REMARK   40  A    between atoms: CA_81  and  CB_84 
REMARK   41  A    between atoms: CA_81  and  C_82 
REMARK       I    between atoms: C_82  and  N_88 
REMARK   42  A    between atoms: CB_84  and  CG2_86 
REMARK   43  A    between atoms: CB_84  and  CG1_85 
REMARK   44  A    between atoms: CG1_85  and  CD1_87 
REMARK   45  A    between atoms: CA_89  and  C_90 
REMARK       I    between atoms: C_90  and  N_95 
REMARK   46  A    between atoms: N_95  and  CA_96 
REMARK   47  A    between atoms: CA_96  and  CB_99 
REMARK   48  A    between atoms: CA_96  and  C_97 
REMARK       I    between atoms: C_97  and  N_104 
REMARK   49  A    between atoms: CB_99  and  CG_100 
REMARK   50  A    between atoms: CG_100  and  CD_101 
REMARK   51  A    between atoms: N_104  and  CA_105 
REMARK   52  A    between atoms: CA_105  and  CB_108 
REMARK   53  A    between atoms: CA_105  and  C_106 
REMARK       I    between atoms: C_106  and  N_113 
REMARK   54  A    between atoms: CB_108  and  CG_109 
REMARK   55  A    between atoms: CG_109  and  CD_110 
REMARK   56  A    between atoms: N_113  and  CA_114 
REMARK   57  A    between atoms: CA_114  and  CB_117 
REMARK   58  A    between atoms: CA_114  and  C_115 
ROOT
ATOM      1  CA  TYR d   1       7.442  21.273   1.577  0.00  0.00     0.093 C 
ATOM      2  H60 TYR d   1       6.628  21.826   2.069  0.00  0.00     0.088 H 
ENDROOT
BRANCH   1   3
ATOM      3  N   TYR d   1       7.277  19.885   1.994  0.00  0.00    -0.346 N 
ATOM      4  C   ASP d   1       6.130  19.230   1.899  0.00  0.00     0.241 C 
ATOM      5  O   ASP d   1       5.135  19.706   1.363  0.00  0.00    -0.271 OA
ATOM      6  H59 TYR d   1       8.069  19.404   2.370  0.00  0.00     0.163 HD
BRANCH   4   7
ATOM      7  CA  ASP d   1       6.122  17.797   2.459  0.00  0.00     0.098 C 
ATOM      8  H56 ASP d   1       5.525  17.166   1.785  0.00  0.00     0.088 H 
BRANCH   7   9
ATOM      9  N   ASP d   1       7.455  17.213   2.589  0.00  0.00    -0.347 N 
ATOM     10  C   DOA d   1       8.313  17.092   1.583  0.00  0.00     0.218 C 
ATOM     11  O   DOA d   1       8.064  17.473   0.436  0.00  0.00    -0.274 OA
ATOM     12  H55 ASP d   1       7.738  16.885   3.490  0.00  0.00     0.163 HD
BRANCH  10  13
ATOM     13  CA2 DOA d   1       9.654  16.444   1.916  0.00  0.00     0.009 C 
ATOM     14  H53 DOA d   1       9.493  15.363   2.039  0.00  0.00     0.047 H 
ATOM     15  H54 DOA d   1      10.340  16.620   1.074  0.00  0.00     0.047 H 
BRANCH  13  16
ATOM     16  C10 DOA d   1      10.316  16.983   3.200  0.00  0.00    -0.057 C 
ATOM     17  H51 DOA d   1      11.407  16.938   3.071  0.00  0.00     0.033 H 
ATOM     18  H52 DOA d   1      10.006  18.030   3.335  0.00  0.00     0.033 H 
BRANCH  16  19
ATOM     19  C9  DOA d   1       9.947  16.200   4.477  0.00  0.00    -0.065 C 
ATOM     20  H49 DOA d   1       8.948  16.513   4.815  0.00  0.00     0.033 H 
ATOM     21  H50 DOA d   1       9.937  15.124   4.249  0.00  0.00     0.033 H 
BRANCH  19  22
ATOM     22  C8  DOA d   1      10.971  16.469   5.606  0.00  0.00    -0.065 C 
ATOM     23  H47 DOA d   1      11.953  16.094   5.283  0.00  0.00     0.033 H 
ATOM     24  H48 DOA d   1      11.030  17.555   5.773  0.00  0.00     0.033 H 
BRANCH  22  25
ATOM     25  C7  DOA d   1      10.601  15.790   6.935  0.00  0.00    -0.065 C 
ATOM     26  H45 DOA d   1       9.784  16.359   7.403  0.00  0.00     0.033 H 
ATOM     27  H46 DOA d   1      10.259  14.766   6.722  0.00  0.00     0.033 H 
BRANCH  25  28
ATOM     28  C6  DOA d   1      11.784  15.717   7.930  0.00  0.00    -0.065 C 
ATOM     29  H43 DOA d   1      11.561  14.940   8.676  0.00  0.00     0.033 H 
ATOM     30  H44 DOA d   1      12.690  15.440   7.371  0.00  0.00     0.033 H 
BRANCH  28  31
ATOM     31  C5  DOA d   1      12.058  17.034   8.672  0.00  0.00    -0.065 C 
ATOM     32  H41 DOA d   1      12.389  17.789   7.944  0.00  0.00     0.033 H 
ATOM     33  H42 DOA d   1      11.127  17.371   9.152  0.00  0.00     0.033 H 
BRANCH  31  34
ATOM     34  C4  DOA d   1      13.154  16.875   9.761  0.00  0.00    -0.065 C 
ATOM     35  H39 DOA d   1      12.899  16.018  10.402  0.00  0.00     0.033 H 
ATOM     36  H40 DOA d   1      14.121  16.691   9.270  0.00  0.00     0.033 H 
BRANCH  34  37
ATOM     37  C3  DOA d   1      13.269  18.136  10.635  0.00  0.00    -0.064 C 
ATOM     38  H37 DOA d   1      13.335  19.010   9.970  0.00  0.00     0.033 H 
ATOM     39  H38 DOA d   1      12.361  18.211  11.251  0.00  0.00     0.033 H 
BRANCH  37  40
ATOM     40  C2  DOA d   1      14.484  18.153  11.570  0.00  0.00    -0.050 C 
ATOM     41  H35 DOA d   1      15.316  17.622  11.084  0.00  0.00     0.035 H 
ATOM     42  H36 DOA d   1      14.775  19.197  11.757  0.00  0.00     0.035 H 
BRANCH  40  43
ATOM     43  CA  DOA d   1      14.181  17.484  12.891  0.00  0.00    -0.005 C 
ATOM     44  H33 DOA d   1      13.098  17.551  13.074  0.00  0.00     0.064 H 
ATOM     45  H34 DOA d   1      14.476  16.427  12.820  0.00  0.00     0.064 H 
BRANCH  43  46
ATOM     46  N   DOA d   1      14.879  18.083  14.027  0.00  0.00    -0.359 N 
ATOM     47  C   TIH d   1      15.658  17.407  14.870  0.00  0.00     0.240 C 
ATOM     48  O   TIH d   1      15.850  16.188  14.775  0.00  0.00    -0.271 OA
ATOM     49  H32 DOA d   1      14.764  19.064  14.181  0.00  0.00     0.162 HD
BRANCH  47  50
ATOM     50  CA  TIH d   1      16.297  18.194  16.022  0.00  0.00     0.093 C 
ATOM     51  H26 TIH d   1      15.475  18.655  16.590  0.00  0.00     0.088 H 
BRANCH  50  52
ATOM     52  N   TIH d   1      17.001  17.300  16.943  0.00  0.00    -0.346 N 
ATOM     53  C   CPI d   1      16.680  17.305  18.245  0.00  0.00     0.241 C 
ATOM     54  O1  CPI d   1      15.870  18.069  18.711  0.00  0.00    -0.271 OA
ATOM     55  H25 TIH d   1      17.717  16.690  16.603  0.00  0.00     0.163 HD
BRANCH  53  56
ATOM     56  C6  CPI d   1      17.377  16.317  19.193  0.00  0.00     0.091 C 
ATOM     57  N1  CPI d   1      17.321  16.825  20.569  0.00  0.00    -0.337 N 
ATOM     58  C2  CPI d   1      18.085  18.075  20.767  0.00  0.00    -0.001 C 
ATOM     59  C   ARG d   1      16.517  16.380  21.552  0.00  0.00     0.251 C 
ATOM     60  C3  CPI d   1      19.501  17.661  20.756  0.00  0.00    -0.050 C 
ATOM     61  H16 CPI d   1      17.825  18.539  21.730  0.00  0.00     0.064 H 
ATOM     62  H17 CPI d   1      17.883  18.785  19.951  0.00  0.00     0.064 H 
ATOM     63  C4  CPI d   1      19.674  17.312  19.403  0.00  0.00    -0.061 C 
ATOM     64  H18 CPI d   1      19.675  16.801  21.419  0.00  0.00     0.035 H 
ATOM     65  H19 CPI d   1      20.165  18.488  21.047  0.00  0.00     0.035 H 
ATOM     66  C5  CPI d   1      18.893  16.165  18.923  0.00  0.00    -0.038 C 
ATOM     67  H20 CPI d   1      20.738  17.081  19.250  0.00  0.00     0.033 H 
ATOM     68  H21 CPI d   1      19.397  18.185  18.794  0.00  0.00     0.033 H 
ATOM     69  H22 CPI d   1      19.251  15.258  19.432  0.00  0.00     0.036 H 
ATOM     70  H23 CPI d   1      19.048  16.063  17.839  0.00  0.00     0.036 H 
ATOM     71  O   ARG d   1      16.642  16.823  22.714  0.00  0.00    -0.271 OA
ATOM     72  H24 CPI d   1      16.880  15.339  19.116  0.00  0.00     0.087 H 
BRANCH  59  73
ATOM     73  CA  ARG d   1      15.511  15.240  21.294  0.00  0.00     0.176 C 
ATOM     74  H4  ARG d   1      15.885  14.696  20.414  0.00  0.00     0.099 H 
BRANCH  73  75
ATOM     75  N   ARG d   1      15.335  14.164  22.443  0.00  0.00    -0.067 N 
ATOM     76  H1  ARG d   1      14.656  13.476  22.158  0.00  0.00     0.275 HD
ATOM     77  H2  ARG d   1      15.018  14.620  23.285  0.00  0.00     0.275 HD
ATOM     78  H3  ARG d   1      16.219  13.711  22.618  0.00  0.00     0.275 HD
ENDBRANCH  73  75
BRANCH  73  79
ATOM     79  CB  ARG d   1      14.157  15.809  20.942  0.00  0.00    -0.029 C 
ATOM     80  H5  ARG d   1      13.468  14.986  20.702  0.00  0.00     0.036 H 
ATOM     81  H6  ARG d   1      14.257  16.471  20.069  0.00  0.00     0.036 H 
BRANCH  79  82
ATOM     82  CG  ARG d   1      13.601  16.604  22.115  0.00  0.00    -0.047 C 
ATOM     83  H7  ARG d   1      14.280  17.439  22.344  0.00  0.00     0.035 H 
ATOM     84  H8  ARG d   1      13.517  15.947  22.994  0.00  0.00     0.035 H 
BRANCH  82  85
ATOM     85  CD  ARG d   1      12.225  17.154  21.762  0.00  0.00     0.009 C 
ATOM     86  H9  ARG d   1      11.625  16.334  21.340  0.00  0.00     0.064 H 
ATOM     87  H10 ARG d   1      12.354  17.942  21.005  0.00  0.00     0.064 H 
BRANCH  85  88
ATOM     88  NE  ARG d   1      11.482  17.729  22.906  0.00  0.00    -0.227 N 
ATOM     89  CZ  ARG d   1      11.714  18.924  23.435  0.00  0.00     0.665 C 
ATOM     90  NH2 ARG d   1      11.017  19.324  24.472  0.00  0.00    -0.235 N 
ATOM     91  NH1 ARG d   1      12.666  19.699  22.930  0.00  0.00    -0.235 N 
ATOM     92  H14 ARG d   1      10.279  18.720  24.861  0.00  0.00     0.174 HD
ATOM     93  H15 ARG d   1      11.208  20.242  24.897  0.00  0.00     0.174 HD
ATOM     94  H12 ARG d   1      12.847  20.627  23.340  0.00  0.00     0.174 HD
ATOM     95  H13 ARG d   1      13.224  19.373  22.128  0.00  0.00     0.174 HD
ATOM     96  H11 ARG d   1      10.730  17.160  23.322  0.00  0.00     0.177 HD
ENDBRANCH  85  88
ENDBRANCH  82  85
ENDBRANCH  79  82
ENDBRANCH  73  79
ENDBRANCH  59  73
ENDBRANCH  53  56
ENDBRANCH  50  52
BRANCH  50  97
ATOM     97  CB  TIH d   1      17.185  19.342  15.522  0.00  0.00    -0.008 C 
ATOM     98  H27 TIH d   1      17.509  19.928  16.394  0.00  0.00     0.044 H 
ATOM     99  H28 TIH d   1      16.581  19.977  14.857  0.00  0.00     0.044 H 
BRANCH  97 100
ATOM    100  CG  TIH d   1      18.420  18.906  14.762  0.00  0.00    -0.015 A 
ATOM    101  CD  TIH d   1      18.715  19.265  13.454  0.00  0.00    -0.070 A 
ATOM    102  CE1 TIH d   1      20.030  18.836  13.020  0.00  0.00    -0.076 A 
ATOM    103  H29 TIH d   1      18.026  19.816  12.816  0.00  0.00     0.085 H 
ATOM    104  CE2 TIH d   1      20.742  18.130  14.019  0.00  0.00    -0.045 A 
ATOM    105  H30 TIH d   1      20.429  19.036  12.027  0.00  0.00     0.084 H 
ATOM    106  SD  TIH d   1      19.711  18.074  15.380  0.00  0.00    -0.106 SA
ATOM    107  H31 TIH d   1      21.743  17.709  13.937  0.00  0.00     0.095 H 
ENDBRANCH  97 100
ENDBRANCH  50  97
ENDBRANCH  47  50
ENDBRANCH  43  46
ENDBRANCH  40  43
ENDBRANCH  37  40
ENDBRANCH  34  37
ENDBRANCH  31  34
ENDBRANCH  28  31
ENDBRANCH  25  28
ENDBRANCH  22  25
ENDBRANCH  19  22
ENDBRANCH  16  19
ENDBRANCH  13  16
ENDBRANCH  10  13
ENDBRANCH   7   9
BRANCH   7 108
ATOM    108  CB  ASP d   1       5.486  17.803   3.855  0.00  0.00     0.043 C 
ATOM    109  H57 ASP d   1       5.884  18.661   4.417  0.00  0.00     0.052 H 
ATOM    110  H58 ASP d   1       5.761  16.869   4.368  0.00  0.00     0.052 H 
BRANCH 108 111
ATOM    111  CG  ASP d   1       3.976  17.908   3.824  0.00  0.00     0.175 C 
ATOM    112  OD1 ASP d   1       3.364  17.644   4.879  0.00  0.00    -0.648 OA
ATOM    113  OD2 ASP d   1       3.394  18.246   2.770  0.00  0.00    -0.648 OA
ENDBRANCH 108 111
ENDBRANCH   7 108
ENDBRANCH   4   7
ENDBRANCH   1   3
BRANCH   1 114
ATOM    114  CB  TYR d   1       8.761  21.805   2.154  0.00  0.00    -0.014 C 
ATOM    115  H61 TYR d   1       8.862  22.871   1.903  0.00  0.00     0.043 H 
ATOM    116  H62 TYR d   1       9.600  21.245   1.716  0.00  0.00     0.043 H 
BRANCH 114 117
ATOM    117  CG  TYR d   1       8.786  21.643   3.655  0.00  0.00    -0.056 A 
ATOM    118  CD1 TYR d   1       9.210  20.447   4.238  0.00  0.00    -0.074 A 
ATOM    119  CE1 TYR d   1       9.068  20.222   5.597  0.00  0.00    -0.051 A 
ATOM    120  H63 TYR d   1       9.658  19.681   3.616  0.00  0.00     0.084 H 
ATOM    121  CZ  TYR d   1       8.506  21.202   6.397  0.00  0.00     0.065 A 
ATOM    122  H65 TYR d   1       9.395  19.284   6.032  0.00  0.00     0.087 H 
ATOM    123  CE2 TYR d   1       8.097  22.405   5.850  0.00  0.00    -0.051 A 
ATOM    124  CD2 TYR d   1       8.240  22.620   4.485  0.00  0.00    -0.074 A 
ATOM    125  H66 TYR d   1       7.668  23.174   6.482  0.00  0.00     0.087 H 
ATOM    126  H64 TYR d   1       7.921  23.564   4.058  0.00  0.00     0.084 H 
BRANCH 121 127
ATOM    127  OH  TYR d   1       8.304  20.956   7.734  0.00  0.00    -0.361 OA
ATOM    128  H67 TYR d   1       8.638  20.093   7.950  0.00  0.00     0.217 HD
ENDBRANCH 121 127
ENDBRANCH 114 117
ENDBRANCH   1 114
BRANCH   1 129
ATOM    129  C   TYR d   1       7.316  21.618   0.102  0.00  0.00     0.241 C 
ATOM    130  O   TYR d   1       7.778  20.867  -0.763  0.00  0.00    -0.271 OA
ATOM    131  N   GLU d   1       6.646  22.740  -0.167  0.00  0.00    -0.346 N 
ATOM    132  H68 GLU d   1       6.254  23.256   0.595  0.00  0.00     0.163 HD
BRANCH 131 133
ATOM    133  CA  GLU d   1       6.459  23.250  -1.526  0.00  0.00     0.090 C 
ATOM    134  H69 GLU d   1       6.205  22.413  -2.192  0.00  0.00     0.087 H 
BRANCH 133 135
ATOM    135  CB  GLU d   1       5.339  24.298  -1.579  0.00  0.00    -0.029 C 
ATOM    136  H70 GLU d   1       5.435  24.952  -0.700  0.00  0.00     0.037 H 
ATOM    137  H71 GLU d   1       4.373  23.774  -1.542  0.00  0.00     0.037 H 
BRANCH 135 138
ATOM    138  CG  GLU d   1       5.365  25.175  -2.838  0.00  0.00     0.018 C 
ATOM    139  H72 GLU d   1       5.120  24.541  -3.703  0.00  0.00     0.049 H 
ATOM    140  H73 GLU d   1       6.382  25.577  -2.955  0.00  0.00     0.049 H 
BRANCH 138 141
ATOM    141  CD  GLU d   1       4.397  26.339  -2.817  0.00  0.00     0.172 C 
ATOM    142  OE2 GLU d   1       3.314  26.201  -2.233  0.00  0.00    -0.648 OA
ATOM    143  OE1 GLU d   1       4.709  27.398  -3.394  0.00  0.00    -0.648 OA
ENDBRANCH 138 141
ENDBRANCH 135 138
ENDBRANCH 133 135
BRANCH 133 144
ATOM    144  C   GLU d   1       7.746  23.908  -1.998  0.00  0.00     0.243 C 
ATOM    145  O   GLU d   1       8.329  24.737  -1.297  0.00  0.00    -0.271 OA
ATOM    146  N   PRO d   1       8.210  23.550  -3.201  0.00  0.00    -0.337 N 
ATOM    147  CA  PRO d   1       9.442  24.154  -3.705  0.00  0.00     0.091 C 
ATOM    148  CD  PRO d   1       7.685  22.547  -4.148  0.00  0.00    -0.001 C 
ATOM    149  CB  PRO d   1       9.493  23.648  -5.140  0.00  0.00    -0.036 C 
ATOM    150  H74 PRO d   1      10.313  23.801  -3.134  0.00  0.00     0.087 H 
ATOM    151  CG  PRO d   1       8.880  22.276  -5.015  0.00  0.00    -0.048 C 
ATOM    152  H75 PRO d   1      10.529  23.590  -5.506  0.00  0.00     0.036 H 
ATOM    153  H76 PRO d   1       8.902  24.289  -5.811  0.00  0.00     0.036 H 
ATOM    154  H77 PRO d   1       8.580  21.881  -5.997  0.00  0.00     0.035 H 
ATOM    155  H78 PRO d   1       9.573  21.571  -4.532  0.00  0.00     0.035 H 
ATOM    156  H79 PRO d   1       6.849  22.953  -4.736  0.00  0.00     0.064 H 
ATOM    157  H80 PRO d   1       7.357  21.637  -3.624  0.00  0.00     0.064 H 
BRANCH 147 158
ATOM    158  C   PRO d   1       9.390  25.680  -3.642  0.00  0.00     0.241 C 
ATOM    159  O   PRO d   1       8.353  26.289  -3.876  0.00  0.00    -0.271 OA
ATOM    160  N   ILE d   1      10.508  26.278  -3.263  0.00  0.00    -0.346 N 
ATOM    161  H81 ILE d   1      11.303  25.715  -3.037  0.00  0.00     0.163 HD
BRANCH 160 162
ATOM    162  CA  ILE d   1      10.622  27.716  -3.164  0.00  0.00     0.092 C 
ATOM    163  H82 ILE d   1       9.665  28.151  -2.840  0.00  0.00     0.088 H 
BRANCH 162 164
ATOM    164  CB  ILE d   1      11.735  28.104  -2.168  0.00  0.00    -0.030 C 
ATOM    165  H83 ILE d   1      12.650  27.558  -2.441  0.00  0.00     0.043 H 
BRANCH 164 166
ATOM    166  CG2 ILE d   1      12.028  29.594  -2.256  0.00  0.00    -0.071 C 
ATOM    167  H86 ILE d   1      12.306  29.853  -3.288  0.00  0.00     0.028 H 
ATOM    168  H87 ILE d   1      12.858  29.845  -1.579  0.00  0.00     0.028 H 
ATOM    169  H88 ILE d   1      11.132  30.162  -1.964  0.00  0.00     0.028 H 
ENDBRANCH 164 166
BRANCH 164 170
ATOM    170  CG1 ILE d   1      11.343  27.697  -0.747  0.00  0.00    -0.063 C 
ATOM    171  H84 ILE d   1      11.030  26.642  -0.761  0.00  0.00     0.033 H 
ATOM    172  H85 ILE d   1      10.499  28.325  -0.426  0.00  0.00     0.033 H 
BRANCH 170 173
ATOM    173  CD1 ILE d   1      12.458  27.849   0.255  0.00  0.00    -0.076 C 
ATOM    174  H89 ILE d   1      12.103  27.539   1.249  0.00  0.00     0.027 H 
ATOM    175  H90 ILE d   1      12.777  28.901   0.292  0.00  0.00     0.027 H 
ATOM    176  H91 ILE d   1      13.308  27.218  -0.044  0.00  0.00     0.027 H 
ENDBRANCH 170 173
ENDBRANCH 164 170
ENDBRANCH 162 164
BRANCH 162 177
ATOM    177  C   ILE d   1      10.999  28.228  -4.545  0.00  0.00     0.243 C 
ATOM    178  O   ILE d   1      11.950  27.734  -5.155  0.00  0.00    -0.271 OA
ATOM    179  N   PRO d   1      10.220  29.179  -5.086  0.00  0.00    -0.337 N 
ATOM    180  CA  PRO d   1      10.491  29.754  -6.407  0.00  0.00     0.091 C 
ATOM    181  CD  PRO d   1       8.949  29.689  -4.548  0.00  0.00    -0.001 C 
ATOM    182  CB  PRO d   1       9.317  30.710  -6.607  0.00  0.00    -0.036 C 
ATOM    183  H92 PRO d   1      10.530  28.985  -7.192  0.00  0.00     0.087 H 
ATOM    184  CG  PRO d   1       8.224  30.093  -5.796  0.00  0.00    -0.048 C 
ATOM    185  H93 PRO d   1       9.034  30.769  -7.668  0.00  0.00     0.036 H 
ATOM    186  H94 PRO d   1       9.562  31.716  -6.236  0.00  0.00     0.036 H 
ATOM    187  H95 PRO d   1       7.429  30.821  -5.578  0.00  0.00     0.035 H 
ATOM    188  H96 PRO d   1       7.792  29.220  -6.307  0.00  0.00     0.035 H 
ATOM    189  H97 PRO d   1       9.113  30.550  -3.884  0.00  0.00     0.064 H 
ATOM    190  H98 PRO d   1       8.402  28.905  -4.004  0.00  0.00     0.064 H 
BRANCH 180 191
ATOM    191  C   PRO d   1      11.801  30.532  -6.354  0.00  0.00     0.241 C 
ATOM    192  O   PRO d   1      12.282  30.859  -5.272  0.00  0.00    -0.271 OA
ATOM    193  N   GLU d   1      12.361  30.849  -7.515  0.00  0.00    -0.346 N 
ATOM    194  H99 GLU d   1      11.920  30.557  -8.364  0.00  0.00     0.163 HD
BRANCH 193 195
ATOM    195  CA  GLU d   1      13.603  31.612  -7.585  0.00  0.00     0.090 C 
ATOM    196 0H10 GLU d   1      14.326  31.212  -6.858  0.00  0.00     0.087 H 
BRANCH 195 197
ATOM    197  CB  GLU d   1      14.193  31.503  -8.991  0.00  0.00    -0.029 C 
ATOM    198 1H10 GLU d   1      15.152  32.042  -9.009  0.00  0.00     0.037 H 
ATOM    199 2H10 GLU d   1      13.494  31.973  -9.699  0.00  0.00     0.037 H 
BRANCH 197 200
ATOM    200  CG  GLU d   1      14.441  30.060  -9.442  0.00  0.00     0.018 C 
ATOM    201 3H10 GLU d   1      13.630  29.427  -9.053  0.00  0.00     0.049 H 
ATOM    202 4H10 GLU d   1      15.401  29.723  -9.025  0.00  0.00     0.049 H 
BRANCH 200 203
ATOM    203  CD  GLU d   1      14.491  29.909 -10.961  0.00  0.00     0.172 C 
ATOM    204  OE2 GLU d   1      13.410  29.788 -11.582  0.00  0.00    -0.648 OA
ATOM    205  OE1 GLU d   1      15.606  29.903 -11.532  0.00  0.00    -0.648 OA
ENDBRANCH 200 203
ENDBRANCH 197 200
ENDBRANCH 195 197
BRANCH 195 206
ATOM    206  C   GLU d   1      13.284  33.069  -7.239  0.00  0.00     0.241 C 
ATOM    207  O   GLU d   1      13.349  33.957  -8.088  0.00  0.00    -0.271 OA
ATOM    208  N   GLU d   1      12.889  33.284  -5.990  0.00  0.00    -0.346 N 
ATOM    209 5H10 GLU d   1      12.836  32.501  -5.371  0.00  0.00     0.163 HD
BRANCH 208 210
ATOM    210  CA  GLU d   1      12.529  34.596  -5.470  0.00  0.00     0.090 C 
ATOM    211 6H10 GLU d   1      12.807  35.385  -6.184  0.00  0.00     0.087 H 
BRANCH 210 212
ATOM    212  CB  GLU d   1      11.021  34.656  -5.189  0.00  0.00    -0.029 C 
ATOM    213 7H10 GLU d   1      10.877  34.678  -4.099  0.00  0.00     0.037 H 
ATOM    214 8H10 GLU d   1      10.560  33.747  -5.601  0.00  0.00     0.037 H 
BRANCH 212 215
ATOM    215  CG  GLU d   1      10.304  35.868  -5.789  0.00  0.00     0.018 C 
ATOM    216 9H10 GLU d   1      11.038  36.677  -5.918  0.00  0.00     0.049 H 
ATOM    217 0H11 GLU d   1       9.521  36.191  -5.087  0.00  0.00     0.049 H 
BRANCH 215 218
ATOM    218  CD  GLU d   1       9.650  35.588  -7.146  0.00  0.00     0.172 C 
ATOM    219  OE2 GLU d   1      10.206  34.801  -7.952  0.00  0.00    -0.648 OA
ATOM    220  OE1 GLU d   1       8.570  36.168  -7.406  0.00  0.00    -0.648 OA
ENDBRANCH 215 218
ENDBRANCH 212 215
ENDBRANCH 210 212
BRANCH 210 221
ATOM    221  C   GLU d   1      13.306  34.751  -4.168  0.00  0.00     0.241 C 
ATOM    222  O   GLU d   1      12.712  34.883  -3.097  0.00  0.00    -0.271 OA
ATOM    223  N   ALA d   1      14.631  34.681  -4.313  0.00  0.00    -0.345 N 
ATOM    224 1H11 ALA d   1      14.965  34.546  -5.246  0.00  0.00     0.163 HD
BRANCH 223 225
ATOM    225  CA  ALA d   1      15.658  34.778  -3.267  0.00  0.00     0.093 C 
ATOM    226 2H11 ALA d   1      16.264  35.678  -3.450  0.00  0.00     0.089 H 
BRANCH 225 227
ATOM    227  CB  ALA d   1      15.060  34.881  -1.867  0.00  0.00    -0.048 C 
ATOM    228 3H11 ALA d   1      15.870  34.951  -1.126  0.00  0.00     0.030 H 
ATOM    229 4H11 ALA d   1      14.451  33.988  -1.662  0.00  0.00     0.030 H 
ATOM    230 5H11 ALA d   1      14.427  35.779  -1.804  0.00  0.00     0.030 H 
ENDBRANCH 225 227
BRANCH 225 231
ATOM    231  C   ALA d   1      16.550  33.542  -3.371  0.00  0.00     0.196 C 
ATOM    232  O   ALA d   1      17.773  33.681  -3.173  0.00  0.00    -0.646 OA
ATOM    233  OXT ALA d   1      16.019  32.451  -3.676  0.00  0.00    -0.646 OA
ENDBRANCH 225 231
ENDBRANCH 223 225
ENDBRANCH 210 221
ENDBRANCH 208 210
ENDBRANCH 195 206
ENDBRANCH 193 195
ENDBRANCH 180 191
ENDBRANCH 162 177
ENDBRANCH 160 162
ENDBRANCH 147 158
ENDBRANCH 133 144
ENDBRANCH 131 133
ENDBRANCH   1 129
TORSDOF 58
