REMARK WARNING: 32 MAX_TORS EXCEEDED!!!
REMARK  63 active torsions:
REMARK  status: ('A' for Active; 'I' for Inactive)
REMARK    1  A    between atoms: CA_2  and  N_1 
REMARK    2  A    between atoms: CA_2  and  CB_5 
REMARK    3  A    between atoms: C_3  and  CA_2 
REMARK       I    between atoms: N1_12  and  C_3 
REMARK    4  A    between atoms: CB_5  and  CG_6 
REMARK    5  A    between atoms: CG_6  and  CD_7 
REMARK    6  A    between atoms: CD_7  and  NE_8 
REMARK       I    between atoms: NE_8  and  CZ_9 
REMARK       I    between atoms: CZ_9  and  NH1_10 
REMARK    7  A    between atoms: C_18  and  C6_17 
REMARK       I    between atoms: N_20  and  C_18 
REMARK    8  A    between atoms: CA_21  and  N_20 
REMARK    9  A    between atoms: CA_21  and  CB_24 
REMARK   10  A    between atoms: C_22  and  CA_21 
REMARK       I    between atoms: N_28  and  C_22 
REMARK   11  A    between atoms: CB_24  and  CG_25 
REMARK   12  A    between atoms: CG_25  and  CD_26 
REMARK   13  A    between atoms: CD_26  and  CE_27 
REMARK   14  A    between atoms: CA_29  and  N_28 
REMARK   15  A    between atoms: C2_30  and  CA_29 
REMARK   16  A    between atoms: C3_31  and  C2_30 
REMARK   17  A    between atoms: C4_32  and  C3_31 
REMARK   18  A    between atoms: C5_33  and  C4_32 
REMARK   19  A    between atoms: C6_34  and  C5_33 
REMARK   20  A    between atoms: C7_35  and  C6_34 
REMARK   21  A    between atoms: C8_36  and  C7_35 
REMARK   22  A    between atoms: C9_37  and  C8_36 
REMARK   23  A    between atoms: C10_38  and  C9_37 
REMARK   24  A    between atoms: CA2_39  and  C10_38 
REMARK   25  A    between atoms: C_40  and  CA2_39 
REMARK       I    between atoms: C_40  and  N_42 
REMARK   26  A    between atoms: N_42  and  CA_43 
REMARK   27  A    between atoms: CA_43  and  CB_46 
REMARK   28  A    between atoms: CA_43  and  C_44 
REMARK       I    between atoms: C_44  and  N_50 
REMARK   29  A    between atoms: CB_46  and  CG_47 
REMARK   30  A    between atoms: N_50  and  CA_51 
REMARK   31  A    between atoms: CA_51  and  CB_54 
REMARK   32  A    between atoms: CA_51  and  C_52 
REMARK       I    between atoms: C_52  and  N_62 
REMARK   33  A    between atoms: CB_54  and  CG_55 
REMARK   34  A    between atoms: CZ_60  and  OH_61 
REMARK   35  A    between atoms: N_62  and  CA_63 
REMARK   36  A    between atoms: CA_63  and  CB_66 
REMARK   37  A    between atoms: CA_63  and  C_64 
REMARK       I    between atoms: C_64  and  N_71 
REMARK   38  A    between atoms: CB_66  and  CG_67 
REMARK   39  A    between atoms: CG_67  and  CD_68 
REMARK   40  A    between atoms: CA_72  and  C_73 
REMARK       I    between atoms: C_73  and  N_78 
REMARK   41  A    between atoms: N_78  and  CA_79 
REMARK   42  A    between atoms: CA_79  and  CB_82 
REMARK   43  A    between atoms: CA_79  and  C_80 
REMARK       I    between atoms: C_80  and  N_86 
REMARK   44  A    between atoms: CB_82  and  CG2_84 
REMARK   45  A    between atoms: CB_82  and  CG1_83 
REMARK   46  A    between atoms: CG1_83  and  CD1_85 
REMARK   47  A    between atoms: CA_87  and  C_88 
REMARK       I    between atoms: C_88  and  N_93 
REMARK   48  A    between atoms: N_93  and  CA_94 
REMARK   49  A    between atoms: CA_94  and  CB_97 
REMARK   50  A    between atoms: CA_94  and  C_95 
REMARK       I    between atoms: C_95  and  N_102 
REMARK   51  A    between atoms: CB_97  and  CG_98 
REMARK   52  A    between atoms: CG_98  and  CD_99 
REMARK   53  A    between atoms: N_102  and  CA_103 
REMARK   54  A    between atoms: CA_103  and  CB_106 
REMARK   55  A    between atoms: CA_103  and  C_104 
REMARK       I    between atoms: C_104  and  N_111 
REMARK   56  A    between atoms: CB_106  and  CG_107 
REMARK   57  A    between atoms: CG_107  and  CD_108 
REMARK   58  A    between atoms: N_111  and  CA_112 
REMARK   59  A    between atoms: CA_112  and  CB_115 
REMARK   60  A    between atoms: CA_112  and  C_113 
REMARK       I    between atoms: C_113  and  N_116 
REMARK   61  A    between atoms: N_116  and  CA_117 
REMARK   62  A    between atoms: CA_117  and  CB_120 
REMARK   63  A    between atoms: CA_117  and  C_118 
ROOT
ATOM      1  CA  TYR d   1       7.404  21.236   1.559  0.00  0.00     0.093 C 
ATOM      2  H64 TYR d   1       6.603  21.819   2.037  0.00  0.00     0.088 H 
ENDROOT
BRANCH   1   3
ATOM      3  N   TYR d   1       7.160  19.858   1.980  0.00  0.00    -0.346 N 
ATOM      4  C   ASP d   1       5.951  19.311   1.998  0.00  0.00     0.241 C 
ATOM      5  O   ASP d   1       4.958  19.877   1.559  0.00  0.00    -0.271 OA
ATOM      6  H63 TYR d   1       7.940  19.302   2.268  0.00  0.00     0.163 HD
BRANCH   4   7
ATOM      7  CA  ASP d   1       5.860  17.881   2.539  0.00  0.00     0.098 C 
ATOM      8  H60 ASP d   1       5.247  17.299   1.835  0.00  0.00     0.088 H 
BRANCH   7   9
ATOM      9  N   ASP d   1       7.137  17.188   2.696  0.00  0.00    -0.347 N 
ATOM     10  C   DOA d   1       8.003  16.996   1.703  0.00  0.00     0.218 C 
ATOM     11  O   DOA d   1       7.819  17.416   0.559  0.00  0.00    -0.274 OA
ATOM     12  H59 ASP d   1       7.374  16.838   3.602  0.00  0.00     0.163 HD
BRANCH  10  13
ATOM     13  CA2 DOA d   1       9.275  16.230   2.043  0.00  0.00     0.009 C 
ATOM     14  H57 DOA d   1       8.997  15.196   2.296  0.00  0.00     0.047 H 
ATOM     15  H58 DOA d   1       9.923  16.228   1.154  0.00  0.00     0.047 H 
BRANCH  13  16
ATOM     16  C10 DOA d   1      10.073  16.813   3.218  0.00  0.00    -0.057 C 
ATOM     17  H55 DOA d   1      11.141  16.613   3.047  0.00  0.00     0.033 H 
ATOM     18  H56 DOA d   1       9.903  17.899   3.249  0.00  0.00     0.033 H 
BRANCH  16  19
ATOM     19  C9  DOA d   1       9.680  16.221   4.578  0.00  0.00    -0.065 C 
ATOM     20  H53 DOA d   1       8.760  16.710   4.931  0.00  0.00     0.033 H 
ATOM     21  H54 DOA d   1       9.500  15.142   4.462  0.00  0.00     0.033 H 
BRANCH  19  22
ATOM     22  C8  DOA d   1      10.794  16.435   5.619  0.00  0.00    -0.065 C 
ATOM     23  H51 DOA d   1      11.683  15.865   5.311  0.00  0.00     0.033 H 
ATOM     24  H52 DOA d   1      11.041  17.506   5.661  0.00  0.00     0.033 H 
BRANCH  22  25
ATOM     25  C7  DOA d   1      10.366  15.971   7.013  0.00  0.00    -0.065 C 
ATOM     26  H49 DOA d   1       9.706  16.735   7.449  0.00  0.00     0.033 H 
ATOM     27  H50 DOA d   1       9.815  15.024   6.912  0.00  0.00     0.033 H 
BRANCH  25  28
ATOM     28  C6  DOA d   1      11.550  15.748   7.966  0.00  0.00    -0.065 C 
ATOM     29  H47 DOA d   1      11.247  15.015   8.728  0.00  0.00     0.033 H 
ATOM     30  H48 DOA d   1      12.391  15.344   7.383  0.00  0.00     0.033 H 
BRANCH  28  31
ATOM     31  C5  DOA d   1      12.027  17.022   8.684  0.00  0.00    -0.065 C 
ATOM     32  H45 DOA d   1      12.563  17.660   7.966  0.00  0.00     0.033 H 
ATOM     33  H46 DOA d   1      11.153  17.563   9.075  0.00  0.00     0.033 H 
BRANCH  31  34
ATOM     34  C4  DOA d   1      12.977  16.674   9.862  0.00  0.00    -0.065 C 
ATOM     35  H43 DOA d   1      12.423  16.069  10.595  0.00  0.00     0.033 H 
ATOM     36  H44 DOA d   1      13.824  16.091   9.471  0.00  0.00     0.033 H 
BRANCH  34  37
ATOM     37  C3  DOA d   1      13.523  17.924  10.567  0.00  0.00    -0.064 C 
ATOM     38  H41 DOA d   1      14.034  18.547   9.819  0.00  0.00     0.033 H 
ATOM     39  H42 DOA d   1      12.674  18.481  10.990  0.00  0.00     0.033 H 
BRANCH  37  40
ATOM     40  C2  DOA d   1      14.515  17.621  11.702  0.00  0.00    -0.050 C 
ATOM     41  H39 DOA d   1      14.963  16.632  11.527  0.00  0.00     0.035 H 
ATOM     42  H40 DOA d   1      15.304  18.387  11.698  0.00  0.00     0.035 H 
BRANCH  40  43
ATOM     43  CA  DOA d   1      13.834  17.620  13.073  0.00  0.00    -0.005 C 
ATOM     44  H37 DOA d   1      12.980  18.313  13.042  0.00  0.00     0.064 H 
ATOM     45  H38 DOA d   1      13.473  16.603  13.285  0.00  0.00     0.064 H 
BRANCH  43  46
ATOM     46  N   DOA d   1      14.721  18.028  14.140  0.00  0.00    -0.359 N 
ATOM     47  C   NLE d   1      15.367  17.228  14.978  0.00  0.00     0.240 C 
ATOM     48  O   NLE d   1      15.267  16.001  14.913  0.00  0.00    -0.271 OA
ATOM     49  H36 DOA d   1      14.861  19.011  14.258  0.00  0.00     0.162 HD
BRANCH  47  50
ATOM     50  CA  NLE d   1      16.268  17.855  16.047  0.00  0.00     0.089 C 
ATOM     51  H26 NLE d   1      15.557  18.457  16.631  0.00  0.00     0.087 H 
BRANCH  50  52
ATOM     52  N   NLE d   1      16.843  17.017  17.062  0.00  0.00    -0.346 N 
ATOM     53  C   CPI d   1      16.549  17.152  18.349  0.00  0.00     0.241 C 
ATOM     54  O1  CPI d   1      15.764  18.035  18.774  0.00  0.00    -0.271 OA
ATOM     55  H25 NLE d   1      17.489  16.305  16.788  0.00  0.00     0.163 HD
BRANCH  53  56
ATOM     56  C6  CPI d   1      17.229  16.202  19.324  0.00  0.00     0.091 C 
ATOM     57  N1  CPI d   1      17.224  16.689  20.697  0.00  0.00    -0.337 N 
ATOM     58  C2  CPI d   1      17.970  17.970  20.872  0.00  0.00    -0.001 C 
ATOM     59  C   ARG d   1      16.394  16.249  21.659  0.00  0.00     0.251 C 
ATOM     60  C3  CPI d   1      19.421  17.568  20.827  0.00  0.00    -0.050 C 
ATOM     61  H16 CPI d   1      17.725  18.434  21.838  0.00  0.00     0.064 H 
ATOM     62  H17 CPI d   1      17.735  18.672  20.058  0.00  0.00     0.064 H 
ATOM     63  C4  CPI d   1      19.601  17.104  19.455  0.00  0.00    -0.061 C 
ATOM     64  H18 CPI d   1      19.628  16.762  21.546  0.00  0.00     0.035 H 
ATOM     65  H19 CPI d   1      20.074  18.427  21.041  0.00  0.00     0.035 H 
ATOM     66  C5  CPI d   1      18.706  15.981  19.001  0.00  0.00    -0.038 C 
ATOM     67  H20 CPI d   1      20.642  16.764  19.351  0.00  0.00     0.033 H 
ATOM     68  H21 CPI d   1      19.427  17.961  18.787  0.00  0.00     0.033 H 
ATOM     69  H22 CPI d   1      19.034  15.054  19.495  0.00  0.00     0.036 H 
ATOM     70  H23 CPI d   1      18.811  15.873  17.911  0.00  0.00     0.036 H 
ATOM     71  O   ARG d   1      16.462  16.679  22.810  0.00  0.00    -0.271 OA
ATOM     72  H24 CPI d   1      16.698  15.240  19.278  0.00  0.00     0.087 H 
BRANCH  59  73
ATOM     73  CA  ARG d   1      15.372  15.197  21.303  0.00  0.00     0.176 C 
ATOM     74  H4  ARG d   1      15.703  14.632  20.419  0.00  0.00     0.099 H 
BRANCH  73  75
ATOM     75  N   ARG d   1      15.319  14.318  22.477  0.00  0.00    -0.067 N 
ATOM     76  H1  ARG d   1      14.651  13.581  22.315  0.00  0.00     0.275 HD
ATOM     77  H2  ARG d   1      15.040  14.853  23.285  0.00  0.00     0.275 HD
ATOM     78  H3  ARG d   1      16.230  13.916  22.637  0.00  0.00     0.275 HD
ENDBRANCH  73  75
BRANCH  73  79
ATOM     79  CB  ARG d   1      14.006  15.812  21.011  0.00  0.00    -0.029 C 
ATOM     80  H5  ARG d   1      13.314  15.003  20.734  0.00  0.00     0.036 H 
ATOM     81  H6  ARG d   1      14.113  16.508  20.166  0.00  0.00     0.036 H 
BRANCH  79  82
ATOM     82  CG  ARG d   1      13.414  16.567  22.178  0.00  0.00    -0.047 C 
ATOM     83  H7  ARG d   1      14.103  17.372  22.474  0.00  0.00     0.035 H 
ATOM     84  H8  ARG d   1      13.274  15.875  23.022  0.00  0.00     0.035 H 
BRANCH  82  85
ATOM     85  CD  ARG d   1      12.064  17.176  21.799  0.00  0.00     0.009 C 
ATOM     86  H9  ARG d   1      11.422  16.394  21.368  0.00  0.00     0.064 H 
ATOM     87  H10 ARG d   1      12.222  17.972  21.056  0.00  0.00     0.064 H 
BRANCH  85  88
ATOM     88  NE  ARG d   1      11.409  17.740  22.976  0.00  0.00    -0.227 N 
ATOM     89  CZ  ARG d   1      11.685  18.933  23.492  0.00  0.00     0.665 C 
ATOM     90  NH2 ARG d   1      11.022  19.356  24.557  0.00  0.00    -0.235 N 
ATOM     91  NH1 ARG d   1      12.629  19.695  22.952  0.00  0.00    -0.235 N 
ATOM     92  H14 ARG d   1      10.290  18.765  24.976  0.00  0.00     0.174 HD
ATOM     93  H15 ARG d   1      11.238  20.276  24.966  0.00  0.00     0.174 HD
ATOM     94  H12 ARG d   1      12.839  20.619  23.356  0.00  0.00     0.174 HD
ATOM     95  H13 ARG d   1      13.151  19.362  22.129  0.00  0.00     0.174 HD
ATOM     96  H11 ARG d   1      10.683  17.174  23.438  0.00  0.00     0.177 HD
ENDBRANCH  85  88
ENDBRANCH  82  85
ENDBRANCH  79  82
ENDBRANCH  73  79
ENDBRANCH  59  73
ENDBRANCH  53  56
ENDBRANCH  50  52
BRANCH  50  97
ATOM     97  CB  NLE d   1      17.218  18.914  15.450  0.00  0.00    -0.038 C 
ATOM     98  H27 NLE d   1      17.530  19.597  16.254  0.00  0.00     0.036 H 
ATOM     99  H28 NLE d   1      16.672  19.479  14.680  0.00  0.00     0.036 H 
BRANCH  97 100
ATOM    100  CG  NLE d   1      18.451  18.318  14.822  0.00  0.00    -0.063 C 
ATOM    101  H29 NLE d   1      18.149  17.614  14.032  0.00  0.00     0.033 H 
ATOM    102  H30 NLE d   1      19.024  17.781  15.592  0.00  0.00     0.033 H 
BRANCH 100 103
ATOM    103  CD  NLE d   1      19.323  19.398  14.217  0.00  0.00    -0.068 C 
ATOM    104  H31 NLE d   1      19.597  20.082  15.034  0.00  0.00     0.032 H 
ATOM    105  H32 NLE d   1      18.704  19.934  13.482  0.00  0.00     0.032 H 
BRANCH 103 106
ATOM    106  CE  NLE d   1      20.598  19.018  13.520  0.00  0.00    -0.077 C 
ATOM    107  H33 NLE d   1      21.096  19.925  13.147  0.00  0.00     0.027 H 
ATOM    108  H34 NLE d   1      20.370  18.351  12.675  0.00  0.00     0.027 H 
ATOM    109  H35 NLE d   1      21.262  18.500  14.227  0.00  0.00     0.027 H 
ENDBRANCH 103 106
ENDBRANCH 100 103
ENDBRANCH  97 100
ENDBRANCH  50  97
ENDBRANCH  47  50
ENDBRANCH  43  46
ENDBRANCH  40  43
ENDBRANCH  37  40
ENDBRANCH  34  37
ENDBRANCH  31  34
ENDBRANCH  28  31
ENDBRANCH  25  28
ENDBRANCH  22  25
ENDBRANCH  19  22
ENDBRANCH  16  19
ENDBRANCH  13  16
ENDBRANCH  10  13
ENDBRANCH   7   9
BRANCH   7 110
ATOM    110  CB  ASP d   1       5.167  17.905   3.901  0.00  0.00     0.043 C 
ATOM    111  H61 ASP d   1       5.336  18.889   4.364  0.00  0.00     0.052 H 
ATOM    112  H62 ASP d   1       5.609  17.121   4.534  0.00  0.00     0.052 H 
BRANCH 110 113
ATOM    113  CG  ASP d   1       3.678  17.666   3.806  0.00  0.00     0.175 C 
ATOM    114  OD1 ASP d   1       3.042  17.542   4.871  0.00  0.00    -0.648 OA
ATOM    115  OD2 ASP d   1       3.141  17.596   2.678  0.00  0.00    -0.648 OA
ENDBRANCH 110 113
ENDBRANCH   7 110
ENDBRANCH   4   7
ENDBRANCH   1   3
BRANCH   1 116
ATOM    116  CB  TYR d   1       8.722  21.718   2.163  0.00  0.00    -0.014 C 
ATOM    117  H65 TYR d   1       8.900  22.758   1.852  0.00  0.00     0.043 H 
ATOM    118  H66 TYR d   1       9.540  21.080   1.796  0.00  0.00     0.043 H 
BRANCH 116 119
ATOM    119  CG  TYR d   1       8.687  21.654   3.663  0.00  0.00    -0.056 A 
ATOM    120  CD1 TYR d   1       8.996  20.469   4.332  0.00  0.00    -0.074 A 
ATOM    121  CE1 TYR d   1       8.845  20.362   5.705  0.00  0.00    -0.051 A 
ATOM    122  H67 TYR d   1       9.360  19.618   3.768  0.00  0.00     0.084 H 
ATOM    123  CZ  TYR d   1       8.386  21.458   6.417  0.00  0.00     0.065 A 
ATOM    124  H69 TYR d   1       9.082  19.435   6.214  0.00  0.00     0.087 H 
ATOM    125  CE2 TYR d   1       8.088  22.646   5.783  0.00  0.00    -0.051 A 
ATOM    126  CD2 TYR d   1       8.240  22.741   4.411  0.00  0.00    -0.074 A 
ATOM    127  H70 TYR d   1       7.738  23.498   6.355  0.00  0.00     0.087 H 
ATOM    128  H68 TYR d   1       8.008  23.674   3.911  0.00  0.00     0.084 H 
BRANCH 123 129
ATOM    129  OH  TYR d   1       8.184  21.377   7.765  0.00  0.00    -0.361 OA
ATOM    130  H71 TYR d   1       8.428  20.511   8.069  0.00  0.00     0.217 HD
ENDBRANCH 123 129
ENDBRANCH 116 119
ENDBRANCH   1 116
BRANCH   1 131
ATOM    131  C   TYR d   1       7.333  21.626   0.089  0.00  0.00     0.241 C 
ATOM    132  O   TYR d   1       7.957  20.997  -0.769  0.00  0.00    -0.271 OA
ATOM    133  N   GLU d   1       6.562  22.678  -0.176  0.00  0.00    -0.346 N 
ATOM    134  H72 GLU d   1       6.072  23.112   0.580  0.00  0.00     0.163 HD
BRANCH 133 135
ATOM    135  CA  GLU d   1       6.397  23.228  -1.514  0.00  0.00     0.090 C 
ATOM    136  H73 GLU d   1       6.201  22.417  -2.231  0.00  0.00     0.087 H 
BRANCH 135 137
ATOM    137  CB  GLU d   1       5.232  24.215  -1.528  0.00  0.00    -0.029 C 
ATOM    138  H74 GLU d   1       5.365  24.917  -0.691  0.00  0.00     0.037 H 
ATOM    139  H75 GLU d   1       4.299  23.649  -1.387  0.00  0.00     0.037 H 
BRANCH 137 140
ATOM    140  CG  GLU d   1       5.110  25.020  -2.808  0.00  0.00     0.018 C 
ATOM    141  H76 GLU d   1       4.771  24.351  -3.612  0.00  0.00     0.049 H 
ATOM    142  H77 GLU d   1       6.100  25.427  -3.062  0.00  0.00     0.049 H 
BRANCH 140 143
ATOM    143  CD  GLU d   1       4.130  26.170  -2.690  0.00  0.00     0.172 C 
ATOM    144  OE2 GLU d   1       3.149  26.052  -1.926  0.00  0.00    -0.648 OA
ATOM    145  OE1 GLU d   1       4.347  27.199  -3.365  0.00  0.00    -0.648 OA
ENDBRANCH 140 143
ENDBRANCH 137 140
ENDBRANCH 135 137
BRANCH 135 146
ATOM    146  C   GLU d   1       7.692  23.955  -1.890  0.00  0.00     0.243 C 
ATOM    147  O   GLU d   1       8.201  24.782  -1.133  0.00  0.00    -0.271 OA
ATOM    148  N   PRO d   1       8.248  23.647  -3.071  0.00  0.00    -0.337 N 
ATOM    149  CA  PRO d   1       9.489  24.282  -3.523  0.00  0.00     0.091 C 
ATOM    150  CD  PRO d   1       7.765  22.679  -4.072  0.00  0.00    -0.001 C 
ATOM    151  CB  PRO d   1       9.615  23.792  -4.954  0.00  0.00    -0.036 C 
ATOM    152  H78 PRO d   1      10.337  23.928  -2.918  0.00  0.00     0.087 H 
ATOM    153  CG  PRO d   1       9.007  22.419  -4.884  0.00  0.00    -0.048 C 
ATOM    154  H79 PRO d   1      10.669  23.744  -5.266  0.00  0.00     0.036 H 
ATOM    155  H80 PRO d   1       9.056  24.439  -5.646  0.00  0.00     0.036 H 
ATOM    156  H81 PRO d   1       8.759  22.038  -5.886  0.00  0.00     0.035 H 
ATOM    157  H82 PRO d   1       9.677  21.709  -4.377  0.00  0.00     0.035 H 
ATOM    158  H83 PRO d   1       6.966  23.111  -4.692  0.00  0.00     0.064 H 
ATOM    159  H84 PRO d   1       7.401  21.758  -3.594  0.00  0.00     0.064 H 
BRANCH 149 160
ATOM    160  C   PRO d   1       9.453  25.802  -3.459  0.00  0.00     0.241 C 
ATOM    161  O   PRO d   1       8.396  26.423  -3.569  0.00  0.00    -0.271 OA
ATOM    162  N   ILE d   1      10.627  26.388  -3.284  0.00  0.00    -0.346 N 
ATOM    163  H85 ILE d   1      11.447  25.822  -3.197  0.00  0.00     0.163 HD
BRANCH 162 164
ATOM    164  CA  ILE d   1      10.752  27.827  -3.216  0.00  0.00     0.092 C 
ATOM    165  H86 ILE d   1       9.783  28.261  -2.928  0.00  0.00     0.088 H 
BRANCH 164 166
ATOM    166  CB  ILE d   1      11.815  28.235  -2.180  0.00  0.00    -0.030 C 
ATOM    167  H87 ILE d   1      12.758  27.722  -2.421  0.00  0.00     0.043 H 
BRANCH 166 168
ATOM    168  CG2 ILE d   1      12.058  29.739  -2.237  0.00  0.00    -0.071 C 
ATOM    169  H90 ILE d   1      12.377  30.021  -3.251  0.00  0.00     0.028 H 
ATOM    170  H91 ILE d   1      12.844  30.011  -1.517  0.00  0.00     0.028 H 
ATOM    171  H92 ILE d   1      11.129  30.270  -1.984  0.00  0.00     0.028 H 
ENDBRANCH 166 168
BRANCH 166 172
ATOM    172  CG1 ILE d   1      11.368  27.797  -0.783  0.00  0.00    -0.063 C 
ATOM    173  H88 ILE d   1      11.123  26.725  -0.817  0.00  0.00     0.033 H 
ATOM    174  H89 ILE d   1      10.469  28.370  -0.511  0.00  0.00     0.033 H 
BRANCH 172 175
ATOM    175  CD1 ILE d   1      12.411  28.013   0.284  0.00  0.00    -0.076 C 
ATOM    176  H93 ILE d   1      12.018  27.676   1.254  0.00  0.00     0.027 H 
ATOM    177  H94 ILE d   1      12.661  29.083   0.341  0.00  0.00     0.027 H 
ATOM    178  H95 ILE d   1      13.315  27.438   0.035  0.00  0.00     0.027 H 
ENDBRANCH 172 175
ENDBRANCH 166 172
ENDBRANCH 164 166
BRANCH 164 179
ATOM    179  C   ILE d   1      11.157  28.354  -4.590  0.00  0.00     0.243 C 
ATOM    180  O   ILE d   1      12.164  27.919  -5.153  0.00  0.00    -0.271 OA
ATOM    181  N   PRO d   1      10.339  29.246  -5.179  0.00  0.00    -0.337 N 
ATOM    182  CA  PRO d   1      10.632  29.825  -6.497  0.00  0.00     0.091 C 
ATOM    183  CD  PRO d   1       9.023  29.695  -4.693  0.00  0.00    -0.001 C 
ATOM    184  CB  PRO d   1       9.425  30.729  -6.749  0.00  0.00    -0.036 C 
ATOM    185  H96 PRO d   1      10.735  29.055  -7.276  0.00  0.00     0.087 H 
ATOM    186  CG  PRO d   1       8.325  30.051  -5.976  0.00  0.00    -0.048 C 
ATOM    187  H97 PRO d   1       9.184  30.776  -7.821  0.00  0.00     0.036 H 
ATOM    188  H98 PRO d   1       9.606  31.745  -6.369  0.00  0.00     0.036 H 
ATOM    189  H99 PRO d   1       7.482  30.734  -5.797  0.00  0.00     0.035 H 
ATOM    190 0H10 PRO d   1       7.964  29.152  -6.498  0.00  0.00     0.035 H 
ATOM    191 1H10 PRO d   1       9.117  30.570  -4.033  0.00  0.00     0.064 H 
ATOM    192 2H10 PRO d   1       8.496  28.889  -4.161  0.00  0.00     0.064 H 
BRANCH 182 193
ATOM    193  C   PRO d   1      11.908  30.652  -6.386  0.00  0.00     0.241 C 
ATOM    194  O   PRO d   1      12.300  31.025  -5.281  0.00  0.00    -0.271 OA
ATOM    195  N   GLU d   1      12.536  30.962  -7.515  0.00  0.00    -0.346 N 
ATOM    196 3H10 GLU d   1      12.159  30.651  -8.387  0.00  0.00     0.163 HD
BRANCH 195 197
ATOM    197  CA  GLU d   1      13.768  31.749  -7.506  0.00  0.00     0.090 C 
ATOM    198 4H10 GLU d   1      14.435  31.318  -6.745  0.00  0.00     0.087 H 
BRANCH 197 199
ATOM    199  CB  GLU d   1      14.465  31.662  -8.861  0.00  0.00    -0.029 C 
ATOM    200 5H10 GLU d   1      15.434  32.176  -8.782  0.00  0.00     0.037 H 
ATOM    201 6H10 GLU d   1      13.837  32.176  -9.603  0.00  0.00     0.037 H 
BRANCH 199 202
ATOM    202  CG  GLU d   1      14.718  30.248  -9.353  0.00  0.00     0.018 C 
ATOM    203 7H10 GLU d   1      14.056  29.558  -8.808  0.00  0.00     0.049 H 
ATOM    204 8H10 GLU d   1      15.767  29.984  -9.153  0.00  0.00     0.049 H 
BRANCH 202 205
ATOM    205  CD  GLU d   1      14.451  30.110 -10.847  0.00  0.00     0.172 C 
ATOM    206  OE2 GLU d   1      13.276  30.257 -11.251  0.00  0.00    -0.648 OA
ATOM    207  OE1 GLU d   1      15.410  29.865 -11.617  0.00  0.00    -0.648 OA
ENDBRANCH 202 205
ENDBRANCH 199 202
ENDBRANCH 197 199
BRANCH 197 208
ATOM    208  C   GLU d   1      13.531  33.214  -7.147  0.00  0.00     0.241 C 
ATOM    209  O   GLU d   1      13.842  34.110  -7.916  0.00  0.00    -0.271 OA
ATOM    210  N   GLU d   1      12.920  33.438  -5.994  0.00  0.00    -0.346 N 
ATOM    211 9H10 GLU d   1      12.624  32.653  -5.449  0.00  0.00     0.163 HD
BRANCH 210 212
ATOM    212  CA  GLU d   1      12.660  34.774  -5.485  0.00  0.00     0.090 C 
ATOM    213 0H11 GLU d   1      13.091  35.542  -6.144  0.00  0.00     0.087 H 
BRANCH 212 214
ATOM    214  CB  GLU d   1      11.157  35.017  -5.340  0.00  0.00    -0.029 C 
ATOM    215 1H11 GLU d   1      10.934  35.208  -4.280  0.00  0.00     0.037 H 
ATOM    216 2H11 GLU d   1      10.623  34.114  -5.671  0.00  0.00     0.037 H 
BRANCH 214 217
ATOM    217  CG  GLU d   1      10.659  36.208  -6.165  0.00  0.00     0.018 C 
ATOM    218 3H11 GLU d   1      11.503  36.604  -6.748  0.00  0.00     0.049 H 
ATOM    219 4H11 GLU d   1      10.296  36.983  -5.473  0.00  0.00     0.049 H 
BRANCH 217 220
ATOM    220  CD  GLU d   1       9.529  35.855  -7.130  0.00  0.00     0.172 C 
ATOM    221  OE2 GLU d   1       9.459  34.688  -7.586  0.00  0.00    -0.648 OA
ATOM    222  OE1 GLU d   1       8.715  36.756  -7.442  0.00  0.00    -0.648 OA
ENDBRANCH 217 220
ENDBRANCH 214 217
ENDBRANCH 212 214
BRANCH 212 223
ATOM    223  C   GLU d   1      13.365  34.755  -4.136  0.00  0.00     0.241 C 
ATOM    224  O   GLU d   1      12.732  34.766  -3.075  0.00  0.00    -0.271 OA
ATOM    225  N   ALA d   1      14.689  34.612  -4.239  0.00  0.00    -0.346 N 
ATOM    226 5H11 ALA d   1      15.051  34.553  -5.169  0.00  0.00     0.163 HD
BRANCH 225 227
ATOM    227  CA  ALA d   1      15.680  34.530  -3.157  0.00  0.00     0.086 C 
ATOM    228 6H11 ALA d   1      16.267  35.459  -3.104  0.00  0.00     0.086 H 
BRANCH 227 229
ATOM    229  CB  ALA d   1      15.038  34.269  -1.806  0.00  0.00    -0.049 C 
ATOM    230 7H11 ALA d   1      15.819  34.217  -1.033  0.00  0.00     0.030 H 
ATOM    231 8H11 ALA d   1      14.490  33.316  -1.839  0.00  0.00     0.030 H 
ATOM    232 9H11 ALA d   1      14.340  35.085  -1.568  0.00  0.00     0.030 H 
ENDBRANCH 227 229
BRANCH 227 233
ATOM    233  C   ALA d   1      16.564  33.352  -3.560  0.00  0.00     0.240 C 
ATOM    234  O   ALA d   1      17.618  33.550  -4.159  0.00  0.00    -0.271 OA
ATOM    235  N   ALA d   1      16.088  32.134  -3.288  0.00  0.00    -0.345 N 
ATOM    236 0H12 ALA d   1      15.204  32.067  -2.826  0.00  0.00     0.163 HD
BRANCH 235 237
ATOM    237  CA  ALA d   1      16.787  30.886  -3.627  0.00  0.00     0.093 C 
ATOM    238 1H12 ALA d   1      16.710  30.739  -4.714  0.00  0.00     0.089 H 
BRANCH 237 239
ATOM    239  CB  ALA d   1      18.267  30.968  -3.260  0.00  0.00    -0.048 C 
ATOM    240 2H12 ALA d   1      18.763  30.023  -3.524  0.00  0.00     0.030 H 
ATOM    241 3H12 ALA d   1      18.367  31.145  -2.179  0.00  0.00     0.030 H 
ATOM    242 4H12 ALA d   1      18.736  31.795  -3.812  0.00  0.00     0.030 H 
ENDBRANCH 237 239
BRANCH 237 243
ATOM    243  C   ALA d   1      16.145  29.684  -2.936  0.00  0.00     0.196 C 
ATOM    244  O   ALA d   1      15.399  29.898  -1.957  0.00  0.00    -0.646 OA
ATOM    245  OXT ALA d   1      16.406  28.542  -3.370  0.00  0.00    -0.646 OA
ENDBRANCH 237 243
ENDBRANCH 235 237
ENDBRANCH 227 233
ENDBRANCH 225 227
ENDBRANCH 212 223
ENDBRANCH 210 212
ENDBRANCH 197 208
ENDBRANCH 195 197
ENDBRANCH 182 193
ENDBRANCH 164 179
ENDBRANCH 162 164
ENDBRANCH 149 160
ENDBRANCH 135 146
ENDBRANCH 133 135
ENDBRANCH   1 131
TORSDOF 63
