REMARK  6 active torsions:
REMARK  status: ('A' for Active; 'I' for Inactive)
REMARK    1  A    between atoms: S2_1  and  O8_5 
REMARK    2  A    between atoms: S2_1  and  N1_2 
REMARK    3  A    between atoms: O8_5  and  C1_6 
REMARK    4  A    between atoms: C1_6  and  C2_7 
REMARK    5  A    between atoms: C7_19  and  C8_21 
REMARK    6  A    between atoms: C7_19  and  C9_20 
ROOT
ATOM      1  C2  SMS d   1      -4.952   3.684  13.851  0.00  0.00     0.219 C 
ATOM      2  C3  SMS d   1      -3.446   3.382  13.550  0.00  0.00     0.127 C 
ATOM      3  C4  SMS d   1      -2.605   4.666  13.442  0.00  0.00     0.118 C 
ATOM      4  C5  SMS d   1      -3.259   5.803  12.561  0.00  0.00     0.108 C 
ATOM      5  C6  SMS d   1      -4.756   5.656  12.445  0.00  0.00     0.051 C 
ATOM      6  O3  SMS d   1      -5.294   5.059  13.665  0.00  0.00    -0.348 OA
ATOM      7  O5  SMS d   1      -3.006   7.021  13.268  0.00  0.00    -0.243 OA
ATOM      8  S1  SMS d   1      -2.369   6.826  14.635  0.00  0.00     0.403 S 
ATOM      9  O7  SMS d   1      -1.063   7.275  14.570  0.00  0.00    -0.169 OA
ATOM     10  O6  SMS d   1      -3.179   7.427  15.628  0.00  0.00    -0.169 OA
ATOM     11  O4  SMS d   1      -2.452   5.260  14.726  0.00  0.00    -0.243 OA
ATOM     12  O2  SMS d   1      -3.460   2.803  12.258  0.00  0.00    -0.342 OA
ATOM     13  C7  SMS d   1      -4.678   2.079  12.118  0.00  0.00     0.161 C 
ATOM     14  O1  SMS d   1      -5.619   2.857  12.928  0.00  0.00    -0.315 OA
ATOM     15  H5  SMS d   1      -3.021   2.704  14.305  0.00  0.00     0.096 H 
ATOM     16  H6  SMS d   1      -1.622   4.401  13.025  0.00  0.00     0.094 H 
ATOM     17  H7  SMS d   1      -2.805   5.819  11.559  0.00  0.00     0.093 H 
ATOM     18  H8  SMS d   1      -4.994   5.009  11.587  0.00  0.00     0.078 H 
ATOM     19  H9  SMS d   1      -5.209   6.647  12.294  0.00  0.00     0.078 H 
ENDROOT
BRANCH   1  20
ATOM     20  C1  SMS d   1      -5.500   3.402  15.260  0.00  0.00     0.094 C 
ATOM     21  H3  SMS d   1      -4.973   4.014  16.007  0.00  0.00     0.085 H 
ATOM     22  H4  SMS d   1      -6.577   3.619  15.303  0.00  0.00     0.085 H 
BRANCH  20  23
ATOM     23  O8  SMS d   1      -5.257   1.991  15.498  0.00  0.00    -0.254 OA
BRANCH  23  24
ATOM     24  S2  SMS d   1      -5.749   1.335  16.839  0.00  0.00     0.355 S 
ATOM     25  O9  SMS d   1      -5.009   1.771  17.937  0.00  0.00    -0.176 OA
ATOM     26  O10 SMS d   1      -7.140   1.465  16.914  0.00  0.00    -0.176 OA
BRANCH  24  27
ATOM     27  N1  SMS d   1      -5.326  -0.162  16.621  0.00  0.00    -0.306 N 
ATOM     28  H1  SMS d   1      -5.514  -0.843  17.329  0.00  0.00     0.171 HD
ATOM     29  H2  SMS d   1      -4.869  -0.434  15.774  0.00  0.00     0.171 HD
ENDBRANCH  24  27
ENDBRANCH  23  24
ENDBRANCH  20  23
ENDBRANCH   1  20
BRANCH  13  30
ATOM     30  C8  SMS d   1      -5.085   2.136  10.667  0.00  0.00    -0.025 C 
ATOM     31  H13 SMS d   1      -4.375   1.550  10.064  0.00  0.00     0.035 H 
ATOM     32  H14 SMS d   1      -5.081   3.182  10.326  0.00  0.00     0.035 H 
ATOM     33  H15 SMS d   1      -6.096   1.717  10.553  0.00  0.00     0.035 H 
ENDBRANCH  13  30
BRANCH  13  34
ATOM     34  C9  SMS d   1      -4.561   0.639  12.607  0.00  0.00    -0.025 C 
ATOM     35  H10 SMS d   1      -3.847   0.093  11.973  0.00  0.00     0.035 H 
ATOM     36  H11 SMS d   1      -5.546   0.152  12.553  0.00  0.00     0.035 H 
ATOM     37  H12 SMS d   1      -4.206   0.633  13.648  0.00  0.00     0.035 H 
ENDBRANCH  13  34
TORSDOF 6
