REMARK  32 active torsions:
REMARK  status: ('A' for Active; 'I' for Inactive)
REMARK    1  A    between atoms: S_58  and  N_61 
REMARK    2  A    between atoms: N_64  and  S_58 
REMARK    3  A    between atoms: N_61  and  C1_62 
REMARK    4  A    between atoms: N_61  and  C2_63 
REMARK    5  A    between atoms: CA_65  and  N_64 
REMARK    6  A    between atoms: CA_65  and  CB_68 
REMARK    7  A    between atoms: C_66  and  CA_65 
REMARK       I    between atoms: N_75  and  C_66 
REMARK    8  A    between atoms: CB_68  and  CG_69 
REMARK    9  A    between atoms: CA_76  and  N_75 
REMARK   10  A    between atoms: CB_79  and  CA_76 
REMARK   11  A    between atoms: CA_76  and  C_77 
REMARK       I    between atoms: C_77  and  N_84 
REMARK   12  A    between atoms: CG_80  and  CB_79 
REMARK   13  A    between atoms: CD_81  and  CG_80 
REMARK   14  A    between atoms: CE_82  and  CD_81 
REMARK   15  A    between atoms: NZ_83  and  CE_82 
REMARK   16  A    between atoms: C_101  and  NZ_83 
REMARK   17  A    between atoms: N_84  and  CA_85 
REMARK   18  A    between atoms: CA_85  and  CB_86 
REMARK   19  A    between atoms: CA_85  and  CH_90 
REMARK   20  A    between atoms: CB_86  and  CG_87 
REMARK   21  A    between atoms: CG_87  and  CD1_88 
REMARK   22  A    between atoms: CG_87  and  CD2_89 
REMARK   23  A    between atoms: CH_90  and  OH_91 
REMARK   24  A    between atoms: CH_90  and  CM_92 
REMARK   25  A    between atoms: CM_92  and  C_93 
REMARK       I    between atoms: C_93  and  N_95 
REMARK   26  A    between atoms: N_95  and  C1_96 
REMARK   27  A    between atoms: C1_96  and  C2_97 
REMARK   28  A    between atoms: C2_97  and  C2'_98 
REMARK   29  A    between atoms: C2_97  and  C3_99 
REMARK   30  A    between atoms: C3_99  and  C4_100 
REMARK   31  A    between atoms: N_103  and  C_101 
REMARK   32  A    between atoms: N_103  and  CM_104 
ROOT
ATOM      1  H17 1Z1 d   1       2.679  30.313  15.163  0.00  0.00     0.087 H 
ATOM      2  CA  1Z1 d   1       2.471  30.931  16.049  0.00  0.00     0.089 C 
ENDROOT
BRANCH   2   3
ATOM      3  N   1Z1 d   1       3.177  30.250  17.099  0.00  0.00    -0.346 N 
ATOM      4  H16 1Z1 d   1       3.467  30.807  17.877  0.00  0.00     0.163 HD
ATOM      5  C   1Z1 d   1       3.477  28.991  17.145  0.00  0.00     0.242 C 
ATOM      6  O   1Z1 d   1       3.063  28.188  16.334  0.00  0.00    -0.271 OA
BRANCH   5   7
ATOM      7  CA  1Z1 d   1       4.275  28.498  18.338  0.00  0.00     0.101 C 
ATOM      8  H8  1Z1 d   1       4.126  29.184  19.185  0.00  0.00     0.089 H 
BRANCH   7   9
ATOM      9  N   1Z1 d   1       3.900  27.171  18.747  0.00  0.00    -0.293 N 
ATOM     10  H7  1Z1 d   1       4.410  26.367  18.441  0.00  0.00     0.174 HD
BRANCH   9  11
ATOM     11  S   1Z1 d   1       2.563  27.029  19.766  0.00  0.00     0.298 S 
ATOM     12  O1  1Z1 d   1       2.933  27.805  21.024  0.00  0.00    -0.188 OA
ATOM     13  O2  1Z1 d   1       1.366  27.508  19.297  0.00  0.00    -0.188 OA
BRANCH  11  14
ATOM     14  N   1Z1 d   1       2.487  25.402  20.327  0.00  0.00    -0.202 NA
BRANCH  14  15
ATOM     15  C1  1Z1 d   1       3.373  25.310  21.531  0.00  0.00    -0.018 C 
ATOM     16  H1  1Z1 d   1       3.353  24.282  21.923  0.00  0.00     0.050 H 
ATOM     17  H2  1Z1 d   1       3.014  26.004  22.305  0.00  0.00     0.050 H 
ATOM     18  H3  1Z1 d   1       4.403  25.576  21.250  0.00  0.00     0.050 H 
ENDBRANCH  14  15
BRANCH  14  19
ATOM     19  C2  1Z1 d   1       1.076  25.151  20.839  0.00  0.00    -0.018 C 
ATOM     20  H4  1Z1 d   1       0.997  24.117  21.205  0.00  0.00     0.050 H 
ATOM     21  H5  1Z1 d   1       0.356  25.307  20.022  0.00  0.00     0.050 H 
ATOM     22  H6  1Z1 d   1       0.855  25.848  21.660  0.00  0.00     0.050 H 
ENDBRANCH  14  19
ENDBRANCH  11  14
ENDBRANCH   9  11
ENDBRANCH   7   9
BRANCH   7  23
ATOM     23  CB  1Z1 d   1       5.768  28.506  17.904  0.00  0.00    -0.013 C 
ATOM     24  H9  1Z1 d   1       5.979  29.462  17.403  0.00  0.00     0.043 H 
ATOM     25  H10 1Z1 d   1       5.928  27.678  17.197  0.00  0.00     0.043 H 
BRANCH  23  26
ATOM     26  CG  1Z1 d   1       6.739  28.346  19.056  0.00  0.00    -0.056 A 
ATOM     27  CD1 1Z1 d   1       6.986  27.177  19.688  0.00  0.00    -0.077 A 
ATOM     28  H11 1Z1 d   1       6.447  26.305  19.336  0.00  0.00     0.084 H 
ATOM     29  CE1 1Z1 d   1       7.886  26.983  20.771  0.00  0.00    -0.082 A 
ATOM     30  H13 1Z1 d   1       8.030  26.013  21.234  0.00  0.00     0.083 H 
ATOM     31  CZ  1Z1 d   1       8.566  28.108  21.197  0.00  0.00    -0.083 A 
ATOM     32  H15 1Z1 d   1       9.273  28.043  22.016  0.00  0.00     0.083 H 
ATOM     33  CE2 1Z1 d   1       8.332  29.335  20.559  0.00  0.00    -0.082 A 
ATOM     34  H14 1Z1 d   1       8.873  30.209  20.905  0.00  0.00     0.083 H 
ATOM     35  CD2 1Z1 d   1       7.433  29.484  19.497  0.00  0.00    -0.077 A 
ATOM     36  H12 1Z1 d   1       7.277  30.449  19.029  0.00  0.00     0.084 H 
ENDBRANCH  23  26
ENDBRANCH   7  23
ENDBRANCH   5   7
ENDBRANCH   2   3
BRANCH   2  37
ATOM     37  CB  1Z1 d   1       0.978  30.906  16.110  0.00  0.00    -0.038 C 
ATOM     38  H18 1Z1 d   1       0.580  31.908  15.893  0.00  0.00     0.036 H 
ATOM     39  H19 1Z1 d   1       0.651  30.591  17.112  0.00  0.00     0.036 H 
BRANCH  37  40
ATOM     40  CG  1Z1 d   1       0.481  29.925  15.080  0.00  0.00    -0.061 C 
ATOM     41  H20 1Z1 d   1       0.670  28.892  15.406  0.00  0.00     0.033 H 
ATOM     42  H21 1Z1 d   1       0.972  30.099  14.111  0.00  0.00     0.033 H 
BRANCH  40  43
ATOM     43  CD  1Z1 d   1      -1.037  30.194  14.977  0.00  0.00    -0.050 C 
ATOM     44  H22 1Z1 d   1      -1.533  29.462  14.323  0.00  0.00     0.035 H 
ATOM     45  H23 1Z1 d   1      -1.243  31.211  14.611  0.00  0.00     0.035 H 
BRANCH  43  46
ATOM     46  CE  1Z1 d   1      -1.468  30.024  16.446  0.00  0.00    -0.005 C 
ATOM     47  H24 1Z1 d   1      -0.590  30.123  17.102  0.00  0.00     0.064 H 
ATOM     48  H25 1Z1 d   1      -1.919  29.030  16.585  0.00  0.00     0.064 H 
BRANCH  46  49
ATOM     49  NZ  1Z1 d   1      -2.436  31.046  16.774  0.00  0.00    -0.367 N 
ATOM     50  H26 1Z1 d   1      -2.377  31.990  16.449  0.00  0.00     0.161 HD
BRANCH  49  51
ATOM     51  C   1Z1 d   1      -3.486  30.561  17.614  0.00  0.00     0.167 C 
ATOM     52  S   1Z1 d   1      -4.724  31.560  18.115  0.00  0.00    -0.041 SA
BRANCH  51  53
ATOM     53  N   1Z1 d   1      -3.498  29.206  18.031  0.00  0.00    -0.372 N 
ATOM     54  H54 1Z1 d   1      -2.792  28.547  17.771  0.00  0.00     0.161 HD
BRANCH  53  55
ATOM     55  CM  1Z1 d   1      -4.647  28.861  18.883  0.00  0.00    -0.019 C 
ATOM     56  H55 1Z1 d   1      -4.588  27.799  19.165  0.00  0.00     0.056 H 
ATOM     57  H56 1Z1 d   1      -5.581  29.042  18.331  0.00  0.00     0.056 H 
ATOM     58  H57 1Z1 d   1      -4.631  29.483  19.790  0.00  0.00     0.056 H 
ENDBRANCH  53  55
ENDBRANCH  51  53
ENDBRANCH  49  51
ENDBRANCH  46  49
ENDBRANCH  43  46
ENDBRANCH  40  43
ENDBRANCH  37  40
ENDBRANCH   2  37
BRANCH   2  59
ATOM     59  C   1Z1 d   1       3.116  32.247  15.710  0.00  0.00     0.240 C 
ATOM     60  O   1Z1 d   1       2.785  33.259  16.273  0.00  0.00    -0.271 OA
ATOM     61  N   1Z1 d   1       4.098  32.222  14.774  0.00  0.00    -0.352 N 
ATOM     62  H27 1Z1 d   1       4.229  31.422  14.189  0.00  0.00     0.163 HD
BRANCH  61  63
ATOM     63  CA  1Z1 d   1       4.988  33.436  14.639  0.00  0.00     0.037 C 
ATOM     64  H28 1Z1 d   1       4.585  34.276  15.224  0.00  0.00     0.076 H 
BRANCH  63  65
ATOM     65  CB  1Z1 d   1       6.397  33.087  15.125  0.00  0.00    -0.041 C 
ATOM     66  H29 1Z1 d   1       6.986  34.014  15.075  0.00  0.00     0.036 H 
ATOM     67  H30 1Z1 d   1       6.804  32.355  14.412  0.00  0.00     0.036 H 
BRANCH  65  68
ATOM     68  CG  1Z1 d   1       6.610  32.514  16.499  0.00  0.00    -0.059 C 
ATOM     69  H31 1Z1 d   1       5.925  31.657  16.578  0.00  0.00     0.038 H 
BRANCH  68  70
ATOM     70  CD1 1Z1 d   1       7.994  32.016  16.798  0.00  0.00    -0.073 C 
ATOM     71  H32 1Z1 d   1       8.028  31.623  17.825  0.00  0.00     0.028 H 
ATOM     72  H33 1Z1 d   1       8.711  32.844  16.698  0.00  0.00     0.028 H 
ATOM     73  H34 1Z1 d   1       8.257  31.216  16.090  0.00  0.00     0.028 H 
ENDBRANCH  68  70
BRANCH  68  74
ATOM     74  CD2 1Z1 d   1       6.262  33.547  17.702  0.00  0.00    -0.073 C 
ATOM     75  H35 1Z1 d   1       5.253  33.958  17.552  0.00  0.00     0.028 H 
ATOM     76  H36 1Z1 d   1       6.995  34.367  17.705  0.00  0.00     0.028 H 
ATOM     77  H37 1Z1 d   1       6.302  33.016  18.664  0.00  0.00     0.028 H 
ENDBRANCH  68  74
ENDBRANCH  65  68
ENDBRANCH  63  65
BRANCH  63  78
ATOM     78  CH  1Z1 d   1       5.038  33.805  13.109  0.00  0.00     0.063 C 
ATOM     79  H38 1Z1 d   1       5.764  34.610  12.923  0.00  0.00     0.086 H 
BRANCH  78  80
ATOM     80  OH  1Z1 d   1       5.395  32.628  12.432  0.00  0.00    -0.393 OA
ATOM     81  H39 1Z1 d   1       5.438  32.801  11.499  0.00  0.00     0.210 HD
ENDBRANCH  78  80
BRANCH  78  82
ATOM     82  CM  1Z1 d   1       3.624  34.222  12.622  0.00  0.00     0.035 C 
ATOM     83  H40 1Z1 d   1       2.857  33.589  13.093  0.00  0.00     0.051 H 
ATOM     84  H41 1Z1 d   1       3.555  34.129  11.528  0.00  0.00     0.051 H 
BRANCH  82  85
ATOM     85  C   1Z1 d   1       3.438  35.674  13.040  0.00  0.00     0.220 C 
ATOM     86  O   1Z1 d   1       2.929  35.907  14.121  0.00  0.00    -0.274 OA
ATOM     87  N   1Z1 d   1       3.849  36.685  12.224  0.00  0.00    -0.361 N 
ATOM     88  H42 1Z1 d   1       4.090  36.530  11.266  0.00  0.00     0.162 HD
BRANCH  87  89
ATOM     89  C1  1Z1 d   1       3.916  38.028  12.845  0.00  0.00    -0.002 C 
ATOM     90  H43 1Z1 d   1       4.854  38.115  13.412  0.00  0.00     0.064 H 
ATOM     91  H44 1Z1 d   1       3.062  38.152  13.527  0.00  0.00     0.064 H 
BRANCH  89  92
ATOM     92  C2  1Z1 d   1       3.870  39.131  11.778  0.00  0.00    -0.043 C 
ATOM     93  H45 1Z1 d   1       4.784  39.142  11.166  0.00  0.00     0.041 H 
BRANCH  92  94
ATOM     94  C2' 1Z1 d   1       2.637  38.948  10.909  0.00  0.00    -0.071 C 
ATOM     95  H46 1Z1 d   1       2.606  39.739  10.145  0.00  0.00     0.028 H 
ATOM     96  H47 1Z1 d   1       1.735  39.008  11.535  0.00  0.00     0.028 H 
ATOM     97  H48 1Z1 d   1       2.678  37.965  10.417  0.00  0.00     0.028 H 
ENDBRANCH  92  94
BRANCH  92  98
ATOM     98  C3  1Z1 d   1       3.694  40.467  12.601  0.00  0.00    -0.064 C 
ATOM     99  H49 1Z1 d   1       4.160  40.346  13.590  0.00  0.00     0.033 H 
ATOM    100  H50 1Z1 d   1       2.621  40.677  12.724  0.00  0.00     0.033 H 
BRANCH  98 101
ATOM    101  C4  1Z1 d   1       4.350  41.629  11.879  0.00  0.00    -0.076 C 
ATOM    102  H51 1Z1 d   1       4.216  42.549  12.467  0.00  0.00     0.027 H 
ATOM    103  H52 1Z1 d   1       3.885  41.756  10.890  0.00  0.00     0.027 H 
ATOM    104  H53 1Z1 d   1       5.424  41.425  11.756  0.00  0.00     0.027 H 
ENDBRANCH  98 101
ENDBRANCH  92  98
ENDBRANCH  89  92
ENDBRANCH  87  89
ENDBRANCH  82  85
ENDBRANCH  78  82
ENDBRANCH  63  78
ENDBRANCH  61  63
ENDBRANCH   2  59
TORSDOF 32
