REMARK  21 active torsions:
REMARK  status: ('A' for Active; 'I' for Inactive)
REMARK    1  A    between atoms: N_4  and  S_1 
REMARK    2  A    between atoms: CA_5  and  N_4 
REMARK    3  A    between atoms: C_6  and  CA_5 
REMARK    4  A    between atoms: CA_5  and  CB_8 
REMARK       I    between atoms: N_15  and  C_6 
REMARK    5  A    between atoms: CB_8  and  CG_9 
REMARK    6  A    between atoms: CA_16  and  N_15 
REMARK    7  A    between atoms: C_17  and  CA_16 
REMARK    8  A    between atoms: CA_16  and  S_36 
REMARK       I    between atoms: N2_33  and  C_17 
REMARK    9  A    between atoms: C1_19  and  C1'_27 
REMARK   10  A    between atoms: C2_20  and  C1_19 
REMARK   11  A    between atoms: N2_33  and  C2_20 
REMARK   12  A    between atoms: C2_20  and  C3_21 
REMARK   13  A    between atoms: C3_21  and  O3_34 
REMARK   14  A    between atoms: C3_21  and  C4_22 
REMARK   15  A    between atoms: C4_22  and  O4_35 
REMARK   16  A    between atoms: C4_22  and  C5_23 
REMARK   17  A    between atoms: C5_23  and  C6_24 
REMARK   18  A    between atoms: C6_24  and  C8_26 
REMARK   19  A    between atoms: C6_24  and  C7_25 
REMARK   20  A    between atoms: S_36  and  C1_37 
REMARK   21  A    between atoms: C1_37  and  C2_38 
ROOT
ATOM      1  C2  0QF d   1       5.167  33.184  14.736  0.00  0.00     0.040 C 
ATOM      2  H14 0QF d   1       4.888  33.986  15.435  0.00  0.00     0.076 H 
ENDROOT
BRANCH   1   3
ATOM      3  C1  0QF d   1       6.663  32.880  14.900  0.00  0.00    -0.040 C 
ATOM      4  H12 0QF d   1       6.953  32.139  14.140  0.00  0.00     0.036 H 
ATOM      5  H13 0QF d   1       7.227  33.811  14.739  0.00  0.00     0.036 H 
BRANCH   3   6
ATOM      6  C1' 0QF d   1       7.029  32.323  16.287  0.00  0.00    -0.052 C 
ATOM      7  C6' 0QF d   1       8.407  32.051  16.345  0.00  0.00    -0.062 C 
ATOM      8  C5' 0QF d   1       8.768  31.389  17.679  0.00  0.00    -0.065 C 
ATOM      9  H35 0QF d   1       8.966  32.993  16.245  0.00  0.00     0.033 H 
ATOM     10  H36 0QF d   1       8.678  31.375  15.521  0.00  0.00     0.033 H 
ATOM     11  C4' 0QF d   1       8.457  32.336  18.835  0.00  0.00    -0.065 C 
ATOM     12  H33 0QF d   1       8.182  30.466  17.797  0.00  0.00     0.033 H 
ATOM     13  H34 0QF d   1       9.841  31.146  17.686  0.00  0.00     0.033 H 
ATOM     14  C3' 0QF d   1       6.991  32.763  18.769  0.00  0.00    -0.065 C 
ATOM     15  H31 0QF d   1       8.646  31.823  19.789  0.00  0.00     0.033 H 
ATOM     16  H32 0QF d   1       9.101  33.225  18.763  0.00  0.00     0.033 H 
ATOM     17  C2' 0QF d   1       6.676  33.341  17.382  0.00  0.00    -0.062 C 
ATOM     18  H29 0QF d   1       6.348  31.890  18.955  0.00  0.00     0.033 H 
ATOM     19  H30 0QF d   1       6.800  33.529  19.535  0.00  0.00     0.033 H 
ATOM     20  H27 0QF d   1       5.604  33.580  17.323  0.00  0.00     0.033 H 
ATOM     21  H28 0QF d   1       7.265  34.258  17.229  0.00  0.00     0.033 H 
ATOM     22  H26 0QF d   1       6.466  31.394  16.461  0.00  0.00     0.040 H 
ENDBRANCH   3   6
ENDBRANCH   1   3
BRANCH   1  23
ATOM     23  N2  0QF d   1       4.368  31.985  15.039  0.00  0.00    -0.351 N 
ATOM     24  C   0QF d   1       3.344  32.007  15.876  0.00  0.00     0.251 C 
ATOM     25  O   0QF d   1       2.963  33.013  16.488  0.00  0.00    -0.270 OA
ATOM     26  H37 0QF d   1       4.609  31.122  14.595  0.00  0.00     0.163 HD
BRANCH  24  27
ATOM     27  CA  0QF d   1       2.639  30.663  16.050  0.00  0.00     0.134 C 
ATOM     28  H11 0QF d   1       2.771  30.065  15.136  0.00  0.00     0.105 H 
BRANCH  27  29
ATOM     29  N   0QF d   1       3.245  29.937  17.164  0.00  0.00    -0.338 N 
ATOM     30  C   0QF d   1       3.295  28.628  17.198  0.00  0.00     0.242 C 
ATOM     31  O   0QF d   1       2.837  27.872  16.337  0.00  0.00    -0.271 OA
ATOM     32  H10 0QF d   1       3.634  30.456  17.925  0.00  0.00     0.164 HD
BRANCH  30  33
ATOM     33  CA  0QF d   1       3.988  28.078  18.420  0.00  0.00     0.101 C 
ATOM     34  H2  0QF d   1       3.968  28.829  19.224  0.00  0.00     0.089 H 
BRANCH  33  35
ATOM     35  CB  0QF d   1       5.422  27.772  18.049  0.00  0.00    -0.013 C 
ATOM     36  H3  0QF d   1       5.747  28.469  17.263  0.00  0.00     0.043 H 
ATOM     37  H4  0QF d   1       5.485  26.740  17.673  0.00  0.00     0.043 H 
BRANCH  35  38
ATOM     38  CG  0QF d   1       6.326  27.918  19.242  0.00  0.00    -0.056 A 
ATOM     39  CD2 0QF d   1       7.120  26.847  19.635  0.00  0.00    -0.077 A 
ATOM     40  CE2 0QF d   1       7.941  26.986  20.755  0.00  0.00    -0.082 A 
ATOM     41  H6  0QF d   1       7.102  25.916  19.079  0.00  0.00     0.084 H 
ATOM     42  CZ  0QF d   1       7.956  28.197  21.464  0.00  0.00    -0.083 A 
ATOM     43  H8  0QF d   1       8.566  26.160  21.076  0.00  0.00     0.083 H 
ATOM     44  CE1 0QF d   1       7.153  29.266  21.052  0.00  0.00    -0.082 A 
ATOM     45  H9  0QF d   1       8.593  28.305  22.335  0.00  0.00     0.083 H 
ATOM     46  CD1 0QF d   1       6.335  29.124  19.938  0.00  0.00    -0.077 A 
ATOM     47  H7  0QF d   1       7.169  30.201  21.600  0.00  0.00     0.083 H 
ATOM     48  H5  0QF d   1       5.708  29.946  19.613  0.00  0.00     0.084 H 
ENDBRANCH  35  38
ENDBRANCH  33  35
BRANCH  33  49
ATOM     49  N   0QF d   1       3.318  26.867  18.881  0.00  0.00    -0.292 N 
ATOM     50  H1  0QF d   1       3.476  26.012  18.388  0.00  0.00     0.174 HD
BRANCH  49  51
ATOM     51  S   0QF d   1       2.513  26.858  19.922  0.00  0.00     0.355 S 
ATOM     52  O2S 0QF d   1       1.380  27.497  19.305  0.00  0.00    -0.188 OA
ATOM     53  O1S 0QF d   1       2.915  27.757  20.973  0.00  0.00    -0.188 OA
ENDBRANCH  49  51
ENDBRANCH  33  49
ENDBRANCH  30  33
ENDBRANCH  27  29
BRANCH  27  54
ATOM     54  S   0QF d   1       0.822  30.979  16.288  0.00  0.00    -0.135 SA
BRANCH  54  55
ATOM     55  C1  0QF d   1      -0.230  29.496  15.891  0.00  0.00    -0.024 C 
ATOM     56  H40 0QF d   1      -0.439  28.954  16.825  0.00  0.00     0.048 H 
ATOM     57  H41 0QF d   1       0.330  28.843  15.206  0.00  0.00     0.048 H 
BRANCH  55  58
ATOM     58  C2  0QF d   1      -1.561  29.864  15.234  0.00  0.00    -0.068 C 
ATOM     59  H42 0QF d   1      -2.133  28.948  15.026  0.00  0.00     0.028 H 
ATOM     60  H43 0QF d   1      -1.369  30.399  14.292  0.00  0.00     0.028 H 
ATOM     61  H44 0QF d   1      -2.138  30.510  15.912  0.00  0.00     0.028 H 
ENDBRANCH  55  58
ENDBRANCH  54  55
ENDBRANCH  27  54
ENDBRANCH  24  27
ENDBRANCH   1  23
BRANCH   1  62
ATOM     62  C3  0QF d   1       4.879  33.650  13.301  0.00  0.00     0.080 C 
ATOM     63  H15 0QF d   1       5.468  34.554  13.087  0.00  0.00     0.090 H 
BRANCH  62  64
ATOM     64  O3  0QF d   1       5.233  32.629  12.377  0.00  0.00    -0.391 OA
ATOM     65  H38 0QF d   1       6.159  32.433  12.463  0.00  0.00     0.210 HD
ENDBRANCH  62  64
BRANCH  62  66
ATOM     66  C4  0QF d   1       3.385  33.969  13.162  0.00  0.00     0.062 C 
ATOM     67  H16 0QF d   1       2.804  33.087  13.467  0.00  0.00     0.086 H 
BRANCH  66  68
ATOM     68  O4  0QF d   1       3.019  35.153  14.058  0.00  0.00    -0.393 OA
ATOM     69  H39 0QF d   1       3.527  35.913  13.800  0.00  0.00     0.210 HD
ENDBRANCH  66  68
BRANCH  66  70
ATOM     70  C5  0QF d   1       3.028  34.330  11.717  0.00  0.00    -0.036 C 
ATOM     71  H17 0QF d   1       3.275  33.486  11.057  0.00  0.00     0.037 H 
ATOM     72  H18 0QF d   1       3.601  35.217  11.408  0.00  0.00     0.037 H 
BRANCH  70  73
ATOM     73  C6  0QF d   1       1.526  34.633  11.620  0.00  0.00    -0.059 C 
ATOM     74  H19 0QF d   1       1.255  35.359  12.400  0.00  0.00     0.039 H 
BRANCH  73  75
ATOM     75  C8  0QF d   1       0.718  33.347  11.820  0.00  0.00    -0.073 C 
ATOM     76  H23 0QF d   1       0.951  32.917  12.805  0.00  0.00     0.028 H 
ATOM     77  H24 0QF d   1       0.979  32.624  11.034  0.00  0.00     0.028 H 
ATOM     78  H25 0QF d   1      -0.356  33.577  11.765  0.00  0.00     0.028 H 
ENDBRANCH  73  75
BRANCH  73  79
ATOM     79  C7  0QF d   1       1.191  35.218  10.246  0.00  0.00    -0.073 C 
ATOM     80  H20 0QF d   1       0.113  35.430  10.191  0.00  0.00     0.028 H 
ATOM     81  H21 0QF d   1       1.463  34.495   9.463  0.00  0.00     0.028 H 
ATOM     82  H22 0QF d   1       1.756  36.150  10.097  0.00  0.00     0.028 H 
ENDBRANCH  73  79
ENDBRANCH  70  73
ENDBRANCH  66  70
ENDBRANCH  62  66
ENDBRANCH   1  62
TORSDOF 21
