REMARK  9 active torsions:
REMARK  status: ('A' for Active; 'I' for Inactive)
REMARK    1  A    between atoms: C1_2  and  C2_1 
REMARK    2  A    between atoms: C2_1  and  C5_9 
REMARK    3  A    between atoms: C1_2  and  B_6 
REMARK    4  A    between atoms: N1_24  and  C1_2 
REMARK    5  A    between atoms: C9_13  and  C11_3 
REMARK    6  A    between atoms: B_6  and  OB1_7 
REMARK    7  A    between atoms: B_6  and  OB2_14 
REMARK    8  A    between atoms: C25_21  and  C19_15 
REMARK    9  A    between atoms: C26_22  and  C25_21 
REMARK       I    between atoms: C26_22  and  N1_24 
ROOT
ATOM      1  C1  BJP d   1      39.344  38.156  32.503  0.00  0.00     0.049 C 
ATOM      2  H3  BJP d   1      38.831  39.123  32.612  0.00  0.00     0.065 H 
ENDROOT
BRANCH   1   3
ATOM      3  C2  BJP d   1      40.606  38.253  31.617  0.00  0.00    -0.025 C 
ATOM      4  H1  BJP d   1      41.236  39.034  32.067  0.00  0.00     0.042 H 
ATOM      5  H2  BJP d   1      40.260  38.586  30.627  0.00  0.00     0.042 H 
BRANCH   3   6
ATOM      6  C5  BJP d   1      41.538  37.039  31.363  0.00  0.00    -0.056 A 
ATOM      7  C6  BJP d   1      42.862  36.880  32.155  0.00  0.00    -0.077 A 
ATOM      8  C7  BJP d   1      43.796  35.672  31.885  0.00  0.00    -0.081 A 
ATOM      9  H5  BJP d   1      43.136  37.617  32.901  0.00  0.00     0.084 H 
ATOM     10  C8  BJP d   1      43.396  34.635  30.806  0.00  0.00    -0.066 A 
ATOM     11  H6  BJP d   1      44.717  35.555  32.444  0.00  0.00     0.083 H 
ATOM     12  C9  BJP d   1      42.074  34.816  30.030  0.00  0.00     0.041 A 
ATOM     13  H8  BJP d   1      44.040  33.788  30.597  0.00  0.00     0.085 H 
ATOM     14  C10 BJP d   1      41.140  36.001  30.294  0.00  0.00    -0.060 A 
ATOM     15  H7  BJP d   1      40.215  36.108  29.739  0.00  0.00     0.086 H 
BRANCH  12  16
ATOM     16  C11 BJP d   1      42.143  33.595  29.106  0.00  0.00     0.209 C 
ATOM     17  O3  BJP d   1      41.205  33.432  28.311  0.00  0.00    -0.644 OA
ATOM     18  O4  BJP d   1      43.147  32.823  29.175  0.00  0.00    -0.644 OA
ENDBRANCH  12  16
ENDBRANCH   3   6
ENDBRANCH   1   3
BRANCH   1  19
ATOM     19  B   BJP d   1      38.354  37.066  31.979  0.00  0.00     0.515 B 
BRANCH  19  20
ATOM     20  OB1 BJP d   1      38.721  35.760  32.463  0.00  0.00    -0.436 OA
ATOM     21  H4  BJP d   1      38.859  35.799  33.402  0.00  0.00     0.184 HD
ENDBRANCH  19  20
BRANCH  19  22
ATOM     22  OB2 BJP d   1      37.122  37.539  32.615  0.00  0.00    -0.436 OA
ATOM     23  H9  BJP d   1      36.904  38.400  32.278  0.00  0.00     0.184 HD
ENDBRANCH  19  22
ENDBRANCH   1  19
BRANCH   1  24
ATOM     24  N1  BJP d   1      39.956  37.701  33.731  0.00  0.00    -0.359 N 
ATOM     25  C26 BJP d   1      40.762  38.491  34.422  0.00  0.00     0.221 C 
ATOM     26  O6  BJP d   1      40.992  39.662  34.087  0.00  0.00    -0.273 OA
ATOM     27  H17 BJP d   1      39.768  36.777  34.063  0.00  0.00     0.162 HD
BRANCH  25  28
ATOM     28  C25 BJP d   1      41.441  37.788  35.623  0.00  0.00     0.033 C 
ATOM     29  H15 BJP d   1      41.210  38.323  36.556  0.00  0.00     0.054 H 
ATOM     30  H16 BJP d   1      41.091  36.748  35.701  0.00  0.00     0.054 H 
BRANCH  28  31
ATOM     31  C19 BJP d   1      42.830  37.817  35.376  0.00  0.00    -0.050 C 
ATOM     32  C20 BJP d   1      43.540  38.940  34.894  0.00  0.00    -0.076 C 
ATOM     33  C21 BJP d   1      44.911  38.813  34.615  0.00  0.00    -0.082 C 
ATOM     34  H10 BJP d   1      43.034  39.886  34.742  0.00  0.00     0.084 H 
ATOM     35  C22 BJP d   1      45.554  37.579  34.802  0.00  0.00    -0.083 C 
ATOM     36  H11 BJP d   1      45.472  39.668  34.255  0.00  0.00     0.083 H 
ATOM     37  C23 BJP d   1      44.825  36.487  35.296  0.00  0.00    -0.082 C 
ATOM     38  H12 BJP d   1      46.606  37.471  34.566  0.00  0.00     0.083 H 
ATOM     39  C24 BJP d   1      43.457  36.586  35.506  0.00  0.00    -0.076 C 
ATOM     40  H13 BJP d   1      45.336  35.556  35.516  0.00  0.00     0.083 H 
ATOM     41  H14 BJP d   1      42.881  35.706  35.770  0.00  0.00     0.084 H 
ENDBRANCH  28  31
ENDBRANCH  25  28
ENDBRANCH   1  24
TORSDOF 9
