REMARK  9 active torsions:
REMARK  status: ('A' for Active; 'I' for Inactive)
REMARK    1  A    between atoms: C2_1  and  C1_2 
REMARK    2  A    between atoms: C5_13  and  C2_1 
REMARK    3  A    between atoms: C1_2  and  N1_3 
REMARK    4  A    between atoms: C1_2  and  B_10 
REMARK       I    between atoms: N1_3  and  C3_4 
REMARK    5  A    between atoms: C3_4  and  C4_5 
REMARK    6  A    between atoms: C9_17  and  C11_7 
REMARK    7  A    between atoms: B_10  and  OB1_11 
REMARK    8  A    between atoms: B_10  and  OB2_18 
REMARK    9  A    between atoms: C10_15  and  O5_19 
ROOT
ATOM      1  C2  BJH d   1      40.756  38.416  31.597  0.00  0.00    -0.022 C 
ATOM      2  H1  BJH d   1      41.298  39.224  32.110  0.00  0.00     0.042 H 
ATOM      3  H2  BJH d   1      40.276  38.814  30.691  0.00  0.00     0.042 H 
ENDROOT
BRANCH   1   4
ATOM      4  C1  BJH d   1      39.669  37.860  32.541  0.00  0.00     0.050 C 
ATOM      5  H3  BJH d   1      39.084  38.710  32.922  0.00  0.00     0.065 H 
BRANCH   4   6
ATOM      6  N1  BJH d   1      40.288  37.184  33.680  0.00  0.00    -0.360 N 
ATOM      7  C3  BJH d   1      40.780  37.946  34.663  0.00  0.00     0.213 C 
ATOM      8  O2  BJH d   1      40.787  39.181  34.597  0.00  0.00    -0.274 OA
ATOM      9  H4  BJH d   1      40.342  36.186  33.723  0.00  0.00     0.162 HD
BRANCH   7  10
ATOM     10  C4  BJH d   1      41.370  37.219  35.896  0.00  0.00    -0.003 C 
ATOM     11  H5  BJH d   1      41.735  37.962  36.620  0.00  0.00     0.040 H 
ATOM     12  H6  BJH d   1      42.204  36.576  35.578  0.00  0.00     0.040 H 
ATOM     13  H7  BJH d   1      40.590  36.602  36.366  0.00  0.00     0.040 H 
ENDBRANCH   7  10
ENDBRANCH   4   6
BRANCH   4  14
ATOM     14  B   BJH d   1      38.661  36.870  31.777  0.00  0.00     0.515 B 
BRANCH  14  15
ATOM     15  OB1 BJH d   1      38.869  35.415  32.153  0.00  0.00    -0.436 OA
ATOM     16  H8  BJH d   1      39.689  35.108  31.784  0.00  0.00     0.184 HD
ENDBRANCH  14  15
BRANCH  14  17
ATOM     17  OB2 BJH d   1      37.415  37.419  32.310  0.00  0.00    -0.436 OA
ATOM     18  H12 BJH d   1      37.425  37.362  33.258  0.00  0.00     0.184 HD
ENDBRANCH  14  17
ENDBRANCH   4  14
ENDBRANCH   1   4
BRANCH   1  19
ATOM     19  C5  BJH d   1      41.758  37.314  31.193  0.00  0.00    -0.023 A 
ATOM     20  C6  BJH d   1      43.179  37.794  31.549  0.00  0.00    -0.074 A 
ATOM     21  C7  BJH d   1      44.410  36.904  31.220  0.00  0.00    -0.081 A 
ATOM     22  H9  BJH d   1      43.320  38.755  32.030  0.00  0.00     0.084 H 
ATOM     23  C8  BJH d   1      44.212  35.528  30.510  0.00  0.00    -0.064 A 
ATOM     24  H10 BJH d   1      45.407  37.239  31.484  0.00  0.00     0.083 H 
ATOM     25  C9  BJH d   1      42.784  35.065  30.172  0.00  0.00     0.074 A 
ATOM     26  H11 BJH d   1      45.066  34.909  30.259  0.00  0.00     0.085 H 
ATOM     27  C10 BJH d   1      41.597  35.960  30.495  0.00  0.00     0.089 A 
BRANCH  25  28
ATOM     28  C11 BJH d   1      42.352  33.759  29.473  0.00  0.00     0.212 C 
ATOM     29  O3  BJH d   1      41.574  33.873  28.500  0.00  0.00    -0.644 OA
ATOM     30  O4  BJH d   1      43.041  32.716  29.660  0.00  0.00    -0.644 OA
ENDBRANCH  25  28
BRANCH  27  31
ATOM     31  O5  BJH d   1      40.423  35.618  30.241  0.00  0.00    -0.359 OA
ATOM     32  H13 BJH d   1      39.828  36.306  30.515  0.00  0.00     0.217 HD
ENDBRANCH  27  31
ENDBRANCH   1  19
TORSDOF 9
