REMARK  9 active torsions:
REMARK  status: ('A' for Active; 'I' for Inactive)
REMARK    1  A    between atoms: C3_3  and  O3_4 
REMARK    2  A    between atoms: C7_8  and  C8_9 
REMARK    3  A    between atoms: C11_12  and  O11_13 
REMARK    4  A    between atoms: C15_17  and  C16_18 
REMARK    5  A    between atoms: C16_18  and  C17_20 
REMARK    6  A    between atoms: C20_23  and  O23_26 
REMARK    7  A    between atoms: O23_26  and  C24_27 
REMARK    8  A    between atoms: C24_27  and  C25_28 
REMARK    9  A    between atoms: C25_28  and  N26_29 
ROOT
ATOM      1  C17 RAL d   1      68.768  33.917  74.313  0.00  0.00     0.015 A 
ATOM      2  C18 RAL d   1      69.621  33.351  75.239  0.00  0.00    -0.067 A 
ATOM      3  C19 RAL d   1      69.633  33.745  76.563  0.00  0.00    -0.050 A 
ATOM      4  C20 RAL d   1      68.733  34.725  76.978  0.00  0.00     0.068 A 
ATOM      5  C21 RAL d   1      67.879  35.305  76.057  0.00  0.00    -0.050 A 
ATOM      6  C22 RAL d   1      67.907  34.910  74.730  0.00  0.00    -0.067 A 
ATOM      7  H10 RAL d   1      70.303  32.572  74.917  0.00  0.00     0.085 H 
ATOM      8  H11 RAL d   1      70.329  33.301  77.266  0.00  0.00     0.087 H 
ATOM      9  H12 RAL d   1      67.184  36.073  76.376  0.00  0.00     0.087 H 
ATOM     10  H13 RAL d   1      67.247  35.385  74.013  0.00  0.00     0.085 H 
ENDROOT
BRANCH   1  11
ATOM     11  C16 RAL d   1      68.771  33.463  72.918  0.00  0.00     0.194 C 
ATOM     12  O16 RAL d   1      69.368  32.412  72.653  0.00  0.00    -0.287 OA
BRANCH  11  13
ATOM     13  C15 RAL d   1      68.128  34.150  71.906  0.00  0.00     0.044 A 
ATOM     14  C7  RAL d   1      67.001  33.691  71.192  0.00  0.00     0.031 A 
ATOM     15  S6  RAL d   1      66.638  34.815  69.986  0.00  0.00    -0.088 SA
ATOM     16  C5  RAL d   1      67.765  35.956  70.385  0.00  0.00     0.019 A 
ATOM     17  C4  RAL d   1      68.029  37.167  69.794  0.00  0.00    -0.034 A 
ATOM     18  C14 RAL d   1      68.556  35.468  71.464  0.00  0.00    -0.003 A 
ATOM     19  C3  RAL d   1      69.083  37.933  70.305  0.00  0.00     0.067 A 
ATOM     20  H4  RAL d   1      67.438  37.519  68.956  0.00  0.00     0.089 H 
ATOM     21  C2  RAL d   1      69.816  37.448  71.352  0.00  0.00    -0.050 A 
ATOM     22  C1  RAL d   1      69.571  36.223  71.917  0.00  0.00    -0.068 A 
ATOM     23  H2  RAL d   1      70.621  38.055  71.751  0.00  0.00     0.087 H 
ATOM     24  H1  RAL d   1      70.195  35.864  72.728  0.00  0.00     0.085 H 
BRANCH  14  25
ATOM     25  C8  RAL d   1      66.347  32.356  71.301  0.00  0.00    -0.018 A 
ATOM     26  C9  RAL d   1      66.087  31.727  70.099  0.00  0.00    -0.069 A 
ATOM     27  C10 RAL d   1      65.560  30.446  70.128  0.00  0.00    -0.050 A 
ATOM     28  H5  RAL d   1      66.290  32.223  69.157  0.00  0.00     0.085 H 
ATOM     29  C11 RAL d   1      65.259  29.817  71.320  0.00  0.00     0.065 A 
ATOM     30  H6  RAL d   1      65.380  29.926  69.194  0.00  0.00     0.087 H 
ATOM     31  C12 RAL d   1      65.562  30.428  72.519  0.00  0.00    -0.050 A 
ATOM     32  C13 RAL d   1      66.106  31.706  72.480  0.00  0.00    -0.069 A 
ATOM     33  H8  RAL d   1      65.381  29.927  73.463  0.00  0.00     0.087 H 
ATOM     34  H9  RAL d   1      66.347  32.203  73.413  0.00  0.00     0.085 H 
BRANCH  29  35
ATOM     35  O11 RAL d   1      64.735  28.525  71.249  0.00  0.00    -0.361 OA
ATOM     36  H7  RAL d   1      64.571  28.202  72.127  0.00  0.00     0.217 HD
ENDBRANCH  29  35
ENDBRANCH  14  25
BRANCH  19  37
ATOM     37  O3  RAL d   1      69.410  39.186  69.850  0.00  0.00    -0.361 OA
ATOM     38  H3  RAL d   1      69.303  39.815  70.554  0.00  0.00     0.217 HD
ENDBRANCH  19  37
ENDBRANCH  11  13
ENDBRANCH   1  11
BRANCH   4  39
ATOM     39  O23 RAL d   1      68.555  35.259  78.220  0.00  0.00    -0.350 OA
BRANCH  39  40
ATOM     40  C24 RAL d   1      69.461  34.837  79.228  0.00  0.00     0.049 C 
ATOM     41  H14 RAL d   1      70.490  34.923  78.850  0.00  0.00     0.077 H 
ATOM     42  H15 RAL d   1      69.252  33.789  79.487  0.00  0.00     0.077 H 
BRANCH  40  43
ATOM     43  C25 RAL d   1      69.311  35.692  80.458  0.00  0.00     0.103 C 
ATOM     44  H16 RAL d   1      70.264  35.569  80.994  0.00  0.00     0.079 H 
ATOM     45  H17 RAL d   1      68.504  35.209  81.029  0.00  0.00     0.079 H 
BRANCH  43  46
ATOM     46  N26 RAL d   1      69.023  37.110  80.557  0.00  0.00    -0.069 N 
ATOM     47  C27 RAL d   1      68.720  37.437  81.965  0.00  0.00     0.084 C 
ATOM     48  C28 RAL d   1      68.544  38.946  82.229  0.00  0.00    -0.042 C 
ATOM     49  H19 RAL d   1      69.546  37.069  82.592  0.00  0.00     0.076 H 
ATOM     50  H20 RAL d   1      67.789  36.925  82.248  0.00  0.00     0.076 H 
ATOM     51  C29 RAL d   1      67.338  39.404  81.393  0.00  0.00    -0.062 C 
ATOM     52  H21 RAL d   1      69.448  39.492  81.921  0.00  0.00     0.035 H 
ATOM     53  H22 RAL d   1      68.354  39.124  83.298  0.00  0.00     0.035 H 
ATOM     54  C30 RAL d   1      67.804  39.197  79.919  0.00  0.00    -0.042 C 
ATOM     55  H23 RAL d   1      67.107  40.462  81.586  0.00  0.00     0.033 H 
ATOM     56  H24 RAL d   1      66.453  38.790  81.614  0.00  0.00     0.033 H 
ATOM     57  C31 RAL d   1      67.960  37.681  79.707  0.00  0.00     0.084 C 
ATOM     58  H25 RAL d   1      68.766  39.703  79.752  0.00  0.00     0.035 H 
ATOM     59  H26 RAL d   1      67.052  39.600  79.225  0.00  0.00     0.035 H 
ATOM     60  H27 RAL d   1      67.007  37.188  79.951  0.00  0.00     0.076 H 
ATOM     61  H28 RAL d   1      68.210  37.494  78.652  0.00  0.00     0.076 H 
ATOM     62  H18 RAL d   1      69.874  37.586  80.300  0.00  0.00     0.280 HD
ENDBRANCH  43  46
ENDBRANCH  40  43
ENDBRANCH  39  40
ENDBRANCH   4  39
TORSDOF 9
