REMARK  14 active torsions:
REMARK  status: ('A' for Active; 'I' for Inactive)
REMARK    1  A    between atoms: C16_24  and  C6_7 
REMARK    2  A    between atoms: C13_20  and  C12_19 
REMARK    3  A    between atoms: C13_20  and  C14_21 
REMARK    4  A    between atoms: C13_20  and  C16_24 
REMARK    5  A    between atoms: C14_21  and  C15_22 
REMARK    6  A    between atoms: C15_22  and  O5_23 
REMARK    7  A    between atoms: C24_36  and  N6_51 
REMARK    8  A    between atoms: C28_41  and  C29_42 
REMARK    9  A    between atoms: C29_42  and  C30_43 
REMARK   10  A    between atoms: C30_43  and  C31_44 
REMARK   11  A    between atoms: C30_43  and  C33_50 
REMARK   12  A    between atoms: C31_44  and  C32_45 
REMARK   13  A    between atoms: C32_45  and  O9_46 
REMARK       I    between atoms: N6_51  and  C34_52 
REMARK   14  A    between atoms: C34_52  and  C35_54 
ROOT
ATOM      1  C1  CPO d   1      30.563  -3.623 -29.212  0.00  0.00     0.241 A 
ATOM      2  C2  CPO d   1      31.207  -4.807 -28.485  0.00  0.00     0.089 A 
ATOM      3  C3  CPO d   1      30.831  -6.191 -29.144  0.00  0.00    -0.036 C 
ATOM      4  C4  CPO d   1      29.924  -6.321 -30.417  0.00  0.00    -0.045 C 
ATOM      5  C5  CPO d   1      29.430  -7.699 -30.844  0.00  0.00     0.026 C 
ATOM      6  N1  CPO d   1      28.048  -7.831 -30.461  0.00  0.00    -0.203 N 
ATOM      7  C6  CPO d   1      27.664  -8.796 -29.648  0.00  0.00     0.180 C 
ATOM      8  O1  CPO d   1      30.870  -3.359 -30.356  0.00  0.00    -0.271 OA
ATOM      9  N2  CPO d   1      30.758  -4.970 -27.153  0.00  0.00    -0.346 N 
ATOM     10  O2  CPO d   1      27.129  -6.961 -30.926  0.00  0.00    -0.084 OA
ATOM     11  O3  CPO d   1      26.504  -8.879 -29.341  0.00  0.00    -0.175 OA
ATOM     12  C7  CPO d   1      29.824  -4.208 -26.493  0.00  0.00     0.241 A 
ATOM     13  C8  CPO d   1      29.127  -2.993 -27.252  0.00  0.00     0.089 A 
ATOM     14  C9  CPO d   1      27.787  -3.679 -27.531  0.00  0.00    -0.036 C 
ATOM     15  C10 CPO d   1      26.633  -3.678 -26.521  0.00  0.00    -0.045 C 
ATOM     16  C11 CPO d   1      25.371  -4.496 -26.891  0.00  0.00     0.026 C 
ATOM     17  O4  CPO d   1      29.504  -4.424 -25.335  0.00  0.00    -0.271 OA
ATOM     18  N3  CPO d   1      29.617  -2.851 -28.565  0.00  0.00    -0.346 N 
ATOM     19 FE   CPO d   1      25.377  -7.298 -29.984  0.00  0.00     0.000 Fe
ATOM     20  N4  CPO d   1      25.299  -5.248 -28.162  0.00  0.00    -0.203 N 
ATOM     21  C17 CPO d   1      24.750  -4.704 -29.239  0.00  0.00     0.179 C 
ATOM     22  C18 CPO d   1      24.189  -3.234 -29.199  0.00  0.00    -0.001 C 
ATOM     23  C19 CPO d   1      22.976  -2.859 -28.752  0.00  0.00    -0.056 C 
ATOM     24  C20 CPO d   1      22.398  -1.516 -29.162  0.00  0.00    -0.044 C 
ATOM     25  C21 CPO d   1      21.334  -1.712 -30.284  0.00  0.00     0.029 C 
ATOM     26  O6  CPO d   1      22.022  -2.178 -31.481  0.00  0.00    -0.320 OA
ATOM     27  O7  CPO d   1      25.784  -6.458 -28.236  0.00  0.00    -0.084 OA
ATOM     28  O8  CPO d   1      24.699  -5.391 -30.333  0.00  0.00    -0.175 OA
ATOM     29  C23 CPO d   1      21.527  -3.514 -31.800  0.00  0.00     0.281 C 
ATOM     30  C24 CPO d   1      22.488  -4.571 -32.448  0.00  0.00     0.096 C 
ATOM     31  C25 CPO d   1      21.735  -5.609 -33.299  0.00  0.00    -0.036 C 
ATOM     32  C26 CPO d   1      22.643  -6.753 -33.832  0.00  0.00    -0.045 C 
ATOM     33  C27 CPO d   1      22.640  -7.957 -32.864  0.00  0.00     0.026 C 
ATOM     34  N5  CPO d   1      23.409  -7.941 -31.716  0.00  0.00    -0.203 N 
ATOM     35  C28 CPO d   1      22.866  -8.069 -30.563  0.00  0.00     0.180 C 
ATOM     36  O10 CPO d   1      20.335  -3.819 -31.548  0.00  0.00    -0.263 OA
ATOM     37  O11 CPO d   1      24.752  -7.796 -31.796  0.00  0.00    -0.084 OA
ATOM     38  O12 CPO d   1      23.577  -8.057 -29.564  0.00  0.00    -0.175 OA
ATOM     39  H1  CPO d   1      32.297  -4.663 -28.498  0.00  0.00     0.087 H 
ATOM     40  H2  CPO d   1      30.331  -6.774 -28.357  0.00  0.00     0.036 H 
ATOM     41  H3  CPO d   1      31.786  -6.670 -29.404  0.00  0.00     0.036 H 
ATOM     42  H4  CPO d   1      30.496  -5.909 -31.262  0.00  0.00     0.035 H 
ATOM     43  H5  CPO d   1      29.033  -5.701 -30.241  0.00  0.00     0.035 H 
ATOM     44  H6  CPO d   1      30.028  -8.477 -30.347  0.00  0.00     0.068 H 
ATOM     45  H7  CPO d   1      29.524  -7.805 -31.935  0.00  0.00     0.068 H 
ATOM     46  H8  CPO d   1      31.165  -5.722 -26.635  0.00  0.00     0.163 HD
ATOM     47  H10 CPO d   1      29.099  -2.053 -26.681  0.00  0.00     0.087 H 
ATOM     48  H11 CPO d   1      28.020  -4.736 -27.727  0.00  0.00     0.036 H 
ATOM     49  H12 CPO d   1      27.392  -3.215 -28.447  0.00  0.00     0.036 H 
ATOM     50  H13 CPO d   1      26.320  -2.633 -26.376  0.00  0.00     0.035 H 
ATOM     51  H14 CPO d   1      27.022  -4.079 -25.573  0.00  0.00     0.035 H 
ATOM     52  H15 CPO d   1      24.530  -3.788 -26.898  0.00  0.00     0.068 H 
ATOM     53  H16 CPO d   1      25.226  -5.230 -26.084  0.00  0.00     0.068 H 
ATOM     54  H17 CPO d   1      29.232  -2.096 -29.096  0.00  0.00     0.163 HD
ATOM     55  H29 CPO d   1      24.234  -2.881 -30.240  0.00  0.00     0.045 H 
ATOM     56  H30 CPO d   1      24.908  -2.668 -28.588  0.00  0.00     0.045 H 
ATOM     57  H31 CPO d   1      23.028  -2.860 -27.653  0.00  0.00     0.033 H 
ATOM     58  H32 CPO d   1      22.263  -3.627 -29.086  0.00  0.00     0.033 H 
ATOM     59  H33 CPO d   1      23.206  -0.871 -29.536  0.00  0.00     0.036 H 
ATOM     60  H34 CPO d   1      21.924  -1.042 -28.290  0.00  0.00     0.036 H 
ATOM     61  H35 CPO d   1      20.830  -0.757 -30.491  0.00  0.00     0.075 H 
ATOM     62  H36 CPO d   1      20.590  -2.458 -29.967  0.00  0.00     0.075 H 
ATOM     63  H38 CPO d   1      23.122  -5.053 -31.689  0.00  0.00     0.088 H 
ATOM     64  H39 CPO d   1      21.285  -5.093 -34.160  0.00  0.00     0.036 H 
ATOM     65  H40 CPO d   1      20.941  -6.054 -32.682  0.00  0.00     0.036 H 
ATOM     66  H41 CPO d   1      23.672  -6.377 -33.936  0.00  0.00     0.035 H 
ATOM     67  H42 CPO d   1      22.271  -7.080 -34.814  0.00  0.00     0.035 H 
ATOM     68  H43 CPO d   1      22.965  -8.831 -33.448  0.00  0.00     0.068 H 
ATOM     69  H44 CPO d   1      21.598  -8.099 -32.542  0.00  0.00     0.068 H 
ENDROOT
BRANCH   7  70
ATOM     70  C16 CPO d   1      28.720  -9.842 -29.074  0.00  0.00     0.002 C 
ATOM     71  H27 CPO d   1      29.286  -9.305 -28.298  0.00  0.00     0.046 H 
ATOM     72  H28 CPO d   1      29.389 -10.087 -29.912  0.00  0.00     0.046 H 
BRANCH  70  73
ATOM     73  C13 CPO d   1      28.338 -11.125 -28.477  0.00  0.00    -0.049 C 
ATOM     74  H21 CPO d   1      28.938 -10.890 -27.586  0.00  0.00     0.040 H 
BRANCH  73  75
ATOM     75  C12 CPO d   1      27.041 -11.227 -27.579  0.00  0.00    -0.072 C 
ATOM     76  H18 CPO d   1      26.921 -12.261 -27.224  0.00  0.00     0.028 H 
ATOM     77  H19 CPO d   1      26.161 -10.939 -28.172  0.00  0.00     0.028 H 
ATOM     78  H20 CPO d   1      27.139 -10.552 -26.716  0.00  0.00     0.028 H 
ENDBRANCH  73  75
BRANCH  73  79
ATOM     79  C14 CPO d   1      29.210 -12.396 -28.733  0.00  0.00    -0.042 C 
ATOM     80  H22 CPO d   1      29.887 -12.230 -29.584  0.00  0.00     0.036 H 
ATOM     81  H23 CPO d   1      28.568 -13.265 -28.939  0.00  0.00     0.036 H 
BRANCH  79  82
ATOM     82  C15 CPO d   1      30.011 -12.619 -27.454  0.00  0.00     0.017 C 
ATOM     83  H24 CPO d   1      29.350 -12.528 -26.580  0.00  0.00     0.073 H 
ATOM     84  H25 CPO d   1      30.816 -11.873 -27.384  0.00  0.00     0.073 H 
BRANCH  82  85
ATOM     85  O5  CPO d   1      30.544 -13.869 -27.501  0.00  0.00    -0.401 OA
ATOM     86  H26 CPO d   1      31.048 -14.027 -26.711  0.00  0.00     0.209 HD
ENDBRANCH  82  85
ENDBRANCH  79  82
ENDBRANCH  73  79
ENDBRANCH  70  73
ENDBRANCH   7  70
BRANCH  35  87
ATOM     87  C29 CPO d   1      21.284  -8.254 -30.419  0.00  0.00     0.002 C 
ATOM     88  H45 CPO d   1      21.102  -9.280 -30.067  0.00  0.00     0.046 H 
ATOM     89  H46 CPO d   1      20.844  -8.126 -31.419  0.00  0.00     0.046 H 
BRANCH  87  90
ATOM     90  C30 CPO d   1      20.540  -7.292 -29.456  0.00  0.00    -0.049 C 
ATOM     91  H47 CPO d   1      20.329  -7.968 -28.614  0.00  0.00     0.040 H 
BRANCH  90  92
ATOM     92  C31 CPO d   1      19.052  -6.896 -29.884  0.00  0.00    -0.042 C 
ATOM     93  H48 CPO d   1      18.538  -7.780 -30.288  0.00  0.00     0.036 H 
ATOM     94  H49 CPO d   1      19.087  -6.109 -30.652  0.00  0.00     0.036 H 
BRANCH  92  95
ATOM     95  C32 CPO d   1      18.276  -6.367 -28.625  0.00  0.00     0.017 C 
ATOM     96  H50 CPO d   1      18.849  -6.591 -27.713  0.00  0.00     0.073 H 
ATOM     97  H51 CPO d   1      17.289  -6.849 -28.566  0.00  0.00     0.073 H 
BRANCH  95  98
ATOM     98  O9  CPO d   1      18.116  -4.941 -28.763  0.00  0.00    -0.401 OA
ATOM     99  H52 CPO d   1      17.648  -4.602 -28.009  0.00  0.00     0.209 HD
ENDBRANCH  95  98
ENDBRANCH  92  95
ENDBRANCH  90  92
BRANCH  90 100
ATOM    100  C33 CPO d   1      21.354  -6.302 -28.791  0.00  0.00    -0.072 C 
ATOM    101  H54 CPO d   1      22.342  -6.731 -28.566  0.00  0.00     0.028 H 
ATOM    102  H55 CPO d   1      20.866  -5.995 -27.854  0.00  0.00     0.028 H 
ATOM    103  H56 CPO d   1      21.475  -5.426 -29.446  0.00  0.00     0.028 H 
ENDBRANCH  90 100
ENDBRANCH  87  90
ENDBRANCH  35  87
BRANCH  30 104
ATOM    104  N6  CPO d   1      23.205  -3.859 -33.382  0.00  0.00    -0.348 N 
ATOM    105  C34 CPO d   1      24.447  -3.305 -33.303  0.00  0.00     0.214 C 
ATOM    106  O13 CPO d   1      25.420  -3.976 -32.792  0.00  0.00    -0.274 OA
ATOM    107  H57 CPO d   1      22.741  -3.727 -34.258  0.00  0.00     0.163 HD
BRANCH 105 108
ATOM    108  C35 CPO d   1      24.692  -1.876 -33.827  0.00  0.00    -0.003 C 
ATOM    109  H58 CPO d   1      25.748  -1.607 -33.677  0.00  0.00     0.040 H 
ATOM    110  H59 CPO d   1      24.052  -1.169 -33.278  0.00  0.00     0.040 H 
ATOM    111  H60 CPO d   1      24.451  -1.832 -34.899  0.00  0.00     0.040 H 
ENDBRANCH 105 108
ENDBRANCH  30 104
TORSDOF 14
