REMARK  11 active torsions:
REMARK  status: ('A' for Active; 'I' for Inactive)
REMARK    1  A    between atoms: S_1  and  C2_5 
REMARK    2  A    between atoms: N_14  and  S_1 
REMARK    3  A    between atoms: CA_15  and  N_14 
REMARK    4  A    between atoms: C_16  and  CA_15 
REMARK       I    between atoms: C_16  and  N_21 
REMARK    5  A    between atoms: CA_18  and  C_19 
REMARK    6  A    between atoms: N_21  and  CA_18 
REMARK    7  A    between atoms: CA_18  and  CB_22 
REMARK       I    between atoms: C_19  and  N1_32 
REMARK    8  A    between atoms: CB_22  and  CG_23 
REMARK    9  A    between atoms: CZ_28  and  CF_29 
REMARK   10  A    between atoms: CF_29  and  NG1_30 
REMARK   11  A    between atoms: CF_29  and  NG2_31 
ROOT
ATOM      1  CA  MID d   1     -36.808 -28.755  41.995  0.00  0.00     0.093 C 
ATOM      2  H11 MID d   1     -37.626 -28.125  42.374  0.00  0.00     0.088 H 
ENDROOT
BRANCH   1   3
ATOM      3  C   MID d   1     -35.508 -27.952  41.995  0.00  0.00     0.242 C 
ATOM      4  O   MID d   1     -34.675 -28.083  41.103  0.00  0.00    -0.271 OA
ATOM      5  N1  MID d   1     -35.311 -27.094  42.998  0.00  0.00    -0.350 N 
ATOM      6  C2  MID d   1     -34.069 -26.388  43.211  0.00  0.00    -0.002 C 
ATOM      7  C6  MID d   1     -36.337 -26.791  43.992  0.00  0.00    -0.002 C 
ATOM      8  C3  MID d   1     -33.630 -26.728  44.642  0.00  0.00    -0.050 C 
ATOM      9  H23 MID d   1     -34.222 -25.304  43.106  0.00  0.00     0.064 H 
ATOM     10  H24 MID d   1     -33.310 -26.723  42.489  0.00  0.00     0.064 H 
ATOM     11  C4  MID d   1     -34.575 -26.279  45.731  0.00  0.00    -0.062 C 
ATOM     12  H25 MID d   1     -32.655 -26.251  44.821  0.00  0.00     0.035 H 
ATOM     13  H26 MID d   1     -33.523 -27.820  44.714  0.00  0.00     0.035 H 
ATOM     14  C5  MID d   1     -35.820 -27.039  45.391  0.00  0.00    -0.050 C 
ATOM     15  H27 MID d   1     -34.745 -25.193  45.691  0.00  0.00     0.033 H 
ATOM     16  H28 MID d   1     -34.198 -26.554  46.727  0.00  0.00     0.033 H 
ATOM     17  H29 MID d   1     -36.606 -26.751  46.105  0.00  0.00     0.035 H 
ATOM     18  H30 MID d   1     -35.607 -28.113  45.494  0.00  0.00     0.035 H 
ATOM     19  H31 MID d   1     -37.213 -27.431  43.813  0.00  0.00     0.064 H 
ATOM     20  H32 MID d   1     -36.630 -25.735  43.898  0.00  0.00     0.064 H 
ENDBRANCH   1   3
BRANCH   1  21
ATOM     21  N   MID d   1     -36.578 -29.856  42.892  0.00  0.00    -0.346 N 
ATOM     22  C   MID d   1     -37.331 -30.043  43.949  0.00  0.00     0.236 C 
ATOM     23  O   MID d   1     -38.321 -29.377  44.297  0.00  0.00    -0.272 OA
ATOM     24  H12 MID d   1     -35.829 -30.491  42.706  0.00  0.00     0.163 HD
BRANCH  22  25
ATOM     25  CA  MID d   1     -36.804 -31.246  44.700  0.00  0.00     0.076 C 
ATOM     26  H9  MID d   1     -36.714 -32.105  44.019  0.00  0.00     0.079 H 
ATOM     27  H10 MID d   1     -35.820 -31.017  45.135  0.00  0.00     0.079 H 
BRANCH  25  28
ATOM     28  N   MID d   1     -37.743 -31.542  45.741  0.00  0.00    -0.307 N 
ATOM     29  H8  MID d   1     -38.641 -31.918  45.514  0.00  0.00     0.172 HD
BRANCH  28  30
ATOM     30  S   MID d   1     -37.352 -31.271  47.264  0.00  0.00     0.259 S 
ATOM     31  O1  MID d   1     -36.143 -32.106  47.639  0.00  0.00    -0.201 OA
ATOM     32  O2  MID d   1     -38.575 -31.744  48.049  0.00  0.00    -0.201 OA
BRANCH  30  33
ATOM     33  C2  MID d   1     -37.127 -29.595  47.786  0.00  0.00     0.080 A 
ATOM     34  C3  MID d   1     -35.814 -29.189  47.970  0.00  0.00    -0.059 A 
ATOM     35  C4  MID d   1     -35.541 -27.982  48.580  0.00  0.00    -0.071 A 
ATOM     36  H2  MID d   1     -35.000 -29.821  47.634  0.00  0.00     0.085 H 
ATOM     37  C10 MID d   1     -36.589 -27.135  48.870  0.00  0.00    -0.026 A 
ATOM     38  H3  MID d   1     -34.522 -27.705  48.826  0.00  0.00     0.084 H 
ATOM     39  C5  MID d   1     -36.255 -25.907  49.402  0.00  0.00    -0.072 C 
ATOM     40  C9  MID d   1     -37.907 -27.496  48.597  0.00  0.00    -0.025 A 
ATOM     41  C6  MID d   1     -37.269 -25.002  49.586  0.00  0.00    -0.082 C 
ATOM     42  H4  MID d   1     -35.231 -25.667  49.664  0.00  0.00     0.084 H 
ATOM     43  C7  MID d   1     -38.575 -25.370  49.323  0.00  0.00    -0.082 C 
ATOM     44  H5  MID d   1     -37.047 -24.001  49.937  0.00  0.00     0.083 H 
ATOM     45  C8  MID d   1     -38.918 -26.639  48.905  0.00  0.00    -0.072 C 
ATOM     46  H6  MID d   1     -39.360 -24.633  49.450  0.00  0.00     0.083 H 
ATOM     47  H7  MID d   1     -39.956 -26.943  48.825  0.00  0.00     0.084 H 
ATOM     48  C1  MID d   1     -38.189 -28.744  48.085  0.00  0.00    -0.050 A 
ATOM     49  H1  MID d   1     -39.214 -29.056  47.919  0.00  0.00     0.087 H 
ENDBRANCH  30  33
ENDBRANCH  28  30
ENDBRANCH  25  28
ENDBRANCH  22  25
ENDBRANCH   1  21
BRANCH   1  50
ATOM     50  CB  MID d   1     -37.195 -29.268  40.625  0.00  0.00    -0.014 C 
ATOM     51  H13 MID d   1     -36.467 -30.030  40.310  0.00  0.00     0.043 H 
ATOM     52  H14 MID d   1     -37.180 -28.430  39.912  0.00  0.00     0.043 H 
BRANCH  50  53
ATOM     53  CG  MID d   1     -38.581 -29.884  40.633  0.00  0.00    -0.056 A 
ATOM     54  CD1 MID d   1     -38.751 -31.250  40.723  0.00  0.00    -0.076 A 
ATOM     55  CE1 MID d   1     -40.010 -31.804  40.782  0.00  0.00    -0.069 A 
ATOM     56  H15 MID d   1     -37.881 -31.896  40.748  0.00  0.00     0.084 H 
ATOM     57  CZ  MID d   1     -41.124 -30.981  40.711  0.00  0.00     0.007 A 
ATOM     58  H17 MID d   1     -40.130 -32.877  40.883  0.00  0.00     0.085 H 
ATOM     59  CE2 MID d   1     -40.935 -29.618  40.602  0.00  0.00    -0.069 A 
ATOM     60  CD2 MID d   1     -39.677 -29.066  40.542  0.00  0.00    -0.076 A 
ATOM     61  H18 MID d   1     -41.800 -28.966  40.563  0.00  0.00     0.085 H 
ATOM     62  H16 MID d   1     -39.553 -27.995  40.424  0.00  0.00     0.084 H 
BRANCH  57  63
ATOM     63  CF  MID d   1     -42.413 -31.495  40.726  0.00  0.00     0.102 C 
BRANCH  63  64
ATOM     64  NG1 MID d   1     -42.609 -32.760  41.114  0.00  0.00    -0.385 N 
ATOM     65  H19 MID d   1     -43.561 -33.152  41.129  0.00  0.00     0.157 HD
ATOM     66  H20 MID d   1     -41.808 -33.342  41.398  0.00  0.00     0.157 HD
ENDBRANCH  63  64
BRANCH  63  67
ATOM     67  NG2 MID d   1     -43.447 -30.710  40.443  0.00  0.00    -0.385 N 
ATOM     68  H21 MID d   1     -43.288 -29.737  40.145  0.00  0.00     0.157 HD
ATOM     69  H22 MID d   1     -44.407 -31.075  40.522  0.00  0.00     0.157 HD
ENDBRANCH  63  67
ENDBRANCH  57  63
ENDBRANCH  50  53
ENDBRANCH   1  50
TORSDOF 11
