REMARK  10 active torsions:
REMARK  status: ('A' for Active; 'I' for Inactive)
REMARK    1  A    between atoms: S_1  and  C1_4 
REMARK    2  A    between atoms: N_14  and  S_1 
REMARK    3  A    between atoms: C4_7  and  C7_10 
REMARK    4  A    between atoms: CA_11  and  C_12 
REMARK    5  A    between atoms: N_14  and  CA_11 
REMARK    6  A    between atoms: CA_11  and  CB_15 
REMARK       I    between atoms: C_12  and  N1_25 
REMARK    7  A    between atoms: CB_15  and  CG_16 
REMARK    8  A    between atoms: CZ_21  and  CF_22 
REMARK    9  A    between atoms: CF_22  and  NG1_23 
REMARK   10  A    between atoms: CF_22  and  NG2_24 
ROOT
ATOM      1  CA  4QQ d   1     -36.788 -30.676  43.080  0.00  0.00     0.101 C 
ATOM      2  H8  4QQ d   1     -35.702 -30.740  43.246  0.00  0.00     0.089 H 
ENDROOT
BRANCH   1   3
ATOM      3  C   4QQ d   1     -37.185 -29.217  43.364  0.00  0.00     0.243 C 
ATOM      4  O   4QQ d   1     -38.326 -28.870  43.761  0.00  0.00    -0.271 OA
ATOM      5  N1  4QQ d   1     -36.190 -28.353  43.218  0.00  0.00    -0.350 N 
ATOM      6  C2  4QQ d   1     -34.819 -28.722  42.961  0.00  0.00    -0.002 C 
ATOM      7  C6  4QQ d   1     -36.402 -26.949  42.993  0.00  0.00    -0.002 C 
ATOM      8  C3  4QQ d   1     -34.098 -28.040  44.082  0.00  0.00    -0.050 C 
ATOM      9  H20 4QQ d   1     -34.481 -28.349  41.983  0.00  0.00     0.064 H 
ATOM     10  H21 4QQ d   1     -34.684 -29.813  43.004  0.00  0.00     0.064 H 
ATOM     11  C4  4QQ d   1     -34.173 -26.580  43.828  0.00  0.00    -0.062 C 
ATOM     12  H22 4QQ d   1     -33.047 -28.365  44.107  0.00  0.00     0.035 H 
ATOM     13  H23 4QQ d   1     -34.579 -28.281  45.041  0.00  0.00     0.035 H 
ATOM     14  C5  4QQ d   1     -35.608 -26.261  44.044  0.00  0.00    -0.050 C 
ATOM     15  H24 4QQ d   1     -33.869 -26.345  42.797  0.00  0.00     0.033 H 
ATOM     16  H25 4QQ d   1     -33.537 -26.025  44.534  0.00  0.00     0.033 H 
ATOM     17  H26 4QQ d   1     -35.762 -25.174  43.975  0.00  0.00     0.035 H 
ATOM     18  H27 4QQ d   1     -35.922 -26.613  45.038  0.00  0.00     0.035 H 
ATOM     19  H28 4QQ d   1     -37.469 -26.700  43.091  0.00  0.00     0.064 H 
ATOM     20  H29 4QQ d   1     -36.048 -26.661  41.992  0.00  0.00     0.064 H 
ENDBRANCH   1   3
BRANCH   1  21
ATOM     21  N   4QQ d   1     -37.390 -31.625  43.984  0.00  0.00    -0.301 N 
ATOM     22  H9  4QQ d   1     -38.199 -32.143  43.706  0.00  0.00     0.173 HD
BRANCH  21  23
ATOM     23  S   4QQ d   1     -36.726 -31.849  45.493  0.00  0.00     0.259 S 
ATOM     24  O1  4QQ d   1     -35.293 -32.231  45.603  0.00  0.00    -0.201 OA
ATOM     25  O2  4QQ d   1     -37.567 -33.038  45.963  0.00  0.00    -0.201 OA
BRANCH  23  26
ATOM     26  C1  4QQ d   1     -37.037 -30.417  46.625  0.00  0.00     0.079 A 
ATOM     27  C2  4QQ d   1     -36.041 -29.509  46.962  0.00  0.00    -0.060 A 
ATOM     28  C3  4QQ d   1     -36.370 -28.355  47.705  0.00  0.00    -0.076 A 
ATOM     29  H1  4QQ d   1     -35.016 -29.686  46.656  0.00  0.00     0.085 H 
ATOM     30  C4  4QQ d   1     -37.649 -28.180  48.199  0.00  0.00    -0.062 A 
ATOM     31  H2  4QQ d   1     -35.614 -27.600  47.890  0.00  0.00     0.084 H 
ATOM     32  C5  4QQ d   1     -38.624 -29.129  47.920  0.00  0.00    -0.076 A 
ATOM     33  C6  4QQ d   1     -38.321 -30.226  47.123  0.00  0.00    -0.060 A 
ATOM     34  H3  4QQ d   1     -39.623 -29.014  48.325  0.00  0.00     0.084 H 
ATOM     35  H4  4QQ d   1     -39.098 -30.944  46.886  0.00  0.00     0.085 H 
BRANCH  30  36
ATOM     36  C7  4QQ d   1     -37.991 -27.002  49.112  0.00  0.00    -0.051 C 
ATOM     37  H5  4QQ d   1     -37.108 -26.355  49.222  0.00  0.00     0.033 H 
ATOM     38  H6  4QQ d   1     -38.295 -27.380  50.099  0.00  0.00     0.033 H 
ATOM     39  H7  4QQ d   1     -38.816 -26.424  48.671  0.00  0.00     0.033 H 
ENDBRANCH  30  36
ENDBRANCH  23  26
ENDBRANCH  21  23
ENDBRANCH   1  21
BRANCH   1  40
ATOM     40  CB  4QQ d   1     -37.031 -31.044  41.614  0.00  0.00    -0.013 C 
ATOM     41  H10 4QQ d   1     -36.788 -32.108  41.478  0.00  0.00     0.043 H 
ATOM     42  H11 4QQ d   1     -36.364 -30.433  40.988  0.00  0.00     0.043 H 
BRANCH  40  43
ATOM     43  CG  4QQ d   1     -38.457 -30.817  41.157  0.00  0.00    -0.056 A 
ATOM     44  CD1 4QQ d   1     -38.813 -29.639  40.540  0.00  0.00    -0.076 A 
ATOM     45  CE1 4QQ d   1     -40.127 -29.415  40.187  0.00  0.00    -0.069 A 
ATOM     46  H12 4QQ d   1     -38.060 -28.887  40.332  0.00  0.00     0.084 H 
ATOM     47  CZ  4QQ d   1     -41.102 -30.345  40.460  0.00  0.00     0.007 A 
ATOM     48  H14 4QQ d   1     -40.395 -28.492  39.687  0.00  0.00     0.085 H 
ATOM     49  CE2 4QQ d   1     -40.717 -31.523  41.079  0.00  0.00    -0.069 A 
ATOM     50  CD2 4QQ d   1     -39.413 -31.756  41.442  0.00  0.00    -0.076 A 
ATOM     51  H15 4QQ d   1     -41.465 -32.281  41.282  0.00  0.00     0.085 H 
ATOM     52  H13 4QQ d   1     -39.143 -32.675  41.950  0.00  0.00     0.084 H 
BRANCH  47  53
ATOM     53  CF  4QQ d   1     -42.447 -30.128  40.158  0.00  0.00     0.102 C 
BRANCH  53  54
ATOM     54  NG1 4QQ d   1     -43.271 -31.183  40.091  0.00  0.00    -0.385 N 
ATOM     55  H16 4QQ d   1     -44.267 -31.045  39.870  0.00  0.00     0.157 HD
ATOM     56  H17 4QQ d   1     -42.908 -32.132  40.261  0.00  0.00     0.157 HD
ENDBRANCH  53  54
BRANCH  53  57
ATOM     57  NG2 4QQ d   1     -42.901 -28.879  39.954  0.00  0.00    -0.385 N 
ATOM     58  H18 4QQ d   1     -42.253 -28.080  40.010  0.00  0.00     0.157 HD
ATOM     59  H19 4QQ d   1     -43.897 -28.721  39.742  0.00  0.00     0.157 HD
ENDBRANCH  53  57
ENDBRANCH  47  53
ENDBRANCH  40  43
ENDBRANCH   1  40
TORSDOF 10
