REMARK  6 active torsions:
REMARK  status: ('A' for Active; 'I' for Inactive)
REMARK    1  A    between atoms: C6_6  and  C7_7 
REMARK    2  A    between atoms: C7_7  and  N7_8 
REMARK    3  A    between atoms: C7_7  and  C1A_9 
REMARK       I    between atoms: N7_8  and  C8_15 
REMARK       I    between atoms: C8_15  and  N8_16 
REMARK    4  A    between atoms: N8_16  and  C9_17 
REMARK    5  A    between atoms: C9_17  and  C10_18 
REMARK    6  A    between atoms: N11_21  and  C1B_22 
ROOT
ATOM      1  C1B GAS d   1       6.698  40.590 -27.515  0.00  0.00     0.049 A 
ATOM      2  C2B GAS d   1       7.220  39.355 -27.168  0.00  0.00    -0.055 A 
ATOM      3  C3B GAS d   1       6.567  38.550 -26.275  0.00  0.00    -0.061 A 
ATOM      4  C4B GAS d   1       5.385  38.960 -25.712  0.00  0.00     0.044 A 
ATOM      5  C7B GAS d   1       4.656  37.999 -24.799  0.00  0.00     0.099 C 
ATOM      6  N7B GAS d   1       4.122  37.244 -24.102  0.00  0.00    -0.191 NA
ATOM      7  C5B GAS d   1       4.853  40.200 -26.023  0.00  0.00    -0.061 A 
ATOM      8  C6B GAS d   1       5.511  41.022 -26.930  0.00  0.00    -0.055 A 
ATOM      9  H17 GAS d   1       8.154  39.023 -27.608  0.00  0.00     0.087 H 
ATOM     10  H18 GAS d   1       6.985  37.585 -26.012  0.00  0.00     0.085 H 
ATOM     11  H19 GAS d   1       3.929  40.528 -25.562  0.00  0.00     0.085 H 
ATOM     12  H20 GAS d   1       5.102  41.994 -27.180  0.00  0.00     0.087 H 
ENDROOT
BRANCH   1  13
ATOM     13  N11 GAS d   1       7.430  41.432 -28.593  0.00  0.00    -0.192 N 
ATOM     14  C8  GAS d   1       7.134  42.079 -29.714  0.00  0.00     0.675 C 
ATOM     15  N7  GAS d   1       6.570  41.363 -30.682  0.00  0.00    -0.214 N 
ATOM     16  N8  GAS d   1       7.889  43.140 -30.032  0.00  0.00    -0.216 N 
ATOM     17  H7  GAS d   1       5.589  41.541 -30.939  0.00  0.00     0.178 HD
ATOM     18  H13 GAS d   1       7.783  43.541 -30.975  0.00  0.00     0.178 HD
ATOM     19  H16 GAS d   1       8.434  41.512 -28.377  0.00  0.00     0.184 HD
BRANCH  15  20
ATOM     20  C7  GAS d   1       7.315  40.336 -31.381  0.00  0.00     0.077 C 
ATOM     21  H6  GAS d   1       8.282  40.857 -31.333  0.00  0.00     0.088 H 
BRANCH  20  22
ATOM     22  C6  GAS d   1       7.756  39.172 -30.742  0.00  0.00    -0.030 A 
ATOM     23  C1  GAS d   1       8.941  39.179 -30.028  0.00  0.00    -0.074 A 
ATOM     24  C2  GAS d   1       9.431  38.007 -29.477  0.00  0.00    -0.082 A 
ATOM     25  H1  GAS d   1       9.488  40.106 -29.899  0.00  0.00     0.084 H 
ATOM     26  C3  GAS d   1       8.741  36.820 -29.632  0.00  0.00    -0.083 A 
ATOM     27  H2  GAS d   1      10.361  38.021 -28.921  0.00  0.00     0.083 H 
ATOM     28  C4  GAS d   1       7.553  36.802 -30.336  0.00  0.00    -0.082 A 
ATOM     29  H3  GAS d   1       9.131  35.905 -29.202  0.00  0.00     0.083 H 
ATOM     30  C5  GAS d   1       7.060  37.973 -30.887  0.00  0.00    -0.074 A 
ATOM     31  H4  GAS d   1       7.008  35.873 -30.457  0.00  0.00     0.083 H 
ATOM     32  H5  GAS d   1       6.125  37.957 -31.436  0.00  0.00     0.084 H 
ENDBRANCH  20  22
BRANCH  20  33
ATOM     33  C1A GAS d   1       7.226  40.303 -32.752  0.00  0.00    -0.030 A 
ATOM     34  C2A GAS d   1       6.192  40.979 -33.365  0.00  0.00    -0.074 A 
ATOM     35  C3A GAS d   1       6.097  40.986 -34.734  0.00  0.00    -0.082 A 
ATOM     36  H8  GAS d   1       5.456  41.504 -32.767  0.00  0.00     0.084 H 
ATOM     37  C4A GAS d   1       7.040  40.314 -35.495  0.00  0.00    -0.083 A 
ATOM     38  H9  GAS d   1       5.286  41.516 -35.219  0.00  0.00     0.083 H 
ATOM     39  C5A GAS d   1       8.079  39.634 -34.886  0.00  0.00    -0.082 A 
ATOM     40  H10 GAS d   1       6.963  40.321 -36.576  0.00  0.00     0.083 H 
ATOM     41  C6A GAS d   1       8.172  39.630 -33.511  0.00  0.00    -0.074 A 
ATOM     42  H11 GAS d   1       8.814  39.109 -35.485  0.00  0.00     0.083 H 
ATOM     43  H12 GAS d   1       8.983  39.102 -33.023  0.00  0.00     0.084 H 
ENDBRANCH  20  33
ENDBRANCH  15  20
BRANCH  16  44
ATOM     44  C9  GAS d   1       8.855  43.766 -29.125  0.00  0.00     0.089 C 
ATOM     45  H14 GAS d   1       8.268  44.378 -28.424  0.00  0.00     0.081 H 
ATOM     46  H15 GAS d   1       9.482  44.421 -29.747  0.00  0.00     0.081 H 
BRANCH  44  47
ATOM     47  C10 GAS d   1       9.812  42.941 -28.274  0.00  0.00     0.191 C 
ATOM     48  O1  GAS d   1      10.380  43.523 -27.328  0.00  0.00    -0.647 OA
ATOM     49  O2  GAS d   1      10.201  41.823 -28.683  0.00  0.00    -0.647 OA
ENDBRANCH  44  47
ENDBRANCH  16  44
ENDBRANCH   1  13
TORSDOF 6
