REMARK  8 active torsions:
REMARK  status: ('A' for Active; 'I' for Inactive)
REMARK    1  A    between atoms: C1_1  and  O25_25 
REMARK    2  A    between atoms: C2_2  and  O27_27 
REMARK    3  A    between atoms: C8_8  and  C10_10 
REMARK    4  A    between atoms: C10_10  and  C11_11 
REMARK    5  A    between atoms: N14_14  and  C17_17 
REMARK    6  A    between atoms: C17_17  and  C18_18 
REMARK    7  A    between atoms: O25_25  and  C26_26 
REMARK    8  A    between atoms: O27_27  and  C28_28 
ROOT
ATOM      1  C11 E20 d   1       4.307  65.848  68.533  0.00  0.00    -0.050 C 
ATOM      2  C12 E20 d   1       5.006  65.637  67.195  0.00  0.00    -0.039 C 
ATOM      3  C13 E20 d   1       5.161  66.919  66.425  0.00  0.00     0.084 C 
ATOM      4  N14 E20 d   1       3.854  67.635  66.237  0.00  0.00    -0.067 N 
ATOM      5  C15 E20 d   1       3.177  67.997  67.535  0.00  0.00     0.084 C 
ATOM      6  C16 E20 d   1       3.004  66.708  68.390  0.00  0.00    -0.039 C 
ATOM      7  H8  E20 d   1       4.995  66.440  69.154  0.00  0.00     0.040 H 
ATOM      8  H9  E20 d   1       4.413  64.932  66.593  0.00  0.00     0.035 H 
ATOM      9  H10 E20 d   1       6.004  65.212  67.380  0.00  0.00     0.035 H 
ATOM     10  H11 E20 d   1       5.583  66.688  65.436  0.00  0.00     0.076 H 
ATOM     11  H12 E20 d   1       5.850  67.579  66.973  0.00  0.00     0.076 H 
ATOM     12  H13 E20 d   1       3.274  66.971  65.748  0.00  0.00     0.280 HD
ATOM     13  H14 E20 d   1       2.191  68.437  67.327  0.00  0.00     0.076 H 
ATOM     14  H15 E20 d   1       3.794  68.724  68.083  0.00  0.00     0.076 H 
ATOM     15  H16 E20 d   1       2.675  67.004  69.397  0.00  0.00     0.035 H 
ATOM     16  H17 E20 d   1       2.230  66.084  67.920  0.00  0.00     0.035 H 
ENDROOT
BRANCH   1  17
ATOM     17  C10 E20 d   1       4.105  64.576  69.245  0.00  0.00    -0.051 C 
ATOM     18  H6  E20 d   1       5.075  64.057  69.251  0.00  0.00     0.034 H 
ATOM     19  H7  E20 d   1       3.819  64.830  70.276  0.00  0.00     0.034 H 
BRANCH  17  20
ATOM     20  C8  E20 d   1       3.086  63.590  68.740  0.00  0.00     0.013 A 
ATOM     21  C7  E20 d   1       3.365  62.094  69.016  0.00  0.00     0.164 A 
ATOM     22  C5  E20 d   1       2.306  61.665  69.881  0.00  0.00     0.019 A 
ATOM     23  O24 E20 d   1       4.325  61.375  68.615  0.00  0.00    -0.292 OA
ATOM     24  C4  E20 d   1       1.447  62.720  70.270  0.00  0.00    -0.041 A 
ATOM     25  C6  E20 d   1       2.140  60.371  70.362  0.00  0.00    -0.034 A 
ATOM     26  C3  E20 d   1       0.347  62.415  71.171  0.00  0.00    -0.041 A 
ATOM     27  C9  E20 d   1       1.839  63.992  69.558  0.00  0.00    -0.030 A 
ATOM     28  C2  E20 d   1       0.188  61.079  71.628  0.00  0.00     0.102 A 
ATOM     29  H1  E20 d   1      -0.339  63.192  71.488  0.00  0.00     0.088 H 
ATOM     30  C1  E20 d   1       1.057  60.056  71.240  0.00  0.00     0.102 A 
ATOM     31  H4  E20 d   1       2.083  64.785  70.280  0.00  0.00     0.041 H 
ATOM     32  H5  E20 d   1       1.030  64.335  68.896  0.00  0.00     0.041 H 
ATOM     33  H2  E20 d   1       2.838  59.595  70.069  0.00  0.00     0.089 H 
ATOM     34  H3  E20 d   1       2.931  63.729  67.660  0.00  0.00     0.052 H 
BRANCH  28  35
ATOM     35  O27 E20 d   1      -0.925  61.025  72.321  0.00  0.00    -0.353 OA
BRANCH  35  36
ATOM     36  C28 E20 d   1      -1.434  59.862  72.928  0.00  0.00     0.010 C 
ATOM     37  H28 E20 d   1      -2.377  60.100  73.443  0.00  0.00     0.066 H 
ATOM     38  H29 E20 d   1      -0.705  59.480  73.657  0.00  0.00     0.066 H 
ATOM     39  H30 E20 d   1      -1.619  59.098  72.159  0.00  0.00     0.066 H 
ENDBRANCH  35  36
ENDBRANCH  28  35
BRANCH  30  40
ATOM     40  O25 E20 d   1       0.890  58.762  71.644  0.00  0.00    -0.353 OA
BRANCH  40  41
ATOM     41  C26 E20 d   1       1.842  57.647  71.265  0.00  0.00     0.010 C 
ATOM     42  H25 E20 d   1       1.495  56.702  71.709  0.00  0.00     0.066 H 
ATOM     43  H26 E20 d   1       2.849  57.881  71.641  0.00  0.00     0.066 H 
ATOM     44  H27 E20 d   1       1.873  57.548  70.170  0.00  0.00     0.066 H 
ENDBRANCH  40  41
ENDBRANCH  30  40
ENDBRANCH  17  20
ENDBRANCH   1  17
BRANCH   4  45
ATOM     45  C17 E20 d   1       3.743  68.943  65.483  0.00  0.00     0.107 C 
ATOM     46  H18 E20 d   1       4.477  69.644  65.906  0.00  0.00     0.083 H 
ATOM     47  H19 E20 d   1       2.728  69.339  65.635  0.00  0.00     0.083 H 
BRANCH  45  48
ATOM     48  C18 E20 d   1       3.992  68.847  63.988  0.00  0.00    -0.033 A 
ATOM     49  C23 E20 d   1       5.310  68.869  63.440  0.00  0.00    -0.075 A 
ATOM     50  C22 E20 d   1       5.479  68.598  62.046  0.00  0.00    -0.082 A 
ATOM     51  H24 E20 d   1       6.166  69.087  64.068  0.00  0.00     0.084 H 
ATOM     52  C21 E20 d   1       4.345  68.390  61.195  0.00  0.00    -0.083 A 
ATOM     53  H23 E20 d   1       6.478  68.549  61.628  0.00  0.00     0.083 H 
ATOM     54  C20 E20 d   1       3.052  68.432  61.723  0.00  0.00    -0.082 A 
ATOM     55  H22 E20 d   1       4.491  68.199  60.138  0.00  0.00     0.083 H 
ATOM     56  C19 E20 d   1       2.864  68.675  63.126  0.00  0.00    -0.075 A 
ATOM     57  H21 E20 d   1       2.195  68.282  61.077  0.00  0.00     0.083 H 
ATOM     58  H20 E20 d   1       1.861  68.728  63.534  0.00  0.00     0.084 H 
ENDBRANCH  45  48
ENDBRANCH   4  45
TORSDOF 8
