REMARK  9 active torsions:
REMARK  status: ('A' for Active; 'I' for Inactive)
REMARK    1  A    between atoms: C_1  and  CH3_3 
REMARK       I    between atoms: N_4  and  C_1 
REMARK    2  A    between atoms: CA_5  and  N_4 
REMARK    3  A    between atoms: C_6  and  CA_5 
REMARK    4  A    between atoms: CA_5  and  CB_8 
REMARK       I    between atoms: N_15  and  C_6 
REMARK    5  A    between atoms: CB_8  and  CG_9 
REMARK    6  A    between atoms: C_17  and  CA_16 
REMARK       I    between atoms: N_22  and  C_17 
REMARK    7  A    between atoms: C_24  and  CA_23 
REMARK       I    between atoms: N_29  and  C_24 
REMARK    8  A    between atoms: C_31  and  CA_30 
REMARK       I    between atoms: C_31  and  N_36 
REMARK    9  A    between atoms: CA_37  and  C_38 
ROOT
ATOM      1  C   PRO d   1      19.516  21.762  19.642  0.00  0.00     0.243 C 
ATOM      2  O   PRO d   1      19.316  21.152  18.587  0.00  0.00    -0.271 OA
ATOM      3  N   PRO d   1      19.882  23.050  19.656  0.00  0.00    -0.337 N 
ATOM      4  CA  PRO d   1      20.065  23.777  18.399  0.00  0.00     0.092 C 
ATOM      5  CB  PRO d   1      20.274  25.214  18.867  0.00  0.00    -0.036 C 
ATOM      6  CG  PRO d   1      20.972  25.034  20.175  0.00  0.00    -0.048 C 
ATOM      7  CD  PRO d   1      20.178  23.914  20.812  0.00  0.00    -0.001 C 
ATOM      8  H20 PRO d   1      19.164  23.703  17.773  0.00  0.00     0.087 H 
ATOM      9  H21 PRO d   1      19.313  25.732  18.998  0.00  0.00     0.036 H 
ATOM     10  H22 PRO d   1      20.899  25.775  18.157  0.00  0.00     0.036 H 
ATOM     11  H23 PRO d   1      20.925  25.951  20.781  0.00  0.00     0.035 H 
ATOM     12  H24 PRO d   1      22.023  24.744  20.029  0.00  0.00     0.035 H 
ATOM     13  H25 PRO d   1      19.255  24.292  21.275  0.00  0.00     0.064 H 
ATOM     14  H26 PRO d   1      20.774  23.381  21.567  0.00  0.00     0.064 H 
ENDROOT
BRANCH   4  15
ATOM     15  C   PRO d   1      21.258  23.240  17.609  0.00  0.00     0.243 C 
ATOM     16  O   PRO d   1      22.209  22.713  18.187  0.00  0.00    -0.271 OA
ATOM     17  N   PRO d   1      21.211  23.349  16.273  0.00  0.00    -0.337 N 
ATOM     18  CA  PRO d   1      22.316  22.865  15.444  0.00  0.00     0.092 C 
ATOM     19  CD  PRO d   1      20.104  23.846  15.436  0.00  0.00    -0.001 C 
ATOM     20  CB  PRO d   1      21.740  22.939  14.030  0.00  0.00    -0.036 C 
ATOM     21  H27 PRO d   1      22.570  21.826  15.700  0.00  0.00     0.087 H 
ATOM     22  CG  PRO d   1      20.789  24.089  14.115  0.00  0.00    -0.048 C 
ATOM     23  H28 PRO d   1      21.214  22.009  13.768  0.00  0.00     0.036 H 
ATOM     24  H29 PRO d   1      22.531  23.134  13.290  0.00  0.00     0.036 H 
ATOM     25  H30 PRO d   1      20.068  24.072  13.284  0.00  0.00     0.035 H 
ATOM     26  H31 PRO d   1      21.325  25.049  14.116  0.00  0.00     0.035 H 
ATOM     27  H32 PRO d   1      19.308  23.093  15.340  0.00  0.00     0.064 H 
ATOM     28  H33 PRO d   1      19.682  24.776  15.844  0.00  0.00     0.064 H 
BRANCH  18  29
ATOM     29  C   PRO d   1      23.560  23.737  15.631  0.00  0.00     0.243 C 
ATOM     30  O   PRO d   1      23.489  24.810  16.232  0.00  0.00    -0.271 OA
ATOM     31  N   PRO d   1      24.717  23.280  15.131  0.00  0.00    -0.336 N 
ATOM     32  CA  PRO d   1      25.989  24.005  15.237  0.00  0.00     0.098 C 
ATOM     33  CD  PRO d   1      24.920  21.982  14.465  0.00  0.00    -0.001 C 
ATOM     34  CB  PRO d   1      26.946  23.139  14.424  0.00  0.00    -0.035 C 
ATOM     35  H34 PRO d   1      26.313  24.046  16.288  0.00  0.00     0.089 H 
ATOM     36  CG  PRO d   1      26.404  21.770  14.630  0.00  0.00    -0.048 C 
ATOM     37  H35 PRO d   1      27.975  23.220  14.805  0.00  0.00     0.036 H 
ATOM     38  H36 PRO d   1      26.926  23.417  13.360  0.00  0.00     0.036 H 
ATOM     39  H37 PRO d   1      26.643  21.394  15.636  0.00  0.00     0.035 H 
ATOM     40  H38 PRO d   1      26.793  21.070  13.875  0.00  0.00     0.035 H 
ATOM     41  H39 PRO d   1      24.346  21.185  14.960  0.00  0.00     0.064 H 
ATOM     42  H40 PRO d   1      24.639  22.030  13.402  0.00  0.00     0.064 H 
BRANCH  32  43
ATOM     43  C   PRO d   1      25.911  25.435  14.705  0.00  0.00     0.196 C 
ATOM     44  O   PRO d   1      26.325  26.356  15.441  0.00  0.00    -0.646 OA
ATOM     45  O1  PRO d   1      25.444  25.678  13.560  0.00  0.00    -0.646 OA
ENDBRANCH  32  43
ENDBRANCH  18  29
ENDBRANCH   4  15
BRANCH   1  46
ATOM     46  CA  PRO d   1      19.347  21.068  20.988  0.00  0.00     0.092 C 
ATOM     47  N   PRO d   1      18.552  19.857  20.794  0.00  0.00    -0.337 N 
ATOM     48  CD  PRO d   1      19.398  18.654  20.900  0.00  0.00    -0.001 C 
ATOM     49  C   PHE d   1      17.220  19.950  20.671  0.00  0.00     0.243 C 
ATOM     50  CG  PRO d   1      20.802  19.233  20.798  0.00  0.00    -0.048 C 
ATOM     51  H18 PRO d   1      19.247  18.144  21.863  0.00  0.00     0.064 H 
ATOM     52  H19 PRO d   1      19.196  17.952  20.078  0.00  0.00     0.064 H 
ATOM     53  CB  PRO d   1      20.666  20.527  21.533  0.00  0.00    -0.036 C 
ATOM     54  H16 PRO d   1      21.540  18.576  21.281  0.00  0.00     0.035 H 
ATOM     55  H17 PRO d   1      21.090  19.399  19.749  0.00  0.00     0.035 H 
ATOM     56  H14 PRO d   1      20.613  20.365  22.620  0.00  0.00     0.036 H 
ATOM     57  H15 PRO d   1      21.501  21.206  21.304  0.00  0.00     0.036 H 
ATOM     58  O   PHE d   1      16.631  21.033  20.728  0.00  0.00    -0.271 OA
ATOM     59  H13 PRO d   1      18.876  21.755  21.706  0.00  0.00     0.087 H 
BRANCH  49  60
ATOM     60  CA  PHE d   1      16.451  18.656  20.461  0.00  0.00     0.093 C 
ATOM     61  H5  PHE d   1      16.931  17.851  21.037  0.00  0.00     0.088 H 
BRANCH  60  62
ATOM     62  CB  PHE d   1      16.519  18.318  18.967  0.00  0.00    -0.014 C 
ATOM     63  H6  PHE d   1      17.577  18.293  18.667  0.00  0.00     0.043 H 
ATOM     64  H7  PHE d   1      15.998  19.111  18.410  0.00  0.00     0.043 H 
BRANCH  62  65
ATOM     65  CG  PHE d   1      15.898  17.006  18.606  0.00  0.00    -0.056 A 
ATOM     66  CD2 PHE d   1      16.685  15.867  18.473  0.00  0.00    -0.077 A 
ATOM     67  CE2 PHE d   1      16.114  14.646  18.132  0.00  0.00    -0.082 A 
ATOM     68  H9  PHE d   1      17.755  15.932  18.637  0.00  0.00     0.084 H 
ATOM     69  CZ  PHE d   1      14.748  14.558  17.920  0.00  0.00    -0.083 A 
ATOM     70  H11 PHE d   1      16.737  13.764  18.032  0.00  0.00     0.083 H 
ATOM     71  CE1 PHE d   1      13.953  15.691  18.052  0.00  0.00    -0.082 A 
ATOM     72  H12 PHE d   1      14.300  13.608  17.652  0.00  0.00     0.083 H 
ATOM     73  CD1 PHE d   1      14.530  16.906  18.394  0.00  0.00    -0.077 A 
ATOM     74  H10 PHE d   1      12.883  15.625  17.888  0.00  0.00     0.083 H 
ATOM     75  H8  PHE d   1      13.906  17.786  18.497  0.00  0.00     0.084 H 
ENDBRANCH  62  65
ENDBRANCH  60  62
BRANCH  60  76
ATOM     76  N   PHE d   1      15.068  18.787  20.912  0.00  0.00    -0.348 N 
ATOM     77  C   ACE d   1      14.480  17.857  21.662  0.00  0.00     0.214 C 
ATOM     78  O   ACE d   1      15.035  16.800  21.985  0.00  0.00    -0.274 OA
ATOM     79  H4  PHE d   1      14.547  19.599  20.650  0.00  0.00     0.163 HD
BRANCH  77  80
ATOM     80  CH3 ACE d   1      12.957  17.987  21.712  0.00  0.00    -0.003 C 
ATOM     81  H1  ACE d   1      12.664  18.997  21.389  0.00  0.00     0.040 H 
ATOM     82  H2  ACE d   1      12.608  17.816  22.741  0.00  0.00     0.040 H 
ATOM     83  H3  ACE d   1      12.503  17.242  21.042  0.00  0.00     0.040 H 
ENDBRANCH  77  80
ENDBRANCH  60  76
ENDBRANCH  49  60
ENDBRANCH   1  46
TORSDOF 9
