REMARK WARNING: 32 MAX_TORS EXCEEDED!!!
REMARK  51 active torsions:
REMARK  status: ('A' for Active; 'I' for Inactive)
REMARK       I    between atoms: C1_3  and  NA_1 
REMARK    1  A    between atoms: C2_2  and  C1_3 
REMARK    2  A    between atoms: C3_6  and  C2_2 
REMARK    3  A    between atoms: C2_2  and  NB_7 
REMARK    4  A    between atoms: NC_5  and  C3_6 
REMARK    5  A    between atoms: C6_18  and  NC_5 
REMARK       I    between atoms: C4_10  and  ND_8 
REMARK    6  A    between atoms: C5_9  and  C4_10 
REMARK    7  A    between atoms: C6_18  and  C5_9 
REMARK    8  A    between atoms: C9_13  and  CA_20 
REMARK    9  A    between atoms: C12_21  and  C10_14 
REMARK   10  A    between atoms: C7_16  and  C6_18 
REMARK       I    between atoms: NH_23  and  C12_21 
REMARK   11  A    between atoms: C13_24  and  NH_23 
REMARK   12  A    between atoms: C13_24  and  C30_25 
REMARK   13  A    between atoms: C14_27  and  C13_24 
REMARK       I    between atoms: C30_25  and  NK_34 
REMARK   14  A    between atoms: C14_27  and  C27_28 
REMARK   15  A    between atoms: OH1_29  and  C14_27 
REMARK   16  A    between atoms: C63_79  and  OH1_29 
REMARK   17  A    between atoms: NK_34  and  C31_39 
REMARK   18  A    between atoms: C34_35  and  C36_36 
REMARK   19  A    between atoms: C33_41  and  C34_35 
REMARK   20  A    between atoms: C34_35  and  CC_42 
REMARK       I    between atoms: C36_36  and  NL_43 
REMARK   21  A    between atoms: C33_41  and  OH2_38 
REMARK   22  A    between atoms: C31_39  and  CB_40 
REMARK   23  A    between atoms: C31_39  and  C33_41 
REMARK   24  A    between atoms: NL_43  and  C37_44 
REMARK   25  A    between atoms: C37_44  and  C40_45 
REMARK   26  A    between atoms: C37_44  and  C38_47 
REMARK       I    between atoms: C40_45  and  NM_50 
REMARK   27  A    between atoms: C38_47  and  OH3_48 
REMARK   28  A    between atoms: C38_47  and  CD_49 
REMARK   29  A    between atoms: NM_50  and  C41_55 
REMARK   30  A    between atoms: C42_51  and  C43_54 
REMARK   31  A    between atoms: C41_55  and  C42_51 
REMARK   32  A    between atoms: C48_61  and  C49_52 
REMARK       I    between atoms: C49_52  and  NP_65 
REMARK   33  A    between atoms: C45_58  and  C46_63 
REMARK   34  A    between atoms: NP_65  and  C50_66 
REMARK   35  A    between atoms: C50_66  and  C51_67 
REMARK   36  A    between atoms: C51_67  and  C52_68 
REMARK   37  A    between atoms: C52_68  and  S53_69 
REMARK   38  A    between atoms: S53_69  and  C55_70 
REMARK   39  A    between atoms: S53_69  and  C54_71 
REMARK   40  A    between atoms: C59_82  and  O59_72 
REMARK   41  A    between atoms: C58_81  and  O58_73 
REMARK   42  A    between atoms: C61_74  and  O61_75 
REMARK   43  A    between atoms: C60_77  and  C61_74 
REMARK   44  A    between atoms: O56_76  and  C57_80 
REMARK   45  A    between atoms: C64_88  and  O56_76 
REMARK   46  A    between atoms: C69_83  and  O69_91 
REMARK   47  A    between atoms: C68_84  and  O68_89 
REMARK   48  A    between atoms: C67_85  and  O67_90 
REMARK   49  A    between atoms: C65_86  and  C66_96 
REMARK   50  A    between atoms: O68_89  and  C70_93 
REMARK       I    between atoms: C70_93  and  NQ_92 
REMARK   51  A    between atoms: C66_96  and  O66_95 
ROOT
ATOM      1  C13 BLM d   1      42.347  12.991  24.810  0.00  0.00     0.120 C 
ATOM      2  H22 BLM d   1      43.096  13.324  24.077  0.00  0.00     0.092 H 
ENDROOT
BRANCH   1   3
ATOM      3  NH  BLM d   1      41.069  12.909  24.134  0.00  0.00    -0.340 N 
ATOM      4  C12 BLM d   1      40.954  12.575  22.801  0.00  0.00     0.271 C 
ATOM      5  O12 BLM d   1      41.904  12.294  22.068  0.00  0.00    -0.266 OA
ATOM      6  H21 BLM d   1      40.237  13.102  24.654  0.00  0.00     0.163 HD
BRANCH   4   7
ATOM      7  C10 BLM d   1      39.624  12.531  22.277  0.00  0.00     0.136 A 
ATOM      8  C9  BLM d   1      39.165  12.269  21.091  0.00  0.00     0.018 A 
ATOM      9  C8  BLM d   1      37.669  12.207  20.862  0.00  0.00     0.131 A 
ATOM     10  NE  BLM d   1      36.833  12.465  22.032  0.00  0.00    -0.214 NA
ATOM     11  NF  BLM d   1      37.140  11.911  19.670  0.00  0.00    -0.383 N 
ATOM     12  C7  BLM d   1      37.301  12.712  23.132  0.00  0.00     0.160 A 
ATOM     13  NG  BLM d   1      38.643  12.776  23.375  0.00  0.00    -0.225 NA
ATOM     14  H16 BLM d   1      36.117  11.879  19.554  0.00  0.00     0.157 HD
ATOM     15  H17 BLM d   1      37.755  11.715  18.868  0.00  0.00     0.157 HD
BRANCH   8  16
ATOM     16  CA  BLM d   1      40.067  12.068  19.888  0.00  0.00    -0.045 C 
ATOM     17  H18 BLM d   1      39.453  11.859  19.000  0.00  0.00     0.033 H 
ATOM     18  H19 BLM d   1      40.743  11.220  20.074  0.00  0.00     0.033 H 
ATOM     19  H20 BLM d   1      40.660  12.979  19.718  0.00  0.00     0.033 H 
ENDBRANCH   8  16
BRANCH  12  20
ATOM     20  C6  BLM d   1      36.405  12.906  24.375  0.00  0.00     0.168 C 
ATOM     21  H15 BLM d   1      36.850  12.334  25.202  0.00  0.00     0.097 H 
BRANCH  20  22
ATOM     22  NC  BLM d   1      36.369  14.299  24.802  0.00  0.00    -0.061 N 
ATOM     23  H4  BLM d   1      35.724  14.351  25.575  0.00  0.00     0.278 HD
ATOM     24  H5  BLM d   1      37.297  14.531  25.121  0.00  0.00     0.278 HD
BRANCH  22  25
ATOM     25  C3  BLM d   1      35.977  15.332  23.854  0.00  0.00     0.117 C 
ATOM     26  H6  BLM d   1      36.373  15.071  22.861  0.00  0.00     0.079 H 
ATOM     27  H7  BLM d   1      34.879  15.376  23.811  0.00  0.00     0.079 H 
BRANCH  25  28
ATOM     28  C2  BLM d   1      36.515  16.723  24.254  0.00  0.00     0.198 C 
ATOM     29  H3  BLM d   1      35.679  17.329  24.633  0.00  0.00     0.101 H 
BRANCH  28  30
ATOM     30  C1  BLM d   1      37.580  16.683  25.347  0.00  0.00     0.247 C 
ATOM     31  NA  BLM d   1      38.901  16.471  24.992  0.00  0.00    -0.368 N 
ATOM     32  H1  BLM d   1      39.610  16.442  25.697  0.00  0.00     0.159 HD
ATOM     33  H2  BLM d   1      39.147  16.347  24.031  0.00  0.00     0.159 HD
ATOM     34  O1  BLM d   1      37.342  16.799  26.529  0.00  0.00    -0.271 OA
ENDBRANCH  28  30
BRANCH  28  35
ATOM     35  NB  BLM d   1      37.028  17.338  22.973  0.00  0.00    -0.065 N 
ATOM     36  H8  BLM d   1      37.397  18.256  23.165  0.00  0.00     0.275 HD
ATOM     37  H9  BLM d   1      36.273  17.411  22.309  0.00  0.00     0.275 HD
ATOM     38  H10 BLM d   1      37.757  16.757  22.590  0.00  0.00     0.275 HD
ENDBRANCH  28  35
ENDBRANCH  25  28
ENDBRANCH  22  25
ENDBRANCH  20  22
BRANCH  20  39
ATOM     39  C5  BLM d   1      35.022  12.295  24.090  0.00  0.00     0.042 C 
ATOM     40  H13 BLM d   1      34.336  12.705  24.846  0.00  0.00     0.051 H 
ATOM     41  H14 BLM d   1      34.722  12.648  23.092  0.00  0.00     0.051 H 
BRANCH  39  42
ATOM     42  C4  BLM d   1      34.827  10.815  24.095  0.00  0.00     0.217 C 
ATOM     43  ND  BLM d   1      33.683  10.258  23.638  0.00  0.00    -0.370 N 
ATOM     44  H11 BLM d   1      33.571   9.264  23.650  0.00  0.00     0.159 HD
ATOM     45  H12 BLM d   1      32.949  10.840  23.288  0.00  0.00     0.159 HD
ATOM     46  O4  BLM d   1      35.754  10.044  24.539  0.00  0.00    -0.274 OA
ENDBRANCH  39  42
ENDBRANCH  20  39
ENDBRANCH  12  20
ENDBRANCH   4   7
ENDBRANCH   1   3
BRANCH   1  47
ATOM     47  C30 BLM d   1      42.778  11.634  25.342  0.00  0.00     0.243 C 
ATOM     48  O30 BLM d   1      43.972  11.351  25.467  0.00  0.00    -0.271 OA
ATOM     49  NK  BLM d   1      41.810  10.763  25.643  0.00  0.00    -0.352 N 
ATOM     50  H27 BLM d   1      40.855  11.024  25.504  0.00  0.00     0.163 HD
BRANCH  49  51
ATOM     51  C31 BLM d   1      42.118   9.444  26.168  0.00  0.00     0.034 C 
ATOM     52  H30 BLM d   1      43.145   9.440  26.562  0.00  0.00     0.075 H 
BRANCH  51  53
ATOM     53  CB  BLM d   1      42.017   8.419  25.050  0.00  0.00    -0.055 C 
ATOM     54  H31 BLM d   1      42.250   7.420  25.447  0.00  0.00     0.030 H 
ATOM     55  H32 BLM d   1      42.732   8.673  24.254  0.00  0.00     0.030 H 
ATOM     56  H33 BLM d   1      40.996   8.422  24.641  0.00  0.00     0.030 H 
ENDBRANCH  51  53
BRANCH  51  57
ATOM     57  C33 BLM d   1      41.147   9.119  27.307  0.00  0.00     0.066 C 
ATOM     58  H34 BLM d   1      40.161   8.902  26.870  0.00  0.00     0.087 H 
BRANCH  57  59
ATOM     59  C34 BLM d   1      40.961  10.153  28.438  0.00  0.00     0.047 C 
ATOM     60  H28 BLM d   1      40.562  11.081  28.003  0.00  0.00     0.058 H 
BRANCH  59  61
ATOM     61  C36 BLM d   1      39.969   9.601  29.443  0.00  0.00     0.224 C 
ATOM     62  O36 BLM d   1      40.317   9.178  30.551  0.00  0.00    -0.273 OA
ATOM     63  NL  BLM d   1      38.697   9.582  29.050  0.00  0.00    -0.345 N 
ATOM     64  H38 BLM d   1      38.458   9.938  28.147  0.00  0.00     0.163 HD
BRANCH  63  65
ATOM     65  C37 BLM d   1      37.649   9.054  29.908  0.00  0.00     0.113 C 
ATOM     66  H39 BLM d   1      37.891   9.300  30.953  0.00  0.00     0.091 H 
BRANCH  65  67
ATOM     67  C40 BLM d   1      37.568   7.532  29.775  0.00  0.00     0.243 C 
ATOM     68  O40 BLM d   1      37.582   6.984  28.666  0.00  0.00    -0.271 OA
ATOM     69  NM  BLM d   1      37.526   6.824  30.914  0.00  0.00    -0.359 N 
ATOM     70  H45 BLM d   1      37.530   7.319  31.783  0.00  0.00     0.162 HD
BRANCH  69  71
ATOM     71  C41 BLM d   1      37.475   5.367  30.946  0.00  0.00     0.001 C 
ATOM     72  H48 BLM d   1      38.120   5.010  31.762  0.00  0.00     0.064 H 
ATOM     73  H49 BLM d   1      37.850   4.981  29.987  0.00  0.00     0.064 H 
BRANCH  71  74
ATOM     74  C42 BLM d   1      36.059   4.829  31.171  0.00  0.00    -0.004 C 
ATOM     75  H46 BLM d   1      35.863   4.787  32.253  0.00  0.00     0.045 H 
ATOM     76  H47 BLM d   1      35.340   5.511  30.694  0.00  0.00     0.045 H 
BRANCH  74  77
ATOM     77  C43 BLM d   1      35.881   3.465  30.597  0.00  0.00     0.077 A 
ATOM     78  S43 BLM d   1      35.993   3.062  28.920  0.00  0.00    -0.084 SA
ATOM     79  C44 BLM d   1      35.703   1.420  29.270  0.00  0.00    -0.013 A 
ATOM     80  C45 BLM d   1      35.538   1.283  30.650  0.00  0.00     0.100 A 
ATOM     81  H50 BLM d   1      35.654   0.613  28.540  0.00  0.00     0.098 H 
ATOM     82  NN  BLM d   1      35.643   2.475  31.360  0.00  0.00    -0.243 NA
BRANCH  80  83
ATOM     83  C46 BLM d   1      35.314   0.065  31.329  0.00  0.00     0.127 A 
ATOM     84  NO  BLM d   1      35.185  -1.138  30.866  0.00  0.00    -0.233 NA
ATOM     85  C48 BLM d   1      34.937  -2.049  31.877  0.00  0.00     0.132 A 
ATOM     86  C47 BLM d   1      34.882  -1.505  33.119  0.00  0.00    -0.010 A 
ATOM     87  S46 BLM d   1      35.153   0.204  33.058  0.00  0.00    -0.077 SA
ATOM     88  H51 BLM d   1      34.693  -2.068  34.032  0.00  0.00     0.099 H 
BRANCH  85  89
ATOM     89  C49 BLM d   1      34.730  -3.537  31.692  0.00  0.00     0.270 C 
ATOM     90  O49 BLM d   1      34.455  -4.232  32.664  0.00  0.00    -0.266 OA
ATOM     91  NP  BLM d   1      34.818  -3.981  30.444  0.00  0.00    -0.356 N 
ATOM     92  H52 BLM d   1      34.994  -3.345  29.692  0.00  0.00     0.162 HD
BRANCH  91  93
ATOM     93  C50 BLM d   1      34.657  -5.391  30.185  0.00  0.00    -0.004 C 
ATOM     94  H53 BLM d   1      34.469  -5.905  31.139  0.00  0.00     0.064 H 
ATOM     95  H54 BLM d   1      35.586  -5.775  29.738  0.00  0.00     0.064 H 
BRANCH  93  96
ATOM     96  C51 BLM d   1      33.516  -5.680  29.249  0.00  0.00    -0.043 C 
ATOM     97  H55 BLM d   1      33.707  -5.182  28.287  0.00  0.00     0.036 H 
ATOM     98  H56 BLM d   1      32.586  -5.288  29.686  0.00  0.00     0.036 H 
BRANCH  96  99
ATOM     99  C52 BLM d   1      33.358  -7.187  29.009  0.00  0.00    -0.031 C 
ATOM    100  H57 BLM d   1      32.343  -7.385  28.633  0.00  0.00     0.047 H 
ATOM    101  H58 BLM d   1      33.506  -7.718  29.961  0.00  0.00     0.047 H 
BRANCH  99 102
ATOM    102  S53 BLM d   1      34.556  -7.794  27.807  0.00  0.00    -0.228 SA
BRANCH 102 103
ATOM    103  C55 BLM d   1      33.636  -8.265  26.366  0.00  0.00    -0.043 C 
ATOM    104  H59 BLM d   1      34.326  -8.645  25.598  0.00  0.00     0.040 H 
ATOM    105  H60 BLM d   1      33.096  -7.391  25.974  0.00  0.00     0.040 H 
ATOM    106  H61 BLM d   1      32.915  -9.052  26.632  0.00  0.00     0.040 H 
ENDBRANCH 102 103
BRANCH 102 107
ATOM    107  C54 BLM d   1      35.173  -9.335  28.432  0.00  0.00    -0.043 C 
ATOM    108  H62 BLM d   1      35.767  -9.151  29.340  0.00  0.00     0.040 H 
ATOM    109  H63 BLM d   1      35.807  -9.812  27.670  0.00  0.00     0.040 H 
ATOM    110  H64 BLM d   1      34.328  -9.997  28.674  0.00  0.00     0.040 H 
ENDBRANCH 102 107
ENDBRANCH  99 102
ENDBRANCH  96  99
ENDBRANCH  93  96
ENDBRANCH  91  93
ENDBRANCH  85  89
ENDBRANCH  80  83
ENDBRANCH  74  77
ENDBRANCH  71  74
ENDBRANCH  69  71
ENDBRANCH  65  67
BRANCH  65 111
ATOM    111  C38 BLM d   1      36.314   9.707  29.551  0.00  0.00     0.060 C 
ATOM    112  H40 BLM d   1      35.795   9.100  28.795  0.00  0.00     0.086 H 
BRANCH 111 113
ATOM    113  OH3 BLM d   1      36.632  10.985  29.009  0.00  0.00    -0.393 OA
ATOM    114  H41 BLM d   1      35.830  11.435  28.770  0.00  0.00     0.210 HD
ENDBRANCH 111 113
BRANCH 111 115
ATOM    115  CD  BLM d   1      35.415   9.843  30.771  0.00  0.00    -0.050 C 
ATOM    116  H42 BLM d   1      34.466  10.316  30.477  0.00  0.00     0.031 H 
ATOM    117  H43 BLM d   1      35.915  10.465  31.528  0.00  0.00     0.031 H 
ATOM    118  H44 BLM d   1      35.213   8.847  31.191  0.00  0.00     0.031 H 
ENDBRANCH 111 115
ENDBRANCH  65 111
ENDBRANCH  63  65
ENDBRANCH  59  61
BRANCH  59 119
ATOM    119  CC  BLM d   1      42.267  10.477  29.164  0.00  0.00    -0.062 C 
ATOM    120  H35 BLM d   1      42.073  11.216  29.956  0.00  0.00     0.028 H 
ATOM    121  H36 BLM d   1      42.992  10.889  28.447  0.00  0.00     0.028 H 
ATOM    122  H37 BLM d   1      42.675   9.559  29.612  0.00  0.00     0.028 H 
ENDBRANCH  59 119
ENDBRANCH  57  59
BRANCH  57 123
ATOM    123  OH2 BLM d   1      41.692   7.966  27.942  0.00  0.00    -0.393 OA
ATOM    124  H29 BLM d   1      41.086   7.655  28.605  0.00  0.00     0.210 HD
ENDBRANCH  57 123
ENDBRANCH  51  57
ENDBRANCH  49  51
ENDBRANCH   1  47
BRANCH   1 125
ATOM    125  C14 BLM d   1      42.305  14.019  25.952  0.00  0.00     0.110 C 
ATOM    126  H23 BLM d   1      43.207  13.894  26.569  0.00  0.00     0.097 H 
BRANCH 125 127
ATOM    127  C27 BLM d   1      41.091  13.864  26.854  0.00  0.00     0.059 A 
ATOM    128  NJ  BLM d   1      39.874  13.601  26.412  0.00  0.00    -0.351 N 
ATOM    129  C29 BLM d   1      39.093  13.656  27.471  0.00  0.00     0.064 A 
ATOM    130  H24 BLM d   1      39.594  13.396  25.442  0.00  0.00     0.166 HD
ATOM    131  NI  BLM d   1      39.810  13.943  28.544  0.00  0.00    -0.254 NA
ATOM    132  H26 BLM d   1      38.017  13.490  27.464  0.00  0.00     0.143 H 
ATOM    133  C28 BLM d   1      41.068  14.079  28.204  0.00  0.00     0.028 A 
ATOM    134  H25 BLM d   1      41.910  14.312  28.854  0.00  0.00     0.117 H 
ENDBRANCH 125 127
BRANCH 125 135
ATOM    135  OH1 BLM d   1      42.316  15.312  25.367  0.00  0.00    -0.345 OA
BRANCH 135 136
ATOM    136  C63 BLM d   1      43.552  15.986  25.155  0.00  0.00     0.160 C 
ATOM    137  O62 BLM d   1      44.108  16.297  26.435  0.00  0.00    -0.348 OA
ATOM    138  C60 BLM d   1      43.540  17.350  27.220  0.00  0.00     0.089 C 
ATOM    139  C59 BLM d   1      43.361  18.645  26.405  0.00  0.00     0.090 C 
ATOM    140  H70 BLM d   1      42.538  17.038  27.548  0.00  0.00     0.090 H 
ATOM    141  C58 BLM d   1      42.591  18.361  25.105  0.00  0.00     0.092 C 
ATOM    142  H74 BLM d   1      42.800  19.370  27.012  0.00  0.00     0.091 H 
ATOM    143  C57 BLM d   1      43.321  17.256  24.295  0.00  0.00     0.116 C 
ATOM    144  H73 BLM d   1      42.563  19.281  24.503  0.00  0.00     0.091 H 
ATOM    145  H72 BLM d   1      44.299  17.659  23.995  0.00  0.00     0.095 H 
ATOM    146  H71 BLM d   1      44.243  15.320  24.617  0.00  0.00     0.133 H 
BRANCH 138 147
ATOM    147  C61 BLM d   1      44.419  17.495  28.465  0.00  0.00     0.043 C 
ATOM    148  H67 BLM d   1      45.417  17.080  28.259  0.00  0.00     0.078 H 
ATOM    149  H68 BLM d   1      44.511  18.560  28.726  0.00  0.00     0.078 H 
BRANCH 147 150
ATOM    150  O61 BLM d   1      43.838  16.801  29.536  0.00  0.00    -0.398 OA
ATOM    151  H69 BLM d   1      44.386  16.893  30.306  0.00  0.00     0.209 HD
ENDBRANCH 147 150
ENDBRANCH 138 147
BRANCH 139 152
ATOM    152  O59 BLM d   1      44.613  19.202  26.048  0.00  0.00    -0.390 OA
ATOM    153  H65 BLM d   1      44.473  19.997  25.548  0.00  0.00     0.210 HD
ENDBRANCH 139 152
BRANCH 141 154
ATOM    154  O58 BLM d   1      41.261  17.968  25.390  0.00  0.00    -0.390 OA
ATOM    155  H66 BLM d   1      41.271  17.166  25.899  0.00  0.00     0.210 HD
ENDBRANCH 141 154
BRANCH 143 156
ATOM    156  O56 BLM d   1      42.622  16.858  23.113  0.00  0.00    -0.346 OA
BRANCH 156 157
ATOM    157  C64 BLM d   1      42.603  17.762  22.020  0.00  0.00     0.159 C 
ATOM    158  C69 BLM d   1      41.242  17.699  21.292  0.00  0.00     0.111 C 
ATOM    159  C68 BLM d   1      41.110  16.412  20.467  0.00  0.00     0.106 C 
ATOM    160  H75 BLM d   1      40.433  17.728  22.037  0.00  0.00     0.094 H 
ATOM    161  C67 BLM d   1      42.335  16.211  19.551  0.00  0.00     0.090 C 
ATOM    162  H76 BLM d   1      41.072  15.582  21.188  0.00  0.00     0.092 H 
ATOM    163  C65 BLM d   1      43.666  16.338  20.306  0.00  0.00     0.089 C 
ATOM    164  H77 BLM d   1      42.305  16.963  18.748  0.00  0.00     0.091 H 
ATOM    165  O64 BLM d   1      43.697  17.477  21.155  0.00  0.00    -0.348 OA
ATOM    166  H78 BLM d   1      43.838  15.425  20.896  0.00  0.00     0.090 H 
ATOM    167  H79 BLM d   1      42.731  18.783  22.409  0.00  0.00     0.133 H 
BRANCH 158 168
ATOM    168  O69 BLM d   1      41.142  18.825  20.445  0.00  0.00    -0.388 OA
ATOM    169  H81 BLM d   1      40.309  18.803  19.988  0.00  0.00     0.210 HD
ENDBRANCH 158 168
BRANCH 159 170
ATOM    170  O68 BLM d   1      39.974  16.301  19.637  0.00  0.00    -0.293 OA
BRANCH 170 171
ATOM    171  C70 BLM d   1      38.746  15.972  20.026  0.00  0.00     0.358 C 
ATOM    172  NQ  BLM d   1      37.836  16.162  19.026  0.00  0.00    -0.346 N 
ATOM    173  H82 BLM d   1      36.870  15.954  19.182  0.00  0.00     0.161 HD
ATOM    174  H83 BLM d   1      38.135  16.509  18.137  0.00  0.00     0.161 HD
ATOM    175  O70 BLM d   1      38.382  15.553  21.091  0.00  0.00    -0.239 OA
ENDBRANCH 170 171
ENDBRANCH 159 170
BRANCH 161 176
ATOM    176  O67 BLM d   1      42.279  14.915  18.995  0.00  0.00    -0.390 OA
ATOM    177  H80 BLM d   1      41.462  14.810  18.521  0.00  0.00     0.210 HD
ENDBRANCH 161 176
BRANCH 163 178
ATOM    178  C66 BLM d   1      44.795  16.546  19.295  0.00  0.00     0.043 C 
ATOM    179  H85 BLM d   1      44.630  17.488  18.752  0.00  0.00     0.078 H 
ATOM    180  H86 BLM d   1      44.806  15.708  18.582  0.00  0.00     0.078 H 
BRANCH 178 181
ATOM    181  O66 BLM d   1      46.023  16.604  19.962  0.00  0.00    -0.398 OA
ATOM    182  H84 BLM d   1      46.014  17.328  20.577  0.00  0.00     0.209 HD
ENDBRANCH 178 181
ENDBRANCH 163 178
ENDBRANCH 156 157
ENDBRANCH 143 156
ENDBRANCH 135 136
ENDBRANCH 125 135
ENDBRANCH   1 125
TORSDOF 51
