REMARK  6 active torsions:
REMARK  status: ('A' for Active; 'I' for Inactive)
REMARK    1  A    between atoms: C10_1  and  C11_2 
REMARK    2  A    between atoms: C10_1  and  C17_8 
REMARK    3  A    between atoms: C17_8  and  C18_9 
REMARK    4  A    between atoms: C17_8  and  N1_18 
REMARK       I    between atoms: C18_9  and  N3_11 
REMARK    5  A    between atoms: C20_13  and  C21_14 
REMARK       I    between atoms: N1_18  and  C9_19 
REMARK    6  A    between atoms: C9_19  and  C8_20 
ROOT
ATOM      1  C17 700 d   1      96.735  91.838  76.952  0.00  0.00     0.093 C 
ATOM      2  H8  700 d   1      95.701  91.672  76.615  0.00  0.00     0.088 H 
ENDROOT
BRANCH   1   3
ATOM      3  C10 700 d   1      97.638  92.260  75.721  0.00  0.00    -0.014 C 
ATOM      4  H1  700 d   1      97.275  93.226  75.339  0.00  0.00     0.043 H 
ATOM      5  H2  700 d   1      98.674  92.371  76.073  0.00  0.00     0.043 H 
BRANCH   3   6
ATOM      6  C11 700 d   1      97.623  91.239  74.559  0.00  0.00    -0.056 A 
ATOM      7  C12 700 d   1      98.727  90.351  74.324  0.00  0.00    -0.077 A 
ATOM      8  C13 700 d   1      98.679  89.410  73.259  0.00  0.00    -0.082 A 
ATOM      9  H3  700 d   1      99.602  90.398  74.962  0.00  0.00     0.084 H 
ATOM     10  C14 700 d   1      97.538  89.335  72.421  0.00  0.00    -0.083 A 
ATOM     11  H4  700 d   1      99.519  88.747  73.087  0.00  0.00     0.083 H 
ATOM     12  C15 700 d   1      96.438  90.212  72.643  0.00  0.00    -0.082 A 
ATOM     13  H5  700 d   1      97.503  88.612  71.614  0.00  0.00     0.083 H 
ATOM     14  C16 700 d   1      96.483  91.161  73.707  0.00  0.00    -0.077 A 
ATOM     15  H6  700 d   1      95.565  90.158  72.002  0.00  0.00     0.083 H 
ATOM     16  H7  700 d   1      95.644  91.828  73.869  0.00  0.00     0.084 H 
ENDBRANCH   3   6
ENDBRANCH   1   3
BRANCH   1  17
ATOM     17  C18 700 d   1      97.277  90.597  77.445  0.00  0.00     0.243 C 
ATOM     18  O2  700 d   1      98.257  90.645  78.160  0.00  0.00    -0.271 OA
ATOM     19  N3  700 d   1      96.717  89.435  77.000  0.00  0.00    -0.348 N 
ATOM     20  C19 700 d   1      95.472  89.104  76.270  0.00  0.00     0.012 A 
ATOM     21  C22 700 d   1      97.026  88.063  77.367  0.00  0.00     0.012 A 
ATOM     22  C20 700 d   1      95.774  87.613  76.473  0.00  0.00     0.061 A 
ATOM     23  H9  700 d   1      95.466  89.425  75.218  0.00  0.00     0.065 H 
ATOM     24  H10 700 d   1      94.552  89.450  76.764  0.00  0.00     0.065 H 
ATOM     25  H11 700 d   1      96.108  87.147  75.534  0.00  0.00     0.061 H 
ATOM     26  H12 700 d   1      96.926  87.842  78.440  0.00  0.00     0.065 H 
ATOM     27  H13 700 d   1      98.000  87.701  77.007  0.00  0.00     0.065 H 
BRANCH  22  28
ATOM     28  C21 700 d   1      94.708  86.657  77.028  0.00  0.00     0.180 C 
ATOM     29  O3  700 d   1      93.536  87.020  76.836  0.00  0.00    -0.648 OA
ATOM     30  O4  700 d   1      95.164  85.630  77.547  0.00  0.00    -0.648 OA
ENDBRANCH  22  28
ENDBRANCH   1  17
BRANCH   1  31
ATOM     31  N1  700 d   1      96.728  92.917  77.973  0.00  0.00    -0.342 N 
ATOM     32  C9  700 d   1      95.986  92.842  79.127  0.00  0.00     0.269 C 
ATOM     33  O1  700 d   1      95.291  91.878  79.370  0.00  0.00    -0.266 OA
ATOM     34  H14 700 d   1      97.286  93.731  77.814  0.00  0.00     0.163 HD
BRANCH  32  35
ATOM     35  C8  700 d   1      95.983  93.911  80.167  0.00  0.00     0.102 A 
ATOM     36  C7  700 d   1      96.722  95.241  80.231  0.00  0.00    -0.040 A 
ATOM     37  C6  700 d   1      96.317  95.839  81.558  0.00  0.00    -0.005 A 
ATOM     38  H15 700 d   1      97.393  95.666  79.486  0.00  0.00     0.088 H 
ATOM     39  C1  700 d   1      95.432  94.870  82.097  0.00  0.00     0.043 A 
ATOM     40  C5  700 d   1      96.635  97.027  82.274  0.00  0.00    -0.050 A 
ATOM     41  C2  700 d   1      94.820  95.061  83.371  0.00  0.00    -0.055 A 
ATOM     42  N2  700 d   1      95.283  93.810  81.257  0.00  0.00    -0.351 N 
ATOM     43  C3  700 d   1      95.135  96.244  84.096  0.00  0.00    -0.060 A 
ATOM     44  H16 700 d   1      94.134  94.326  83.776  0.00  0.00     0.087 H 
ATOM     45  C4  700 d   1      96.028  97.213  83.559  0.00  0.00     0.035 A 
ATOM     46  H17 700 d   1      94.689  96.409  85.070  0.00  0.00     0.086 H 
ATOM     47 CL1  700 d   1      96.376  98.632  84.489  0.00  0.00    -0.084 Cl
ATOM     48  H19 700 d   1      94.674  93.005  81.465  0.00  0.00     0.166 HD
ATOM     49  H18 700 d   1      97.313  97.766  81.862  0.00  0.00     0.087 H 
ENDBRANCH  32  35
ENDBRANCH   1  31
TORSDOF 6
