REMARK  16 active torsions:
REMARK  status: ('A' for Active; 'I' for Inactive)
REMARK    1  A    between atoms: C1_1  and  C2_2 
REMARK    2  A    between atoms: C1_1  and  S1_17 
REMARK    3  A    between atoms: C2_2  and  C3_3 
REMARK    4  A    between atoms: C3_3  and  C4_4 
REMARK    5  A    between atoms: C4_4  and  C5_5 
REMARK    6  A    between atoms: C5_5  and  C6_6 
REMARK    7  A    between atoms: C6_6  and  C7_7 
REMARK    8  A    between atoms: C7_7  and  C8_8 
REMARK    9  A    between atoms: C8_8  and  C9_9 
REMARK   10  A    between atoms: C9_9  and  C10_10 
REMARK   11  A    between atoms: C10_10  and  C11_11 
REMARK   12  A    between atoms: C11_11  and  C12_12 
REMARK   13  A    between atoms: C12_12  and  C13_13 
REMARK   14  A    between atoms: C13_13  and  C14_14 
REMARK   15  A    between atoms: C14_14  and  C15_15 
REMARK   16  A    between atoms: C15_15  and  C16_16 
ROOT
ATOM      1  C8  HDS d   1      39.210   3.146  60.106  0.00  0.00    -0.065 C 
ATOM      2  H15 HDS d   1      39.610   2.864  59.121  0.00  0.00     0.033 H 
ATOM      3  H16 HDS d   1      38.383   3.859  59.975  0.00  0.00     0.033 H 
ENDROOT
BRANCH   1   4
ATOM      4  C7  HDS d   1      40.328   3.806  60.943  0.00  0.00    -0.065 C 
ATOM      5  H13 HDS d   1      39.999   3.953  61.982  0.00  0.00     0.033 H 
ATOM      6  H14 HDS d   1      41.238   3.188  60.931  0.00  0.00     0.033 H 
BRANCH   4   7
ATOM      7  C6  HDS d   1      40.587   5.178  60.249  0.00  0.00    -0.065 C 
ATOM      8  H11 HDS d   1      40.880   5.000  59.204  0.00  0.00     0.033 H 
ATOM      9  H12 HDS d   1      39.661   5.772  60.274  0.00  0.00     0.033 H 
BRANCH   7  10
ATOM     10  C5  HDS d   1      41.668   5.938  60.932  0.00  0.00    -0.065 C 
ATOM     11  H9  HDS d   1      41.322   6.968  61.106  0.00  0.00     0.033 H 
ATOM     12  H10 HDS d   1      41.885   5.456  61.897  0.00  0.00     0.033 H 
BRANCH  10  13
ATOM     13  C4  HDS d   1      42.966   5.984  60.095  0.00  0.00    -0.065 C 
ATOM     14  H7  HDS d   1      43.778   5.464  60.624  0.00  0.00     0.033 H 
ATOM     15  H8  HDS d   1      42.804   5.510  59.116  0.00  0.00     0.033 H 
BRANCH  13  16
ATOM     16  C3  HDS d   1      43.318   7.486  59.913  0.00  0.00    -0.064 C 
ATOM     17  H5  HDS d   1      43.227   7.989  60.887  0.00  0.00     0.033 H 
ATOM     18  H6  HDS d   1      44.356   7.563  59.556  0.00  0.00     0.033 H 
BRANCH  16  19
ATOM     19  C2  HDS d   1      42.402   8.195  58.909  0.00  0.00    -0.053 C 
ATOM     20  H3  HDS d   1      42.471   7.727  57.916  0.00  0.00     0.034 H 
ATOM     21  H4  HDS d   1      41.356   8.177  59.251  0.00  0.00     0.034 H 
BRANCH  19  22
ATOM     22  C1  HDS d   1      42.928   9.587  58.879  0.00  0.00     0.027 C 
ATOM     23  H1  HDS d   1      43.410   9.616  57.891  0.00  0.00     0.055 H 
ATOM     24  H2  HDS d   1      43.699   9.545  59.662  0.00  0.00     0.055 H 
BRANCH  22  25
ATOM     25  S1  HDS d   1      42.451  10.984  59.013  0.00  0.00     0.138 S 
ATOM     26  O1S HDS d   1      41.387  11.375  57.752  0.00  0.00    -0.231 OA
ATOM     27  O2S HDS d   1      41.450  11.515  60.435  0.00  0.00    -0.231 OA
ATOM     28  H34 HDS d   1      43.273  11.566  58.974  0.00  0.00     0.171 HD
ENDBRANCH  22  25
ENDBRANCH  19  22
ENDBRANCH  16  19
ENDBRANCH  13  16
ENDBRANCH  10  13
ENDBRANCH   7  10
ENDBRANCH   4   7
ENDBRANCH   1   4
BRANCH   1  29
ATOM     29  C9  HDS d   1      38.680   1.861  60.841  0.00  0.00    -0.065 C 
ATOM     30  H17 HDS d   1      38.250   2.128  61.818  0.00  0.00     0.033 H 
ATOM     31  H18 HDS d   1      39.496   1.138  60.985  0.00  0.00     0.033 H 
BRANCH  29  32
ATOM     32  C10 HDS d   1      37.633   1.289  59.953  0.00  0.00    -0.065 C 
ATOM     33  H19 HDS d   1      37.115   2.132  59.473  0.00  0.00     0.033 H 
ATOM     34  H20 HDS d   1      36.926   0.740  60.592  0.00  0.00     0.033 H 
BRANCH  32  35
ATOM     35  C11 HDS d   1      38.077   0.338  58.845  0.00  0.00    -0.065 C 
ATOM     36  H21 HDS d   1      38.565  -0.556  59.260  0.00  0.00     0.033 H 
ATOM     37  H22 HDS d   1      38.761   0.837  58.143  0.00  0.00     0.033 H 
BRANCH  35  38
ATOM     38  C12 HDS d   1      36.794  -0.006  58.190  0.00  0.00    -0.065 C 
ATOM     39  H23 HDS d   1      36.858   0.339  57.147  0.00  0.00     0.033 H 
ATOM     40  H24 HDS d   1      36.002   0.551  58.712  0.00  0.00     0.033 H 
BRANCH  38  41
ATOM     41  C13 HDS d   1      36.368  -1.474  58.156  0.00  0.00    -0.065 C 
ATOM     42  H25 HDS d   1      36.470  -1.910  59.161  0.00  0.00     0.033 H 
ATOM     43  H26 HDS d   1      37.006  -2.026  57.450  0.00  0.00     0.033 H 
BRANCH  41  44
ATOM     44  C14 HDS d   1      34.932  -1.563  57.712  0.00  0.00    -0.065 C 
ATOM     45  H27 HDS d   1      34.845  -1.121  56.708  0.00  0.00     0.033 H 
ATOM     46  H28 HDS d   1      34.309  -0.995  58.418  0.00  0.00     0.033 H 
BRANCH  44  47
ATOM     47  C15 HDS d   1      34.413  -3.032  57.658  0.00  0.00    -0.069 C 
ATOM     48  H29 HDS d   1      34.845  -3.613  58.486  0.00  0.00     0.032 H 
ATOM     49  H30 HDS d   1      34.694  -3.494  56.700  0.00  0.00     0.032 H 
BRANCH  47  50
ATOM     50  C16 HDS d   1      32.977  -2.991  57.782  0.00  0.00    -0.077 C 
ATOM     51  H31 HDS d   1      32.577  -4.015  57.748  0.00  0.00     0.027 H 
ATOM     52  H32 HDS d   1      32.554  -2.404  56.953  0.00  0.00     0.027 H 
ATOM     53  H33 HDS d   1      32.705  -2.523  58.739  0.00  0.00     0.027 H 
ENDBRANCH  47  50
ENDBRANCH  44  47
ENDBRANCH  41  44
ENDBRANCH  38  41
ENDBRANCH  35  38
ENDBRANCH  32  35
ENDBRANCH  29  32
ENDBRANCH   1  29
TORSDOF 16
