REMARK  12 active torsions:
REMARK  status: ('A' for Active; 'I' for Inactive)
REMARK    1  A    between atoms: C7_2  and  C17_3 
REMARK    2  A    between atoms: C5_14  and  C14_15 
REMARK    3  A    between atoms: C14_15  and  C11_16 
REMARK       I    between atoms: C11_16  and  N23_18 
REMARK    4  A    between atoms: N23_18  and  C38_19 
REMARK    5  A    between atoms: C38_19  and  C60_24 
REMARK    6  A    between atoms: C38_19  and  C61_20 
REMARK    7  A    between atoms: C61_20  and  C62_21 
REMARK    8  A    between atoms: N3_29  and  C43_36 
REMARK    9  A    between atoms: C43_36  and  C10_37 
REMARK   10  A    between atoms: C10_37  and  C24_40 
REMARK   11  A    between atoms: C10_37  and  C25_39 
REMARK   12  A    between atoms: C10_37  and  C32_38 
ROOT
ATOM      1  C1  IN0 d   1      -9.825  43.323  32.429  0.00  0.00     0.004 A 
ATOM      2  C7  IN0 d   1     -10.819  42.538  33.305  0.00  0.00     0.093 C 
ATOM      3  O6  IN0 d   1     -11.965  43.353  33.639  0.00  0.00    -0.361 OA
ATOM      4  C5  IN0 d   1     -12.540  44.073  32.525  0.00  0.00     0.125 C 
ATOM      5  C4  IN0 d   1     -12.558  43.229  31.256  0.00  0.00     0.254 C 
ATOM      6  O13 IN0 d   1     -13.618  42.715  30.931  0.00  0.00    -0.270 OA
ATOM      7  N3  IN0 d   1     -11.387  43.076  30.543  0.00  0.00    -0.315 N 
ATOM      8  C2  IN0 d   1     -10.139  43.561  31.070  0.00  0.00     0.046 A 
ATOM      9  C8  IN0 d   1      -9.230  44.248  30.251  0.00  0.00    -0.055 A 
ATOM     10  C9  IN0 d   1      -8.036  44.728  30.784  0.00  0.00    -0.060 A 
ATOM     11  C20 IN0 d   1      -7.731  44.524  32.144  0.00  0.00     0.034 A 
ATOM     12 CL36 IN0 d   1      -6.249  45.149  32.800  0.00  0.00    -0.084 Cl
ATOM     13  C21 IN0 d   1      -8.621  43.812  32.964  0.00  0.00    -0.051 A 
ATOM     14  H1  IN0 d   1     -11.191  41.720  32.670  0.00  0.00     0.099 H 
ATOM     15  H9  IN0 d   1     -11.915  44.956  32.325  0.00  0.00     0.099 H 
ATOM     16  H16 IN0 d   1      -9.457  44.405  29.203  0.00  0.00     0.087 H 
ATOM     17  H17 IN0 d   1      -7.338  45.261  30.149  0.00  0.00     0.086 H 
ATOM     18  H18 IN0 d   1      -8.380  43.640  34.007  0.00  0.00     0.087 H 
ENDROOT
BRANCH   4  19
ATOM     19  C14 IN0 d   1     -13.954  44.568  32.938  0.00  0.00     0.042 C 
ATOM     20  H10 IN0 d   1     -13.917  44.896  33.987  0.00  0.00     0.051 H 
ATOM     21  H11 IN0 d   1     -14.660  43.730  32.840  0.00  0.00     0.051 H 
BRANCH  19  22
ATOM     22  C11 IN0 d   1     -14.452  45.714  32.096  0.00  0.00     0.221 C 
ATOM     23  N23 IN0 d   1     -15.755  45.702  31.727  0.00  0.00    -0.346 N 
ATOM     24  H12 IN0 d   1     -16.350  44.953  32.018  0.00  0.00     0.163 HD
ATOM     25  O58 IN0 d   1     -13.684  46.603  31.771  0.00  0.00    -0.273 OA
BRANCH  23  26
ATOM     26  C38 IN0 d   1     -16.295  46.788  30.900  0.00  0.00     0.105 C 
ATOM     27  H13 IN0 d   1     -15.473  47.487  30.685  0.00  0.00     0.090 H 
BRANCH  26  28
ATOM     28  C60 IN0 d   1     -17.375  47.536  31.651  0.00  0.00     0.197 C 
ATOM     29  O65 IN0 d   1     -17.372  48.761  31.666  0.00  0.00    -0.646 OA
ATOM     30  O66 IN0 d   1     -18.333  46.837  32.285  0.00  0.00    -0.646 OA
ENDBRANCH  26  28
BRANCH  26  31
ATOM     31  C61 IN0 d   1     -16.862  46.285  29.547  0.00  0.00     0.044 C 
ATOM     32  H14 IN0 d   1     -17.537  45.437  29.735  0.00  0.00     0.053 H 
ATOM     33  H15 IN0 d   1     -16.028  45.956  28.909  0.00  0.00     0.053 H 
BRANCH  31  34
ATOM     34  C62 IN0 d   1     -17.630  47.378  28.831  0.00  0.00     0.175 C 
ATOM     35  O63 IN0 d   1     -17.087  48.414  28.452  0.00  0.00    -0.648 OA
ATOM     36  O64 IN0 d   1     -18.944  47.151  28.639  0.00  0.00    -0.648 OA
ENDBRANCH  31  34
ENDBRANCH  26  31
ENDBRANCH  23  26
ENDBRANCH  19  22
ENDBRANCH   4  19
BRANCH   2  37
ATOM     37  C17 IN0 d   1     -10.233  41.857  34.551  0.00  0.00    -0.014 A 
ATOM     38  C15 IN0 d   1      -9.685  40.554  34.448  0.00  0.00    -0.017 A 
ATOM     39  C16 IN0 d   1      -9.182  39.911  35.606  0.00  0.00    -0.025 A 
ATOM     40  C33 IN0 d   1      -9.655  39.877  33.212  0.00  0.00    -0.072 A 
ATOM     41  C26 IN0 d   1      -9.217  40.575  36.849  0.00  0.00    -0.072 A 
ATOM     42  C29 IN0 d   1      -8.675  38.599  35.514  0.00  0.00    -0.072 A 
ATOM     43  C27 IN0 d   1      -9.756  41.876  36.952  0.00  0.00    -0.082 A 
ATOM     44  H4  IN0 d   1      -8.827  40.083  37.733  0.00  0.00     0.084 H 
ATOM     45  C28 IN0 d   1     -10.264  42.511  35.805  0.00  0.00    -0.073 A 
ATOM     46  H3  IN0 d   1      -9.778  42.383  37.910  0.00  0.00     0.083 H 
ATOM     47  H2  IN0 d   1     -10.682  43.508  35.882  0.00  0.00     0.084 H 
ATOM     48  C30 IN0 d   1      -8.663  37.934  34.277  0.00  0.00    -0.082 A 
ATOM     49  H5  IN0 d   1      -8.294  38.103  36.399  0.00  0.00     0.084 H 
ATOM     50  C31 IN0 d   1      -9.148  38.574  33.126  0.00  0.00    -0.082 A 
ATOM     51  H6  IN0 d   1      -8.278  36.923  34.211  0.00  0.00     0.083 H 
ATOM     52  H7  IN0 d   1      -9.130  38.061  32.172  0.00  0.00     0.083 H 
ATOM     53  H8  IN0 d   1     -10.027  40.369  32.321  0.00  0.00     0.084 H 
ENDBRANCH   2  37
BRANCH   7  54
ATOM     54  C43 IN0 d   1     -11.426  42.494  29.189  0.00  0.00     0.009 C 
ATOM     55  H19 IN0 d   1     -10.682  43.036  28.586  0.00  0.00     0.066 H 
ATOM     56  H20 IN0 d   1     -12.432  42.684  28.788  0.00  0.00     0.066 H 
BRANCH  54  57
ATOM     57  C10 IN0 d   1     -11.142  40.971  28.998  0.00  0.00    -0.035 C 
BRANCH  57  58
ATOM     58  C24 IN0 d   1      -9.730  40.586  29.554  0.00  0.00    -0.068 C 
ATOM     59  H27 IN0 d   1      -8.959  41.177  29.038  0.00  0.00     0.028 H 
ATOM     60  H28 IN0 d   1      -9.547  39.515  29.382  0.00  0.00     0.028 H 
ATOM     61  H29 IN0 d   1      -9.691  40.795  30.633  0.00  0.00     0.028 H 
ENDBRANCH  57  58
BRANCH  57  62
ATOM     62  C25 IN0 d   1     -11.194  40.586  27.485  0.00  0.00    -0.068 C 
ATOM     63  H24 IN0 d   1     -10.454  41.181  26.930  0.00  0.00     0.028 H 
ATOM     64  H25 IN0 d   1     -12.200  40.790  27.089  0.00  0.00     0.028 H 
ATOM     65  H26 IN0 d   1     -10.965  39.516  27.371  0.00  0.00     0.028 H 
ENDBRANCH  57  62
BRANCH  57  66
ATOM     66  C32 IN0 d   1     -12.203  40.110  29.757  0.00  0.00    -0.068 C 
ATOM     67  H21 IN0 d   1     -11.983  39.042  29.608  0.00  0.00     0.028 H 
ATOM     68  H22 IN0 d   1     -13.206  40.336  29.366  0.00  0.00     0.028 H 
ATOM     69  H23 IN0 d   1     -12.166  40.346  30.831  0.00  0.00     0.028 H 
ENDBRANCH  57  66
ENDBRANCH  54  57
ENDBRANCH   7  54
TORSDOF 12
