REMARK  4 active torsions:
REMARK  status: ('A' for Active; 'I' for Inactive)
REMARK    1  A    between atoms: C1_1  and  O1_2 
REMARK    2  A    between atoms: C3_4  and  O3_5 
REMARK    3  A    between atoms: C9_12  and  C10_13 
REMARK    4  A    between atoms: C17_15  and  O17_16 
ROOT
ATOM      1  C1  EMO d   1      44.438   8.626   2.816  0.00  0.00     0.083 A 
ATOM      2  C2  EMO d   1      44.134   7.713   1.757  0.00  0.00    -0.018 A 
ATOM      3  C3  EMO d   1      43.344   6.556   2.028  0.00  0.00     0.069 A 
ATOM      4  C4  EMO d   1      42.841   6.287   3.348  0.00  0.00    -0.036 A 
ATOM      5  C5  EMO d   1      43.129   7.181   4.434  0.00  0.00     0.035 A 
ATOM      6  C6  EMO d   1      42.598   6.886   5.854  0.00  0.00     0.194 A 
ATOM      7  O6  EMO d   1      41.918   5.887   6.069  0.00  0.00    -0.287 OA
ATOM      8  C7  EMO d   1      42.928   7.872   7.001  0.00  0.00     0.032 A 
ATOM      9  C8  EMO d   1      42.456   7.623   8.357  0.00  0.00    -0.062 A 
ATOM     10  C9  EMO d   1      42.781   8.551   9.425  0.00  0.00    -0.058 A 
ATOM     11  C16 EMO d   1      43.581   9.704   9.155  0.00  0.00    -0.044 A 
ATOM     12  C17 EMO d   1      44.045   9.948   7.827  0.00  0.00     0.081 A 
ATOM     13  C18 EMO d   1      43.750   9.050   6.740  0.00  0.00     0.062 A 
ATOM     14  C19 EMO d   1      44.269   9.349   5.321  0.00  0.00     0.199 A 
ATOM     15  O19 EMO d   1      44.952  10.340   5.097  0.00  0.00    -0.286 OA
ATOM     16  C20 EMO d   1      43.940   8.371   4.173  0.00  0.00     0.062 A 
ATOM     17  H2  EMO d   1      44.502   7.899   0.754  0.00  0.00     0.092 H 
ATOM     18  H4  EMO d   1      42.240   5.402   3.525  0.00  0.00     0.089 H 
ATOM     19  H5  EMO d   1      41.861   6.742   8.569  0.00  0.00     0.085 H 
ATOM     20  H9  EMO d   1      43.834  10.390   9.955  0.00  0.00     0.088 H 
ENDROOT
BRANCH  10  21
ATOM     21  C10 EMO d   1      42.334   8.397  10.846  0.00  0.00    -0.051 C 
ATOM     22  H6  EMO d   1      42.718   9.236  11.444  0.00  0.00     0.033 H 
ATOM     23  H7  EMO d   1      42.721   7.450  11.252  0.00  0.00     0.033 H 
ATOM     24  H8  EMO d   1      41.235   8.391  10.886  0.00  0.00     0.033 H 
ENDBRANCH  10  21
BRANCH  12  25
ATOM     25  O17 EMO d   1      44.831  11.116   7.633  0.00  0.00    -0.360 OA
ATOM     26  H10 EMO d   1      45.083  11.178   6.719  0.00  0.00     0.217 HD
ENDBRANCH  12  25
BRANCH   3  27
ATOM     27  O3  EMO d   1      43.037   5.654   1.014  0.00  0.00    -0.361 OA
ATOM     28  H3  EMO d   1      42.553   6.101   0.330  0.00  0.00     0.217 HD
ENDBRANCH   3  27
BRANCH   1  29
ATOM     29  O1  EMO d   1      45.215   9.722   2.450  0.00  0.00    -0.360 OA
ATOM     30  H1  EMO d   1      45.366  10.270   3.211  0.00  0.00     0.217 HD
ENDBRANCH   1  29
TORSDOF 4
