REMARK  20 active torsions:
REMARK  status: ('A' for Active; 'I' for Inactive)
REMARK    1  A    between atoms: C_1  and  CH3_3 
REMARK       I    between atoms: C_1  and  N_4 
REMARK    2  A    between atoms: N_4  and  CA_5 
REMARK    3  A    between atoms: CA_5  and  C_6 
REMARK    4  A    between atoms: CA_5  and  CB_8 
REMARK       I    between atoms: C_6  and  N_12 
REMARK    5  A    between atoms: CB_8  and  CG_9 
REMARK    6  A    between atoms: N_12  and  CA_13 
REMARK    7  A    between atoms: CA_13  and  C_14 
REMARK    8  A    between atoms: CA_13  and  CB_16 
REMARK       I    between atoms: C_14  and  N_21 
REMARK    9  A    between atoms: CB_16  and  CG_17 
REMARK   10  A    between atoms: CG_17  and  CD_18 
REMARK   11  A    between atoms: N_21  and  CA_22 
REMARK   12  A    between atoms: CA_22  and  C_23 
REMARK   13  A    between atoms: CA_22  and  CB_25 
REMARK       I    between atoms: C_23  and  N_28 
REMARK   14  A    between atoms: CB_25  and  CG1_26 
REMARK   15  A    between atoms: CB_25  and  CG2_27 
REMARK   16  A    between atoms: N_28  and  CA_29 
REMARK   17  A    between atoms: CA_29  and  C_30 
REMARK   18  A    between atoms: CA_29  and  CB_32 
REMARK   19  A    between atoms: C_30  and  O_31 
REMARK   20  A    between atoms: CB_32  and  CG_33 
ROOT
ATOM      1  C   GLU d   1      34.282  25.636  -1.696  0.00  0.00     0.241 C 
ATOM      2  O   GLU d   1      35.096  26.072  -0.884  0.00  0.00    -0.271 OA
ATOM      3  N   VAL d   1      34.395  24.370  -2.053  0.00  0.00    -0.346 N 
ATOM      4  H14 VAL d   1      33.664  23.914  -2.561  0.00  0.00     0.163 HD
ENDROOT
BRANCH   1   5
ATOM      5  CA  GLU d   1      33.143  26.535  -2.278  0.00  0.00     0.090 C 
ATOM      6  H9  GLU d   1      32.262  25.935  -2.548  0.00  0.00     0.087 H 
BRANCH   5   7
ATOM      7  N   GLU d   1      32.830  27.537  -1.274  0.00  0.00    -0.346 N 
ATOM      8  C   ASP d   1      31.665  27.578  -0.668  0.00  0.00     0.241 C 
ATOM      9  O   ASP d   1      30.760  26.783  -0.937  0.00  0.00    -0.271 OA
ATOM     10  H8  GLU d   1      33.523  28.217  -1.036  0.00  0.00     0.163 HD
BRANCH   8  11
ATOM     11  CA  ASP d   1      31.558  28.689   0.363  0.00  0.00     0.098 C 
ATOM     12  H5  ASP d   1      32.237  29.473  -0.003  0.00  0.00     0.088 H 
BRANCH  11  13
ATOM     13  N   ASP d   1      30.252  29.308   0.427  0.00  0.00    -0.348 N 
ATOM     14  C   ACE d   1      29.751  29.860  -0.650  0.00  0.00     0.214 C 
ATOM     15  O   ACE d   1      28.552  30.100  -0.812  0.00  0.00    -0.274 OA
ATOM     16  H4  ASP d   1      29.737  29.314   1.284  0.00  0.00     0.163 HD
BRANCH  14  17
ATOM     17  CH3 ACE d   1      30.801  30.183  -1.675  0.00  0.00    -0.003 C 
ATOM     18  H1  ACE d   1      31.788  29.875  -1.299  0.00  0.00     0.040 H 
ATOM     19  H2  ACE d   1      30.804  31.266  -1.868  0.00  0.00     0.040 H 
ATOM     20  H3  ACE d   1      30.580  29.645  -2.609  0.00  0.00     0.040 H 
ENDBRANCH  14  17
ENDBRANCH  11  13
BRANCH  11  21
ATOM     21  CB  ASP d   1      32.062  28.342   1.756  0.00  0.00     0.043 C 
ATOM     22  H6  ASP d   1      33.061  27.888   1.680  0.00  0.00     0.052 H 
ATOM     23  H7  ASP d   1      31.370  27.629   2.227  0.00  0.00     0.052 H 
BRANCH  21  24
ATOM     24  CG  ASP d   1      32.144  29.595   2.602  0.00  0.00     0.175 C 
ATOM     25  OD1 ASP d   1      32.305  30.705   2.053  0.00  0.00    -0.648 OA
ATOM     26  OD2 ASP d   1      32.049  29.484   3.839  0.00  0.00    -0.648 OA
ENDBRANCH  21  24
ENDBRANCH  11  21
ENDBRANCH   8  11
ENDBRANCH   5   7
BRANCH   5  27
ATOM     27  CB  GLU d   1      33.681  27.312  -3.477  0.00  0.00    -0.029 C 
ATOM     28  H10 GLU d   1      34.748  27.060  -3.569  0.00  0.00     0.037 H 
ATOM     29  H11 GLU d   1      33.576  28.381  -3.239  0.00  0.00     0.037 H 
BRANCH  27  30
ATOM     30  CG  GLU d   1      33.057  27.102  -4.849  0.00  0.00     0.018 C 
ATOM     31  H12 GLU d   1      32.134  26.510  -4.758  0.00  0.00     0.049 H 
ATOM     32  H13 GLU d   1      33.764  26.580  -5.510  0.00  0.00     0.049 H 
BRANCH  30  33
ATOM     33  CD  GLU d   1      32.741  28.483  -5.406  0.00  0.00     0.172 C 
ATOM     34  OE1 GLU d   1      33.653  29.147  -5.949  0.00  0.00    -0.648 OA
ATOM     35  OE2 GLU d   1      31.575  28.917  -5.267  0.00  0.00    -0.648 OA
ENDBRANCH  30  33
ENDBRANCH  27  30
ENDBRANCH   5  27
ENDBRANCH   1   5
BRANCH   3  36
ATOM     36  CA  VAL d   1      35.626  23.644  -1.685  0.00  0.00     0.092 C 
ATOM     37  H15 VAL d   1      36.160  24.249  -0.937  0.00  0.00     0.088 H 
BRANCH  36  38
ATOM     38  C   VAL d   1      36.655  23.397  -2.898  0.00  0.00     0.241 C 
ATOM     39  O   VAL d   1      36.232  23.433  -4.049  0.00  0.00    -0.271 OA
ATOM     40  N   ASJ d   1      37.955  23.117  -2.671  0.00  0.00    -0.352 N 
ATOM     41  H23 ASJ d   1      38.241  23.013  -1.718  0.00  0.00     0.163 HD
BRANCH  40  42
ATOM     42  CA  ASJ d   1      38.989  22.951  -3.708  0.00  0.00     0.041 C 
ATOM     43  H24 ASJ d   1      38.593  23.410  -4.626  0.00  0.00     0.076 H 
BRANCH  42  44
ATOM     44  C   ASJ d   1      39.212  21.488  -3.969  0.00  0.00     0.036 C 
ATOM     45  H25 ASJ d   1      38.281  21.090  -4.398  0.00  0.00     0.077 H 
ATOM     46  H26 ASJ d   1      39.401  21.011  -2.996  0.00  0.00     0.077 H 
BRANCH  44  47
ATOM     47  O   ASJ d   1      40.275  21.100  -4.840  0.00  0.00    -0.399 OA
ATOM     48  H27 ASJ d   1      40.133  21.479  -5.699  0.00  0.00     0.209 HD
ENDBRANCH  44  47
ENDBRANCH  42  44
BRANCH  42  49
ATOM     49  CB  ASJ d   1      40.356  23.612  -3.429  0.00  0.00     0.036 C 
ATOM     50  H28 ASJ d   1      41.123  23.173  -4.083  0.00  0.00     0.052 H 
ATOM     51  H29 ASJ d   1      40.638  23.456  -2.377  0.00  0.00     0.052 H 
BRANCH  49  52
ATOM     52  CG  ASJ d   1      40.226  25.093  -3.712  0.00  0.00     0.174 C 
ATOM     53  OD1 ASJ d   1      41.041  25.878  -3.194  0.00  0.00    -0.648 OA
ATOM     54  OD2 ASJ d   1      39.302  25.482  -4.458  0.00  0.00    -0.648 OA
ENDBRANCH  49  52
ENDBRANCH  42  49
ENDBRANCH  40  42
ENDBRANCH  36  38
BRANCH  36  55
ATOM     55  CB  VAL d   1      35.188  22.333  -1.018  0.00  0.00    -0.033 C 
ATOM     56  H16 VAL d   1      36.066  21.961  -0.469  0.00  0.00     0.042 H 
BRANCH  55  57
ATOM     57  CG1 VAL d   1      34.057  22.464  -0.008  0.00  0.00    -0.071 C 
ATOM     58  H17 VAL d   1      33.821  21.474   0.409  0.00  0.00     0.028 H 
ATOM     59  H18 VAL d   1      33.166  22.874  -0.506  0.00  0.00     0.028 H 
ATOM     60  H19 VAL d   1      34.366  23.139   0.803  0.00  0.00     0.028 H 
ENDBRANCH  55  57
BRANCH  55  61
ATOM     61  CG2 VAL d   1      34.801  21.273  -2.031  0.00  0.00    -0.071 C 
ATOM     62  H20 VAL d   1      35.607  21.162  -2.772  0.00  0.00     0.028 H 
ATOM     63  H21 VAL d   1      33.873  21.574  -2.540  0.00  0.00     0.028 H 
ATOM     64  H22 VAL d   1      34.642  20.314  -1.516  0.00  0.00     0.028 H 
ENDBRANCH  55  61
ENDBRANCH  36  55
ENDBRANCH   3  36
TORSDOF 20
