REMARK  9 active torsions:
REMARK  status: ('A' for Active; 'I' for Inactive)
REMARK    1  A    between atoms: C3_4  and  C3M_5 
REMARK    2  A    between atoms: C9_13  and  C11_17 
REMARK    3  A    between atoms: C11_17  and  N12_18 
REMARK    4  A    between atoms: N12_18  and  C13_19 
REMARK    5  A    between atoms: N_28  and  CA_29 
REMARK    6  A    between atoms: CA_29  and  CT_30 
REMARK    7  A    between atoms: CA_29  and  CB_33 
REMARK    8  A    between atoms: CB_33  and  CG_34 
REMARK    9  A    between atoms: CG_34  and  CD_35 
ROOT
ATOM      1  N12 F89 d   1       6.188 -17.704  23.898  0.00  0.00    -0.386 N 
ATOM      2  H12 F89 d   1       7.136 -17.695  23.495  0.00  0.00     0.160 HD
ENDROOT
BRANCH   1   3
ATOM      3  C11 F89 d   1       5.555 -16.376  24.151  0.00  0.00     0.016 C 
ATOM      4  H10 F89 d   1       5.093 -16.394  25.149  0.00  0.00     0.071 H 
ATOM      5  H11 F89 d   1       6.338 -15.604  24.123  0.00  0.00     0.071 H 
BRANCH   3   6
ATOM      6  C9  F89 d   1       4.502 -16.022  23.145  0.00  0.00    -0.040 A 
ATOM      7  C8  F89 d   1       4.708 -16.282  21.710  0.00  0.00    -0.074 A 
ATOM      8  C7  F89 d   1       3.686 -15.953  20.738  0.00  0.00    -0.072 A 
ATOM      9  H8  F89 d   1       5.639 -16.726  21.376  0.00  0.00     0.084 H 
ATOM     10  C6A F89 d   1       2.435 -15.362  21.176  0.00  0.00    -0.025 A 
ATOM     11  H7  F89 d   1       3.855 -16.148  19.685  0.00  0.00     0.084 H 
ATOM     12  C6  F89 d   1       1.427 -15.055  20.170  0.00  0.00    -0.070 A 
ATOM     13  C1B F89 d   1       2.178 -15.078  22.655  0.00  0.00    -0.007 A 
ATOM     14  C5  F89 d   1       0.162 -14.459  20.566  0.00  0.00    -0.053 A 
ATOM     15  H6  F89 d   1       1.621 -15.271  19.126  0.00  0.00     0.084 H 
ATOM     16  C4A F89 d   1      -0.127 -14.172  21.969  0.00  0.00     0.075 A 
ATOM     17  H5  F89 d   1      -0.578 -14.224  19.809  0.00  0.00     0.087 H 
ATOM     18  N4  F89 d   1      -1.358 -13.611  22.272  0.00  0.00    -0.235 NA
ATOM     19  C1A F89 d   1       0.868 -14.471  23.051  0.00  0.00     0.072 A 
ATOM     20  C3  F89 d   1      -1.746 -13.297  23.559  0.00  0.00     0.103 A 
ATOM     21  N2  F89 d   1      -0.865 -13.554  24.586  0.00  0.00    -0.311 N 
ATOM     22  C1  F89 d   1       0.397 -14.113  24.410  0.00  0.00     0.260 A 
ATOM     23  H1  F89 d   1      -1.150 -13.324  25.517  0.00  0.00     0.170 HD
ATOM     24  O1A F89 d   1       1.051 -14.276  25.442  0.00  0.00    -0.267 OA
ATOM     25  C10 F89 d   1       3.255 -15.431  23.604  0.00  0.00    -0.064 A 
ATOM     26  H9  F89 d   1       3.112 -15.246  24.663  0.00  0.00     0.085 H 
BRANCH  20  27
ATOM     27  C3M F89 d   1      -3.093 -12.690  23.825  0.00  0.00    -0.021 C 
ATOM     28  H2  F89 d   1      -3.635 -12.569  22.875  0.00  0.00     0.037 H 
ATOM     29  H3  F89 d   1      -2.965 -11.707  24.302  0.00  0.00     0.037 H 
ATOM     30  H4  F89 d   1      -3.667 -13.349  24.493  0.00  0.00     0.037 H 
ENDBRANCH  20  27
ENDBRANCH   3   6
ENDBRANCH   1   3
BRANCH   1  31
ATOM     31  C13 F89 d   1       5.594 -19.033  24.166  0.00  0.00     0.028 A 
ATOM     32  C14 F89 d   1       4.240 -19.206  24.760  0.00  0.00    -0.049 A 
ATOM     33  C15 F89 d   1       3.729 -20.547  24.980  0.00  0.00    -0.022 A 
ATOM     34  H13 F89 d   1       3.643 -18.341  25.025  0.00  0.00     0.087 H 
ATOM     35  C16 F89 d   1       4.494 -21.708  24.634  0.00  0.00     0.040 A 
ATOM     36  C19 F89 d   1       2.447 -20.972  25.547  0.00  0.00     0.024 A 
ATOM     37  C17 F89 d   1       5.840 -21.562  24.043  0.00  0.00    -0.065 A 
ATOM     38  C   F89 d   1       3.726 -22.908  24.960  0.00  0.00     0.255 A 
ATOM     39  C18 F89 d   1       6.384 -20.216  23.814  0.00  0.00    -0.057 A 
ATOM     40  H14 F89 d   1       6.421 -22.439  23.781  0.00  0.00     0.085 H 
ATOM     41  H15 F89 d   1       7.372 -20.098  23.384  0.00  0.00     0.086 H 
ATOM     42  O   F89 d   1       3.872 -24.007  24.409  0.00  0.00    -0.267 OA
ATOM     43  N   F89 d   1       2.538 -22.447  25.495  0.00  0.00    -0.329 N 
ATOM     44  H16 F89 d   1       1.605 -20.605  24.941  0.00  0.00     0.071 H 
ATOM     45  H17 F89 d   1       2.335 -20.618  26.583  0.00  0.00     0.071 H 
BRANCH  43  46
ATOM     46  CA  F89 d   1       1.180 -23.073  25.813  0.00  0.00     0.099 C 
ATOM     47  H18 F89 d   1       0.488 -22.226  25.931  0.00  0.00     0.090 H 
BRANCH  46  48
ATOM     48  CT  F89 d   1       1.165 -23.841  27.188  0.00  0.00     0.197 C 
ATOM     49  O1  F89 d   1       2.012 -24.723  27.398  0.00  0.00    -0.646 OA
ATOM     50  O2  F89 d   1       0.361 -23.516  28.080  0.00  0.00    -0.646 OA
ENDBRANCH  46  48
BRANCH  46  51
ATOM     51  CB  F89 d   1       0.581 -23.954  24.651  0.00  0.00    -0.028 C 
ATOM     52  H19 F89 d   1      -0.366 -24.383  25.011  0.00  0.00     0.037 H 
ATOM     53  H20 F89 d   1       1.296 -24.764  24.444  0.00  0.00     0.037 H 
BRANCH  51  54
ATOM     54  CG  F89 d   1       0.292 -23.234  23.321  0.00  0.00     0.018 C 
ATOM     55  H21 F89 d   1       0.430 -23.960  22.506  0.00  0.00     0.049 H 
ATOM     56  H22 F89 d   1       1.022 -22.418  23.212  0.00  0.00     0.049 H 
BRANCH  54  57
ATOM     57  CD  F89 d   1      -1.128 -22.625  23.182  0.00  0.00     0.172 C 
ATOM     58  OE1 F89 d   1      -1.442 -21.679  23.925  0.00  0.00    -0.648 OA
ATOM     59  OE2 F89 d   1      -1.814 -22.888  22.187  0.00  0.00    -0.648 OA
ENDBRANCH  54  57
ENDBRANCH  51  54
ENDBRANCH  46  51
ENDBRANCH  43  46
ENDBRANCH   1  31
TORSDOF 9
