REMARK WARNING: 32 MAX_TORS EXCEEDED!!!
REMARK  64 active torsions:
REMARK  status: ('A' for Active; 'I' for Inactive)
REMARK    1  A    between atoms: N_1  and  CA_2 
REMARK    2  A    between atoms: CA_2  and  C_3 
REMARK    3  A    between atoms: CA_2  and  CB_5 
REMARK       I    between atoms: C_3  and  N_6 
REMARK    4  A    between atoms: N_6  and  CA_7 
REMARK    5  A    between atoms: CA_7  and  C_8 
REMARK    6  A    between atoms: CA_7  and  CB_10 
REMARK       I    between atoms: C_8  and  N_14 
REMARK    7  A    between atoms: CB_10  and  CG_11 
REMARK    8  A    between atoms: CG_11  and  SD_12 
REMARK    9  A    between atoms: SD_12  and  CE_13 
REMARK   10  A    between atoms: N_14  and  CA_15 
REMARK   11  A    between atoms: CA_15  and  C_16 
REMARK   12  A    between atoms: CA_15  and  CB_18 
REMARK       I    between atoms: C_16  and  N_23 
REMARK   13  A    between atoms: CB_18  and  CG_19 
REMARK   14  A    between atoms: CG_19  and  CD_20 
REMARK   15  A    between atoms: CD_20  and  CE_21 
REMARK   16  A    between atoms: CE_21  and  NZ_22 
REMARK   17  A    between atoms: N_23  and  CA_24 
REMARK   18  A    between atoms: CA_24  and  C_25 
REMARK   19  A    between atoms: CA_24  and  CB_27 
REMARK       I    between atoms: C_25  and  N_34 
REMARK   20  A    between atoms: CB_27  and  CG_28 
REMARK   21  A    between atoms: CG_28  and  CD_29 
REMARK   22  A    between atoms: CD_29  and  NE_30 
REMARK       I    between atoms: NE_30  and  CZ_31 
REMARK       I    between atoms: CZ_31  and  NH1_32 
REMARK       I    between atoms: CZ_31  and  NH2_33 
REMARK   23  A    between atoms: N_34  and  CA_35 
REMARK   24  A    between atoms: CA_35  and  C_36 
REMARK   25  A    between atoms: CA_35  and  CB_38 
REMARK       I    between atoms: C_36  and  N_44 
REMARK   26  A    between atoms: CB_38  and  CG_39 
REMARK   27  A    between atoms: N_44  and  CA_45 
REMARK   28  A    between atoms: CA_45  and  C_46 
REMARK       I    between atoms: C_46  and  N_48 
REMARK   29  A    between atoms: N_48  and  CA_49 
REMARK   30  A    between atoms: CA_49  and  C_50 
REMARK   31  A    between atoms: CA_49  and  CB_52 
REMARK       I    between atoms: C_50  and  N_56 
REMARK   32  A    between atoms: CB_52  and  CG_53 
REMARK   33  A    between atoms: CG_53  and  CD1_54 
REMARK   34  A    between atoms: CG_53  and  CD2_55 
REMARK   35  A    between atoms: N_56  and  CA_57 
REMARK   36  A    between atoms: CA_57  and  C_58 
REMARK   37  A    between atoms: CA_57  and  CB_60 
REMARK       I    between atoms: C_58  and  N_64 
REMARK   38  A    between atoms: CB_60  and  CG_61 
REMARK   39  A    between atoms: N_64  and  CA_65 
REMARK   40  A    between atoms: CA_65  and  C_66 
REMARK   41  A    between atoms: CA_65  and  CB_68 
REMARK       I    between atoms: C_66  and  N_72 
REMARK   42  A    between atoms: CB_68  and  CG_69 
REMARK       I    between atoms: CG_69  and  ND2_71 
REMARK   43  A    between atoms: N_72  and  CA_73 
REMARK   44  A    between atoms: CA_73  and  C_74 
REMARK   45  A    between atoms: CA_73  and  CB_76 
REMARK       I    between atoms: C_74  and  N_84 
REMARK   46  A    between atoms: CB_76  and  CG_77 
REMARK   47  A    between atoms: CZ_82  and  OH_83 
REMARK   48  A    between atoms: N_84  and  CA_85 
REMARK   49  A    between atoms: CA_85  and  C_86 
REMARK   50  A    between atoms: CA_85  and  CB_88 
REMARK       I    between atoms: C_86  and  N_95 
REMARK   51  A    between atoms: CB_88  and  CG_89 
REMARK   52  A    between atoms: CG_89  and  CD_90 
REMARK   53  A    between atoms: CD_90  and  NE_91 
REMARK       I    between atoms: NE_91  and  CZ_92 
REMARK       I    between atoms: CZ_92  and  NH1_93 
REMARK   54  A    between atoms: N_95  and  CA_96 
REMARK   55  A    between atoms: CA_96  and  C_97 
REMARK       I    between atoms: C_97  and  N_99 
REMARK   56  A    between atoms: N_99  and  CA_100 
REMARK   57  A    between atoms: CA_100  and  C_101 
REMARK   58  A    between atoms: CA_100  and  CB_103 
REMARK       I    between atoms: C_101  and  N_111 
REMARK   59  A    between atoms: CB_103  and  CG_104 
REMARK   60  A    between atoms: CZ_109  and  OH_110 
REMARK   61  A    between atoms: N_111  and  CA_112 
REMARK   62  A    between atoms: CA_112  and  C_113 
REMARK   63  A    between atoms: CA_112  and  CB_115 
REMARK   64  A    between atoms: CB_115  and  OG_116 
ROOT
ATOM      1  CA  LEU d   1      27.413  67.478  22.167  0.00  0.00     0.089 C 
ATOM      2  H54 LEU d   1      27.282  68.568  22.239  0.00  0.00     0.087 H 
ENDROOT
BRANCH   1   3
ATOM      3  N   LEU d   1      26.957  67.039  20.854  0.00  0.00    -0.346 N 
ATOM      4  C   GLY d   1      27.645  67.328  19.755  0.00  0.00     0.236 C 
ATOM      5  O   GLY d   1      28.700  67.980  19.775  0.00  0.00    -0.272 OA
ATOM      6  H53 LEU d   1      26.111  66.511  20.779  0.00  0.00     0.163 HD
BRANCH   4   7
ATOM      7  CA  GLY d   1      27.059  66.822  18.450  0.00  0.00     0.069 C 
ATOM      8  H51 GLY d   1      27.704  66.028  18.046  0.00  0.00     0.078 H 
ATOM      9  H52 GLY d   1      26.053  66.417  18.637  0.00  0.00     0.078 H 
BRANCH   7  10
ATOM     10  N   GLY d   1      26.969  67.901  17.487  0.00  0.00    -0.351 N 
ATOM     11  C   HIS d   1      25.796  68.289  17.009  0.00  0.00     0.241 C 
ATOM     12  O   HIS d   1      24.737  67.761  17.328  0.00  0.00    -0.271 OA
ATOM     13  H50 GLY d   1      27.803  68.359  17.179  0.00  0.00     0.163 HD
BRANCH  11  14
ATOM     14  CA  HIS d   1      25.826  69.443  16.017  0.00  0.00     0.094 C 
ATOM     15  H44 HIS d   1      26.799  69.465  15.505  0.00  0.00     0.088 H 
BRANCH  14  16
ATOM     16  N   HIS d   1      24.777  69.238  15.042  0.00  0.00    -0.346 N 
ATOM     17  C   ARG d   1      25.050  68.835  13.806  0.00  0.00     0.241 C 
ATOM     18  O   ARG d   1      26.207  68.660  13.398  0.00  0.00    -0.271 OA
ATOM     19  H43 HIS d   1      23.826  69.403  15.304  0.00  0.00     0.163 HD
BRANCH  17  20
ATOM     20  CA  ARG d   1      23.837  68.631  12.883  0.00  0.00     0.089 C 
ATOM     21  H31 ARG d   1      22.976  69.164  13.313  0.00  0.00     0.087 H 
BRANCH  20  22
ATOM     22  N   ARG d   1      24.107  69.171  11.568  0.00  0.00    -0.346 N 
ATOM     23  C   LYS d   1      24.057  70.477  11.344  0.00  0.00     0.241 C 
ATOM     24  O   LYS d   1      23.754  71.301  12.215  0.00  0.00    -0.271 OA
ATOM     25  H30 ARG d   1      24.334  68.550  10.818  0.00  0.00     0.163 HD
BRANCH  23  26
ATOM     26  CA  LYS d   1      24.377  70.910   9.918  0.00  0.00     0.089 C 
ATOM     27  H18 LYS d   1      23.995  70.151   9.220  0.00  0.00     0.087 H 
BRANCH  26  28
ATOM     28  N   LYS d   1      23.727  72.179   9.642  0.00  0.00    -0.346 N 
ATOM     29  C   MET d   1      22.912  72.353   8.606  0.00  0.00     0.241 C 
ATOM     30  O   MET d   1      22.629  71.465   7.790  0.00  0.00    -0.271 OA
ATOM     31  H17 LYS d   1      23.899  72.951  10.254  0.00  0.00     0.163 HD
BRANCH  29  32
ATOM     32  CA  MET d   1      22.343  73.749   8.475  0.00  0.00     0.090 C 
ATOM     33  H9  MET d   1      23.046  74.465   8.927  0.00  0.00     0.087 H 
BRANCH  32  34
ATOM     34  N   MET d   1      22.186  74.078   7.072  0.00  0.00    -0.346 N 
ATOM     35  C   ALA d   1      23.202  74.034   6.213  0.00  0.00     0.248 C 
ATOM     36  O   ALA d   1      24.360  73.711   6.512  0.00  0.00    -0.271 OA
ATOM     37  H8  MET d   1      21.283  74.347   6.738  0.00  0.00     0.163 HD
BRANCH  35  38
ATOM     38  CA  ALA d   1      22.842  74.408   4.795  0.00  0.00     0.172 C 
ATOM     39  H4  ALA d   1      22.912  75.499   4.676  0.00  0.00     0.098 H 
BRANCH  38  40
ATOM     40  N   ALA d   1      23.796  73.754   3.857  0.00  0.00    -0.067 N 
ATOM     41  H1  ALA d   1      23.558  74.002   2.909  0.00  0.00     0.275 HD
ATOM     42  H2  ALA d   1      23.742  72.753   3.966  0.00  0.00     0.275 HD
ATOM     43  H3  ALA d   1      24.733  74.064   4.060  0.00  0.00     0.275 HD
ENDBRANCH  38  40
BRANCH  38  44
ATOM     44  CB  ALA d   1      21.407  73.964   4.506  0.00  0.00    -0.042 C 
ATOM     45  H5  ALA d   1      20.721  74.459   5.210  0.00  0.00     0.030 H 
ATOM     46  H6  ALA d   1      21.330  72.873   4.625  0.00  0.00     0.030 H 
ATOM     47  H7  ALA d   1      21.138  74.241   3.476  0.00  0.00     0.030 H 
ENDBRANCH  38  44
ENDBRANCH  35  38
ENDBRANCH  32  34
BRANCH  32  48
ATOM     48  CB  MET d   1      21.005  73.839   9.223  0.00  0.00    -0.030 C 
ATOM     49  H10 MET d   1      21.157  73.464  10.246  0.00  0.00     0.037 H 
ATOM     50  H11 MET d   1      20.277  73.199   8.703  0.00  0.00     0.037 H 
BRANCH  48  51
ATOM     51  CG  MET d   1      20.424  75.245   9.313  0.00  0.00    -0.021 C 
ATOM     52  H12 MET d   1      19.545  75.224   9.973  0.00  0.00     0.049 H 
ATOM     53  H13 MET d   1      20.119  75.568   8.307  0.00  0.00     0.049 H 
BRANCH  51  54
ATOM     54  SD  MET d   1      21.623  76.441   9.973  0.00  0.00    -0.173 SA
BRANCH  54  55
ATOM     55  CE  MET d   1      20.807  76.995  11.418  0.00  0.00    -0.035 C 
ATOM     56  H14 MET d   1      21.433  77.740  11.930  0.00  0.00     0.041 H 
ATOM     57  H15 MET d   1      20.630  76.142  12.089  0.00  0.00     0.041 H 
ATOM     58  H16 MET d   1      19.845  77.451  11.143  0.00  0.00     0.041 H 
ENDBRANCH  54  55
ENDBRANCH  51  54
ENDBRANCH  48  51
ENDBRANCH  32  48
ENDBRANCH  29  32
ENDBRANCH  26  28
BRANCH  26  59
ATOM     59  CB  LYS d   1      25.901  71.044   9.723  0.00  0.00    -0.038 C 
ATOM     60  H19 LYS d   1      26.357  70.052   9.852  0.00  0.00     0.036 H 
ATOM     61  H20 LYS d   1      26.291  71.730  10.490  0.00  0.00     0.036 H 
BRANCH  59  62
ATOM     62  CG  LYS d   1      26.295  71.583   8.345  0.00  0.00    -0.061 C 
ATOM     63  H21 LYS d   1      25.980  72.635   8.280  0.00  0.00     0.033 H 
ATOM     64  H22 LYS d   1      25.770  70.995   7.578  0.00  0.00     0.033 H 
BRANCH  62  65
ATOM     65  CD  LYS d   1      27.794  71.511   8.065  0.00  0.00    -0.043 C 
ATOM     66  H23 LYS d   1      28.129  70.468   8.168  0.00  0.00     0.035 H 
ATOM     67  H24 LYS d   1      28.326  72.141   8.793  0.00  0.00     0.035 H 
BRANCH  65  68
ATOM     68  CE  LYS d   1      28.119  72.005   6.641  0.00  0.00     0.080 C 
ATOM     69  H25 LYS d   1      29.199  71.887   6.471  0.00  0.00     0.075 H 
ATOM     70  H26 LYS d   1      27.851  73.070   6.573  0.00  0.00     0.075 H 
BRANCH  68  71
ATOM     71  NZ  LYS d   1      27.385  71.261   5.563  0.00  0.00    -0.079 N 
ATOM     72  H27 LYS d   1      27.643  71.633   4.662  0.00  0.00     0.274 HD
ATOM     73  H28 LYS d   1      26.392  71.367   5.698  0.00  0.00     0.274 HD
ATOM     74  H29 LYS d   1      27.628  70.284   5.604  0.00  0.00     0.274 HD
ENDBRANCH  68  71
ENDBRANCH  65  68
ENDBRANCH  62  65
ENDBRANCH  59  62
ENDBRANCH  26  59
ENDBRANCH  23  26
ENDBRANCH  20  22
BRANCH  20  75
ATOM     75  CB  ARG d   1      23.488  67.144  12.773  0.00  0.00    -0.036 C 
ATOM     76  H32 ARG d   1      23.557  66.699  13.776  0.00  0.00     0.036 H 
ATOM     77  H33 ARG d   1      24.223  66.666  12.108  0.00  0.00     0.036 H 
BRANCH  75  78
ATOM     78  CG  ARG d   1      22.100  66.867  12.225  0.00  0.00    -0.048 C 
ATOM     79  H34 ARG d   1      22.008  67.328  11.230  0.00  0.00     0.035 H 
ATOM     80  H35 ARG d   1      21.352  67.305  12.903  0.00  0.00     0.035 H 
BRANCH  78  81
ATOM     81  CD  ARG d   1      21.845  65.357  12.104  0.00  0.00     0.009 C 
ATOM     82  H36 ARG d   1      21.886  64.913  13.109  0.00  0.00     0.064 H 
ATOM     83  H37 ARG d   1      22.634  64.917  11.476  0.00  0.00     0.064 H 
BRANCH  81  84
ATOM     84  NE  ARG d   1      20.542  65.043  11.506  0.00  0.00    -0.227 N 
ATOM     85  CZ  ARG d   1      19.454  64.700  12.194  0.00  0.00     0.665 C 
ATOM     86  NH1 ARG d   1      19.500  64.618  13.519  0.00  0.00    -0.235 N 
ATOM     87  NH2 ARG d   1      18.317  64.440  11.555  0.00  0.00    -0.235 N 
ATOM     88  H39 ARG d   1      18.657  64.353  14.048  0.00  0.00     0.174 HD
ATOM     89  H40 ARG d   1      20.379  64.820  14.017  0.00  0.00     0.174 HD
ATOM     90  H41 ARG d   1      18.278  64.503  10.528  0.00  0.00     0.174 HD
ATOM     91  H42 ARG d   1      17.476  64.176  12.088  0.00  0.00     0.174 HD
ATOM     92  H38 ARG d   1      20.463  65.091  10.480  0.00  0.00     0.177 HD
ENDBRANCH  81  84
ENDBRANCH  78  81
ENDBRANCH  75  78
ENDBRANCH  20  75
ENDBRANCH  17  20
ENDBRANCH  14  16
BRANCH  14  93
ATOM     93  CB  HIS d   1      25.623  70.762  16.767  0.00  0.00     0.004 C 
ATOM     94  H45 HIS d   1      26.327  70.789  17.612  0.00  0.00     0.046 H 
ATOM     95  H46 HIS d   1      24.592  70.785  17.149  0.00  0.00     0.046 H 
BRANCH  93  96
ATOM     96  CG  HIS d   1      25.842  71.987  15.936  0.00  0.00     0.053 A 
ATOM     97  ND1 HIS d   1      26.115  73.217  16.493  0.00  0.00    -0.247 NA
ATOM     98  CE1 HIS d   1      26.223  74.117  15.534  0.00  0.00     0.064 A 
ATOM     99  NE2 HIS d   1      26.030  73.515  14.375  0.00  0.00    -0.359 N 
ATOM    100  H48 HIS d   1      26.435  75.176  15.675  0.00  0.00     0.143 H 
ATOM    101  CD2 HIS d   1      25.790  72.182  14.598  0.00  0.00     0.002 A 
ATOM    102  H49 HIS d   1      26.055  73.972  13.452  0.00  0.00     0.166 HD
ATOM    103  H47 HIS d   1      25.595  71.424  13.841  0.00  0.00     0.114 H 
ENDBRANCH  93  96
ENDBRANCH  14  93
ENDBRANCH  11  14
ENDBRANCH   7  10
ENDBRANCH   4   7
ENDBRANCH   1   3
BRANCH   1 104
ATOM    104  C   LEU d   1      28.894  67.160  22.357  0.00  0.00     0.241 C 
ATOM    105  O   LEU d   1      29.363  66.088  21.965  0.00  0.00    -0.271 OA
ATOM    106  N   ASP d   1      29.619  68.100  22.956  0.00  0.00    -0.346 N 
ATOM    107  H64 ASP d   1      29.164  68.934  23.269  0.00  0.00     0.163 HD
BRANCH 106 108
ATOM    108  CA  ASP d   1      31.053  67.959  23.173  0.00  0.00     0.098 C 
ATOM    109  H65 ASP d   1      31.489  67.495  22.276  0.00  0.00     0.088 H 
BRANCH 108 110
ATOM    110  C   ASP d   1      31.381  67.085  24.365  0.00  0.00     0.241 C 
ATOM    111  O   ASP d   1      30.861  67.286  25.467  0.00  0.00    -0.271 OA
ATOM    112  N   ASN d   1      32.244  66.107  24.118  0.00  0.00    -0.346 N 
ATOM    113  H68 ASN d   1      32.591  66.000  23.186  0.00  0.00     0.163 HD
BRANCH 112 114
ATOM    114  CA  ASN d   1      32.706  65.186  25.142  0.00  0.00     0.097 C 
ATOM    115  H69 ASN d   1      31.932  65.016  25.905  0.00  0.00     0.088 H 
BRANCH 114 116
ATOM    116  C   ASN d   1      33.911  65.890  25.740  0.00  0.00     0.241 C 
ATOM    117  O   ASN d   1      34.919  66.110  25.059  0.00  0.00    -0.271 OA
ATOM    118  N   TYR d   1      33.796  66.273  27.004  0.00  0.00    -0.346 N 
ATOM    119  H74 TYR d   1      32.956  66.068  27.507  0.00  0.00     0.163 HD
BRANCH 118 120
ATOM    120  CA  TYR d   1      34.873  66.986  27.668  0.00  0.00     0.093 C 
ATOM    121  H75 TYR d   1      35.388  67.593  26.909  0.00  0.00     0.088 H 
BRANCH 120 122
ATOM    122  C   TYR d   1      35.900  66.095  28.307  0.00  0.00     0.241 C 
ATOM    123  O   TYR d   1      35.556  65.134  28.980  0.00  0.00    -0.271 OA
ATOM    124  N   ARG d   1      37.168  66.423  28.098  0.00  0.00    -0.346 N 
ATOM    125  H83 ARG d   1      37.378  67.229  27.545  0.00  0.00     0.163 HD
BRANCH 124 126
ATOM    126  CA  ARG d   1      38.260  65.639  28.653  0.00  0.00     0.089 C 
ATOM    127  H84 ARG d   1      38.089  64.581  28.404  0.00  0.00     0.087 H 
BRANCH 126 128
ATOM    128  C   ARG d   1      38.355  65.770  30.173  0.00  0.00     0.240 C 
ATOM    129  O   ARG d   1      37.934  66.771  30.739  0.00  0.00    -0.271 OA
ATOM    130  N   GLY d   1      38.905  64.754  30.828  0.00  0.00    -0.351 N 
ATOM    131  H96 GLY d   1      39.211  63.947  30.323  0.00  0.00     0.163 HD
BRANCH 130 132
ATOM    132  CA  GLY d   1      39.067  64.804  32.271  0.00  0.00     0.069 C 
ATOM    133  H97 GLY d   1      38.991  63.791  32.692  0.00  0.00     0.078 H 
ATOM    134  H98 GLY d   1      38.289  65.444  32.713  0.00  0.00     0.078 H 
BRANCH 132 135
ATOM    135  C   GLY d   1      40.441  65.383  32.562  0.00  0.00     0.236 C 
ATOM    136  O   GLY d   1      41.209  65.619  31.633  0.00  0.00    -0.272 OA
ATOM    137  N   TYR d   1      40.770  65.609  33.830  0.00  0.00    -0.346 N 
ATOM    138  H99 TYR d   1      40.120  65.387  34.556  0.00  0.00     0.163 HD
BRANCH 137 139
ATOM    139  CA  TYR d   1      42.075  66.180  34.176  0.00  0.00     0.093 C 
ATOM    140 0H10 TYR d   1      42.251  67.022  33.490  0.00  0.00     0.088 H 
BRANCH 139 141
ATOM    141  C   TYR d   1      43.248  65.216  34.014  0.00  0.00     0.241 C 
ATOM    142  O   TYR d   1      43.217  64.087  34.515  0.00  0.00    -0.271 OA
ATOM    143  N   SER d   1      44.288  65.692  33.321  0.00  0.00    -0.343 N 
ATOM    144 8H10 SER d   1      44.236  66.633  32.987  0.00  0.00     0.163 HD
BRANCH 143 145
ATOM    145  CA  SER d   1      45.506  64.918  33.017  0.00  0.00     0.116 C 
ATOM    146 9H10 SER d   1      45.176  63.906  32.738  0.00  0.00     0.093 H 
BRANCH 145 147
ATOM    147  C   SER d   1      46.527  64.754  34.159  0.00  0.00     0.198 C 
ATOM    148  O   SER d   1      46.695  63.609  34.650  0.00  0.00    -0.646 OA
ATOM    149  OXT SER d   1      47.163  65.765  34.540  0.00  0.00    -0.646 OA
ENDBRANCH 145 147
BRANCH 145 150
ATOM    150  CB  SER d   1      46.215  65.545  31.808  0.00  0.00     0.045 C 
ATOM    151 0H11 SER d   1      46.977  64.845  31.436  0.00  0.00     0.077 H 
ATOM    152 1H11 SER d   1      46.699  66.481  32.122  0.00  0.00     0.077 H 
BRANCH 150 153
ATOM    153  OG  SER d   1      45.295  65.826  30.765  0.00  0.00    -0.398 OA
ATOM    154 2H11 SER d   1      45.758  66.212  30.031  0.00  0.00     0.209 HD
ENDBRANCH 150 153
ENDBRANCH 145 150
ENDBRANCH 143 145
ENDBRANCH 139 141
BRANCH 139 155
ATOM    155  CB  TYR d   1      42.048  66.732  35.599  0.00  0.00    -0.014 C 
ATOM    156 1H10 TYR d   1      41.469  67.667  35.596  0.00  0.00     0.043 H 
ATOM    157 2H10 TYR d   1      43.083  66.942  35.907  0.00  0.00     0.043 H 
BRANCH 155 158
ATOM    158  CG  TYR d   1      41.434  65.800  36.609  0.00  0.00    -0.056 A 
ATOM    159  CD1 TYR d   1      42.121  64.674  37.053  0.00  0.00    -0.074 A 
ATOM    160  CE1 TYR d   1      41.564  63.820  38.009  0.00  0.00    -0.051 A 
ATOM    161 3H10 TYR d   1      43.104  64.456  36.651  0.00  0.00     0.084 H 
ATOM    162  CZ  TYR d   1      40.298  64.099  38.527  0.00  0.00     0.065 A 
ATOM    163 5H10 TYR d   1      42.111  62.947  38.346  0.00  0.00     0.087 H 
ATOM    164  CE2 TYR d   1      39.598  65.216  38.090  0.00  0.00    -0.051 A 
ATOM    165  CD2 TYR d   1      40.167  66.055  37.137  0.00  0.00    -0.074 A 
ATOM    166 6H10 TYR d   1      38.614  65.433  38.489  0.00  0.00     0.087 H 
ATOM    167 4H10 TYR d   1      39.615  66.924  36.798  0.00  0.00     0.084 H 
BRANCH 162 168
ATOM    168  OH  TYR d   1      39.750  63.271  39.494  0.00  0.00    -0.361 OA
ATOM    169 7H10 TYR d   1      40.352  62.560  39.678  0.00  0.00     0.217 HD
ENDBRANCH 162 168
ENDBRANCH 155 158
ENDBRANCH 139 155
ENDBRANCH 137 139
ENDBRANCH 132 135
ENDBRANCH 130 132
ENDBRANCH 126 128
BRANCH 126 170
ATOM    170  CB  ARG d   1      39.578  66.089  28.033  0.00  0.00    -0.036 C 
ATOM    171  H85 ARG d   1      40.397  65.590  28.571  0.00  0.00     0.036 H 
ATOM    172  H86 ARG d   1      39.663  67.178  28.164  0.00  0.00     0.036 H 
BRANCH 170 173
ATOM    173  CG  ARG d   1      39.724  65.780  26.565  0.00  0.00    -0.048 C 
ATOM    174  H87 ARG d   1      38.871  66.209  26.018  0.00  0.00     0.035 H 
ATOM    175  H88 ARG d   1      39.739  64.689  26.424  0.00  0.00     0.035 H 
BRANCH 173 176
ATOM    176  CD  ARG d   1      41.011  66.371  26.026  0.00  0.00     0.009 C 
ATOM    177  H89 ARG d   1      41.847  66.000  26.636  0.00  0.00     0.064 H 
ATOM    178  H90 ARG d   1      40.953  67.466  26.110  0.00  0.00     0.064 H 
BRANCH 176 179
ATOM    179  NE  ARG d   1      41.269  66.025  24.625  0.00  0.00    -0.227 N 
ATOM    180  CZ  ARG d   1      41.706  64.838  24.211  0.00  0.00     0.665 C 
ATOM    181  NH1 ARG d   1      41.935  63.876  25.087  0.00  0.00    -0.235 N 
ATOM    182  NH2 ARG d   1      41.930  64.616  22.924  0.00  0.00    -0.235 N 
ATOM    183  H92 ARG d   1      42.273  62.957  24.767  0.00  0.00     0.174 HD
ATOM    184  H93 ARG d   1      41.775  64.044  26.090  0.00  0.00     0.174 HD
ATOM    185  H94 ARG d   1      41.754  65.361  22.235  0.00  0.00     0.174 HD
ATOM    186  H95 ARG d   1      42.280  63.699  22.613  0.00  0.00     0.174 HD
ATOM    187  H91 ARG d   1      41.101  66.750  23.913  0.00  0.00     0.177 HD
ENDBRANCH 176 179
ENDBRANCH 173 176
ENDBRANCH 170 173
ENDBRANCH 126 170
ENDBRANCH 124 126
ENDBRANCH 120 122
BRANCH 120 188
ATOM    188  CB  TYR d   1      34.289  67.909  28.704  0.00  0.00    -0.014 C 
ATOM    189  H76 TYR d   1      35.107  68.391  29.260  0.00  0.00     0.043 H 
ATOM    190  H77 TYR d   1      33.668  67.324  29.399  0.00  0.00     0.043 H 
BRANCH 188 191
ATOM    191  CG  TYR d   1      33.449  68.959  28.066  0.00  0.00    -0.056 A 
ATOM    192  CD1 TYR d   1      34.032  69.962  27.312  0.00  0.00    -0.074 A 
ATOM    193  CE1 TYR d   1      33.271  70.924  26.698  0.00  0.00    -0.051 A 
ATOM    194  H78 TYR d   1      35.110  69.988  27.204  0.00  0.00     0.084 H 
ATOM    195  CZ  TYR d   1      31.898  70.891  26.834  0.00  0.00     0.065 A 
ATOM    196  H80 TYR d   1      33.744  71.703  26.111  0.00  0.00     0.087 H 
ATOM    197  CE2 TYR d   1      31.285  69.894  27.581  0.00  0.00    -0.051 A 
ATOM    198  CD2 TYR d   1      32.067  68.938  28.190  0.00  0.00    -0.074 A 
ATOM    199  H81 TYR d   1      30.206  69.868  27.683  0.00  0.00     0.087 H 
ATOM    200  H79 TYR d   1      31.596  68.157  28.775  0.00  0.00     0.084 H 
BRANCH 195 201
ATOM    201  OH  TYR d   1      31.135  71.863  26.227  0.00  0.00    -0.361 OA
ATOM    202  H82 TYR d   1      30.532  71.455  25.616  0.00  0.00     0.217 HD
ENDBRANCH 195 201
ENDBRANCH 188 191
ENDBRANCH 120 188
ENDBRANCH 118 120
ENDBRANCH 114 116
BRANCH 114 203
ATOM    203  CB  ASN d   1      33.099  63.849  24.494  0.00  0.00     0.036 C 
ATOM    204  H70 ASN d   1      33.883  64.041  23.747  0.00  0.00     0.051 H 
ATOM    205  H71 ASN d   1      32.213  63.429  23.996  0.00  0.00     0.051 H 
BRANCH 203 206
ATOM    206  CG  ASN d   1      33.622  62.826  25.491  0.00  0.00     0.217 C 
ATOM    207  OD1 ASN d   1      33.180  62.760  26.636  0.00  0.00    -0.274 OA
ATOM    208  ND2 ASN d   1      34.555  62.002  25.043  0.00  0.00    -0.370 N 
ATOM    209  H72 ASN d   1      34.940  61.306  25.649  0.00  0.00     0.159 HD
ATOM    210  H73 ASN d   1      34.875  62.075  24.098  0.00  0.00     0.159 HD
ENDBRANCH 203 206
ENDBRANCH 114 203
ENDBRANCH 112 114
ENDBRANCH 108 110
BRANCH 108 211
ATOM    211  CB  ASP d   1      31.687  69.337  23.371  0.00  0.00     0.043 C 
ATOM    212  H66 ASP d   1      31.724  69.554  24.449  0.00  0.00     0.052 H 
ATOM    213  H67 ASP d   1      31.060  70.087  22.867  0.00  0.00     0.052 H 
BRANCH 211 214
ATOM    214  CG  ASP d   1      33.082  69.426  22.815  0.00  0.00     0.175 C 
ATOM    215  OD1 ASP d   1      33.915  68.538  23.108  0.00  0.00    -0.648 OA
ATOM    216  OD2 ASP d   1      33.338  70.403  22.084  0.00  0.00    -0.648 OA
ENDBRANCH 211 214
ENDBRANCH 108 211
ENDBRANCH 106 108
ENDBRANCH   1 104
BRANCH   1 217
ATOM    217  CB  LEU d   1      26.559  66.813  23.246  0.00  0.00    -0.035 C 
ATOM    218  H55 LEU d   1      26.981  67.070  24.229  0.00  0.00     0.037 H 
ATOM    219  H56 LEU d   1      26.604  65.724  23.101  0.00  0.00     0.037 H 
BRANCH 217 220
ATOM    220  CG  LEU d   1      25.089  67.243  23.224  0.00  0.00    -0.059 C 
ATOM    221  H57 LEU d   1      24.794  67.444  22.184  0.00  0.00     0.038 H 
BRANCH 220 222
ATOM    222  CD1 LEU d   1      24.204  66.145  23.770  0.00  0.00    -0.073 C 
ATOM    223  H58 LEU d   1      23.154  66.474  23.745  0.00  0.00     0.028 H 
ATOM    224  H59 LEU d   1      24.494  65.922  24.807  0.00  0.00     0.028 H 
ATOM    225  H60 LEU d   1      24.320  65.241  23.154  0.00  0.00     0.028 H 
ENDBRANCH 220 222
BRANCH 220 226
ATOM    226  CD2 LEU d   1      24.930  68.514  24.030  0.00  0.00    -0.073 C 
ATOM    227  H61 LEU d   1      25.582  69.296  23.614  0.00  0.00     0.028 H 
ATOM    228  H62 LEU d   1      25.209  68.322  25.076  0.00  0.00     0.028 H 
ATOM    229  H63 LEU d   1      23.883  68.848  23.985  0.00  0.00     0.028 H 
ENDBRANCH 220 226
ENDBRANCH 217 220
ENDBRANCH   1 217
TORSDOF 64
