REMARK  12 active torsions:
REMARK  status: ('A' for Active; 'I' for Inactive)
REMARK    1  A    between atoms: C1_6  and  C2_1 
REMARK       I    between atoms: N6_2  and  C7_18 
REMARK    2  A    between atoms: O2_8  and  C1_6 
REMARK    3  A    between atoms: C14_9  and  O2_8 
REMARK    4  A    between atoms: C15_10  and  C14_9 
REMARK    5  A    between atoms: C16_11  and  C15_10 
REMARK    6  A    between atoms: C17_16  and  C16_11 
REMARK    7  A    between atoms: C7_18  and  C8_20 
REMARK    8  A    between atoms: C8_20  and  C9_22 
REMARK    9  A    between atoms: C9_22  and  C12_23 
REMARK   10  A    between atoms: C9_22  and  C13_24 
REMARK   11  A    between atoms: C9_22  and  C10_25 
REMARK   12  A    between atoms: C10_25  and  C11_26 
ROOT
ATOM      1  C2  GPI d   1      -3.861   1.684  -0.804  0.00  0.00     0.099 C 
ATOM      2  N6  GPI d   1      -4.145   3.148  -0.447  0.00  0.00    -0.332 N 
ATOM      3  C5  GPI d   1      -2.772   3.843  -0.504  0.00  0.00    -0.001 C 
ATOM      4  C3  GPI d   1      -2.447   1.411  -0.328  0.00  0.00    -0.036 C 
ATOM      5  C4  GPI d   1      -1.711   2.737  -0.447  0.00  0.00    -0.048 C 
ATOM      6  C7  GPI d   1      -5.305   3.695  -0.160  0.00  0.00     0.291 C 
ATOM      7  O7  GPI d   1      -6.326   3.011  -0.154  0.00  0.00    -0.264 OA
ATOM      8  H1  GPI d   1      -3.952   1.519  -1.888  0.00  0.00     0.088 H 
ATOM      9  H2  GPI d   1      -2.656   4.523   0.353  0.00  0.00     0.064 H 
ATOM     10  H3  GPI d   1      -2.675   4.413  -1.440  0.00  0.00     0.064 H 
ATOM     11  H4  GPI d   1      -1.969   0.649  -0.961  0.00  0.00     0.036 H 
ATOM     12  H5  GPI d   1      -2.453   1.068   0.717  0.00  0.00     0.036 H 
ATOM     13  H6  GPI d   1      -1.059   2.885   0.426  0.00  0.00     0.035 H 
ATOM     14  H7  GPI d   1      -1.104   2.750  -1.364  0.00  0.00     0.035 H 
ENDROOT
BRANCH   1  15
ATOM     15  C1  GPI d   1      -4.833   0.767  -0.042  0.00  0.00     0.282 C 
ATOM     16  O1  GPI d   1      -4.461   0.205   0.991  0.00  0.00    -0.263 OA
BRANCH  15  17
ATOM     17  O2  GPI d   1      -6.100   0.571  -0.516  0.00  0.00    -0.320 OA
BRANCH  17  18
ATOM     18  C14 GPI d   1      -7.038   0.541   0.566  0.00  0.00     0.029 C 
ATOM     19  H8  GPI d   1      -6.775   1.315   1.301  0.00  0.00     0.075 H 
ATOM     20  H9  GPI d   1      -7.010  -0.447   1.048  0.00  0.00     0.075 H 
BRANCH  18  21
ATOM     21  C15 GPI d   1      -8.453   0.808   0.023  0.00  0.00    -0.041 C 
ATOM     22  H10 GPI d   1      -8.414   0.904  -1.072  0.00  0.00     0.036 H 
ATOM     23  H11 GPI d   1      -8.843   1.740   0.459  0.00  0.00     0.036 H 
BRANCH  21  24
ATOM     24  C16 GPI d   1      -9.376  -0.361   0.402  0.00  0.00    -0.038 C 
ATOM     25  H12 GPI d   1      -8.796  -1.296   0.417  0.00  0.00     0.040 H 
ATOM     26  H13 GPI d   1     -10.186  -0.443  -0.338  0.00  0.00     0.040 H 
BRANCH  24  27
ATOM     27  C17 GPI d   1      -9.979  -0.110   1.795  0.00  0.00    -0.041 A 
ATOM     28  C22 GPI d   1      -9.704  -0.998   2.857  0.00  0.00    -0.074 A 
ATOM     29  C21 GPI d   1     -10.254  -0.775   4.139  0.00  0.00    -0.066 A 
ATOM     30  H16 GPI d   1      -9.066  -1.858   2.688  0.00  0.00     0.084 H 
ATOM     31  C20 GPI d   1     -11.083   0.341   4.359  0.00  0.00     0.002 A 
ATOM     32  H15 GPI d   1     -10.038  -1.461   4.950  0.00  0.00     0.085 H 
ATOM     33  N19 GPI d   1     -11.357   1.229   3.295  0.00  0.00    -0.273 NA
ATOM     34  H14 GPI d   1     -11.509   0.518   5.340  0.00  0.00     0.114 H 
ATOM     35  C18 GPI d   1     -10.807   1.007   2.014  0.00  0.00     0.008 A 
ATOM     36  H17 GPI d   1     -11.021   1.694   1.203  0.00  0.00     0.115 H 
ENDBRANCH  24  27
ENDBRANCH  21  24
ENDBRANCH  18  21
ENDBRANCH  17  18
ENDBRANCH  15  17
ENDBRANCH   1  15
BRANCH   6  37
ATOM     37  C8  GPI d   1      -5.382   5.197   0.173  0.00  0.00     0.224 C 
ATOM     38  O8  GPI d   1      -5.069   6.028  -0.677  0.00  0.00    -0.286 OA
BRANCH  37  39
ATOM     39  C9  GPI d   1      -5.850   5.665   1.565  0.00  0.00     0.022 C 
BRANCH  39  40
ATOM     40  C12 GPI d   1      -5.026   6.892   1.993  0.00  0.00    -0.062 C 
ATOM     41  H18 GPI d   1      -5.358   7.228   2.986  0.00  0.00     0.029 H 
ATOM     42  H19 GPI d   1      -5.170   7.703   1.264  0.00  0.00     0.029 H 
ATOM     43  H20 GPI d   1      -3.961   6.622   2.034  0.00  0.00     0.029 H 
ENDBRANCH  39  40
BRANCH  39  44
ATOM     44  C13 GPI d   1      -5.653   4.536   2.593  0.00  0.00    -0.062 C 
ATOM     45  H21 GPI d   1      -6.241   3.657   2.290  0.00  0.00     0.029 H 
ATOM     46  H22 GPI d   1      -5.989   4.878   3.583  0.00  0.00     0.029 H 
ATOM     47  H23 GPI d   1      -4.588   4.266   2.641  0.00  0.00     0.029 H 
ENDBRANCH  39  44
BRANCH  39  48
ATOM     48  C10 GPI d   1      -7.339   6.047   1.504  0.00  0.00    -0.055 C 
ATOM     49  H24 GPI d   1      -7.666   6.406   2.491  0.00  0.00     0.034 H 
ATOM     50  H25 GPI d   1      -7.932   5.166   1.219  0.00  0.00     0.034 H 
BRANCH  48  51
ATOM     51  C11 GPI d   1      -7.541   7.160   0.461  0.00  0.00    -0.075 C 
ATOM     52  H26 GPI d   1      -8.606   7.433   0.418  0.00  0.00     0.027 H 
ATOM     53  H27 GPI d   1      -7.214   6.801  -0.526  0.00  0.00     0.027 H 
ATOM     54  H28 GPI d   1      -6.948   8.041   0.746  0.00  0.00     0.027 H 
ENDBRANCH  48  51
ENDBRANCH  39  48
ENDBRANCH  37  39
ENDBRANCH   6  37
TORSDOF 12
