REMARK  26 active torsions:
REMARK  status: ('A' for Active; 'I' for Inactive)
REMARK    1  A    between atoms: CA_2  and  N_1 
REMARK    2  A    between atoms: C_3  and  CA_2 
REMARK    3  A    between atoms: CA_2  and  CB_5 
REMARK       I    between atoms: N_13  and  C_3 
REMARK    4  A    between atoms: CB_5  and  CG_6 
REMARK    5  A    between atoms: CZ_11  and  OH_12 
REMARK    6  A    between atoms: N_13  and  CA_14 
REMARK    7  A    between atoms: CA_14  and  C_17 
REMARK    8  A    between atoms: CA_14  and  CB_15 
REMARK    9  A    between atoms: CB_15  and  OG_16 
REMARK   10  A    between atoms: OG_16  and  P_19 
REMARK       I    between atoms: C_17  and  N_23 
REMARK   11  A    between atoms: CA_24  and  C_25 
REMARK       I    between atoms: C_25  and  N_30 
REMARK   12  A    between atoms: N_30  and  CA_31 
REMARK   13  A    between atoms: CA_31  and  C_32 
REMARK   14  A    between atoms: CA_31  and  CB_34 
REMARK       I    between atoms: C_32  and  N_37 
REMARK   15  A    between atoms: CB_34  and  OG1_35 
REMARK   16  A    between atoms: CB_34  and  CG2_36 
REMARK   17  A    between atoms: N_37  and  CA_38 
REMARK   18  A    between atoms: CA_38  and  C_41 
REMARK   19  A    between atoms: CA_38  and  CB_39 
REMARK   20  A    between atoms: CB_39  and  OG_40 
REMARK   21  A    between atoms: OG_40  and  P_43 
REMARK       I    between atoms: C_41  and  N_47 
REMARK   22  A    between atoms: CA_48  and  C_49 
REMARK       I    between atoms: C_49  and  N_54 
REMARK   23  A    between atoms: N_54  and  CA_55 
REMARK   24  A    between atoms: CA_55  and  C_56 
REMARK   25  A    between atoms: CA_55  and  CB_58 
REMARK   26  A    between atoms: CB_58  and  OG_59 
ROOT
ATOM      1  C   PRO d   1       0.290  15.467  54.378  0.00  0.00     0.241 C 
ATOM      2  O   PRO d   1       0.229  16.373  55.213  0.00  0.00    -0.271 OA
ATOM      3  N   THR d   1      -0.610  15.312  53.417  0.00  0.00    -0.344 N 
ATOM      4  H23 THR d   1      -0.504  14.560  52.766  0.00  0.00     0.163 HD
ENDROOT
BRANCH   3   5
ATOM      5  CA  THR d   1      -1.744  16.207  53.287  0.00  0.00     0.113 C 
ATOM      6  H24 THR d   1      -1.566  17.122  53.871  0.00  0.00     0.091 H 
BRANCH   5   7
ATOM      7  C   THR d   1      -2.965  15.472  53.824  0.00  0.00     0.243 C 
ATOM      8  O   THR d   1      -3.048  14.246  53.740  0.00  0.00    -0.271 OA
ATOM      9  N   SEP d   1      -3.901  16.219  54.394  0.00  0.00    -0.344 N 
ATOM     10  H30 SEP d   1      -3.775  17.209  54.456  0.00  0.00     0.163 HD
BRANCH   9  11
ATOM     11  CA  SEP d   1      -5.107  15.613  54.928  0.00  0.00     0.110 C 
ATOM     12  H31 SEP d   1      -4.828  14.850  55.669  0.00  0.00     0.090 H 
BRANCH  11  13
ATOM     13  C   SEP d   1      -5.859  14.947  53.788  0.00  0.00     0.245 C 
ATOM     14  O   SEP d   1      -5.803  15.405  52.648  0.00  0.00    -0.271 OA
ATOM     15  N   PRO d   1      -6.571  13.850  54.079  0.00  0.00    -0.337 N 
ATOM     16  CA  PRO d   1      -7.333  13.122  53.058  0.00  0.00     0.091 C 
ATOM     17  CD  PRO d   1      -6.744  13.234  55.405  0.00  0.00    -0.001 C 
ATOM     18  CB  PRO d   1      -8.043  12.029  53.862  0.00  0.00    -0.036 C 
ATOM     19  H34 PRO d   1      -6.625  12.653  52.358  0.00  0.00     0.087 H 
ATOM     20  CG  PRO d   1      -8.070  12.566  55.257  0.00  0.00    -0.048 C 
ATOM     21  H35 PRO d   1      -7.482  11.084  53.818  0.00  0.00     0.036 H 
ATOM     22  H36 PRO d   1      -9.064  11.867  53.486  0.00  0.00     0.036 H 
ATOM     23  H37 PRO d   1      -8.183  11.752  55.988  0.00  0.00     0.035 H 
ATOM     24  H38 PRO d   1      -8.889  13.289  55.383  0.00  0.00     0.035 H 
ATOM     25  H39 PRO d   1      -5.948  12.504  55.615  0.00  0.00     0.064 H 
ATOM     26  H40 PRO d   1      -6.764  13.993  56.200  0.00  0.00     0.064 H 
BRANCH  16  27
ATOM     27  C   PRO d   1      -8.289  13.969  52.217  0.00  0.00     0.241 C 
ATOM     28  O   PRO d   1      -8.502  13.678  51.039  0.00  0.00    -0.271 OA
ATOM     29  N   SER d   1      -8.863  15.011  52.812  0.00  0.00    -0.343 N 
ATOM     30  H41 SER d   1      -8.666  15.198  53.774  0.00  0.00     0.163 HD
BRANCH  29  31
ATOM     31  CA  SER d   1      -9.777  15.887  52.081  0.00  0.00     0.116 C 
ATOM     32  H42 SER d   1      -9.425  15.972  51.042  0.00  0.00     0.093 H 
BRANCH  31  33
ATOM     33  C   SER d   1      -9.791  17.273  52.709  0.00  0.00     0.198 C 
ATOM     34  OXT SER d   1     -10.485  18.159  52.167  0.00  0.00    -0.646 OA
ATOM     35  O   SER d   1      -9.105  17.452  53.738  0.00  0.00    -0.646 OA
ENDBRANCH  31  33
BRANCH  31  36
ATOM     36  CB  SER d   1     -11.199  15.310  52.073  0.00  0.00     0.045 C 
ATOM     37  H43 SER d   1     -11.150  14.245  51.802  0.00  0.00     0.077 H 
ATOM     38  H44 SER d   1     -11.800  15.851  51.327  0.00  0.00     0.077 H 
BRANCH  36  39
ATOM     39  OG  SER d   1     -11.820  15.434  53.340  0.00  0.00    -0.398 OA
ATOM     40  H45 SER d   1     -12.696  15.068  53.299  0.00  0.00     0.209 HD
ENDBRANCH  36  39
ENDBRANCH  31  36
ENDBRANCH  29  31
ENDBRANCH  16  27
ENDBRANCH  11  13
BRANCH  11  41
ATOM     41  CB  SEP d   1      -5.982  16.661  55.613  0.00  0.00     0.059 C 
ATOM     42  H32 SEP d   1      -6.886  16.174  56.008  0.00  0.00     0.079 H 
ATOM     43  H33 SEP d   1      -6.270  17.427  54.878  0.00  0.00     0.079 H 
BRANCH  41  44
ATOM     44  OG  SEP d   1      -5.285  17.278  56.677  0.00  0.00    -0.280 OA
BRANCH  44  45
ATOM     45  P   SEP d   1      -5.017  18.848  56.671  0.00  0.00     0.422 P 
ATOM     46  O3P SEP d   1      -6.331  19.526  56.783  0.00  0.00    -0.617 OA
ATOM     47  O2P SEP d   1      -4.410  19.263  55.377  0.00  0.00    -0.617 OA
ATOM     48  O1P SEP d   1      -3.939  19.053  57.657  0.00  0.00    -0.617 OA
ENDBRANCH  44  45
ENDBRANCH  41  44
ENDBRANCH  11  41
ENDBRANCH   9  11
ENDBRANCH   5   7
BRANCH   5  49
ATOM     49  CB  THR d   1      -1.980  16.579  51.817  0.00  0.00     0.060 C 
ATOM     50  H25 THR d   1      -2.647  15.837  51.353  0.00  0.00     0.086 H 
BRANCH  49  51
ATOM     51  OG1 THR d   1      -0.722  16.601  51.131  0.00  0.00    -0.393 OA
ATOM     52  H26 THR d   1      -0.863  16.831  50.220  0.00  0.00     0.210 HD
ENDBRANCH  49  51
BRANCH  49  53
ATOM     53  CG2 THR d   1      -2.601  17.960  51.713  0.00  0.00    -0.050 C 
ATOM     54  H27 THR d   1      -2.763  18.210  50.654  0.00  0.00     0.031 H 
ATOM     55  H28 THR d   1      -1.925  18.701  52.166  0.00  0.00     0.031 H 
ATOM     56  H29 THR d   1      -3.564  17.970  52.244  0.00  0.00     0.031 H 
ENDBRANCH  49  53
ENDBRANCH   5  49
ENDBRANCH   3   5
BRANCH   1  57
ATOM     57  CA  PRO d   1       1.410  14.432  54.383  0.00  0.00     0.091 C 
ATOM     58  N   PRO d   1       2.718  14.784  54.962  0.00  0.00    -0.337 N 
ATOM     59  CD  PRO d   1       3.094  13.822  56.010  0.00  0.00    -0.001 C 
ATOM     60  C   SEP d   1       3.548  15.967  54.667  0.00  0.00     0.245 C 
ATOM     61  CG  PRO d   1       1.752  13.280  56.446  0.00  0.00    -0.048 C 
ATOM     62  H21 PRO d   1       3.734  13.024  55.607  0.00  0.00     0.064 H 
ATOM     63  H22 PRO d   1       3.611  14.322  56.842  0.00  0.00     0.064 H 
ATOM     64  CB  PRO d   1       1.020  13.160  55.148  0.00  0.00    -0.036 C 
ATOM     65  H19 PRO d   1       1.858  12.301  56.936  0.00  0.00     0.035 H 
ATOM     66  H20 PRO d   1       1.243  13.978  57.127  0.00  0.00     0.035 H 
ATOM     67  H17 PRO d   1       1.340  12.261  54.601  0.00  0.00     0.036 H 
ATOM     68  H18 PRO d   1      -0.067  13.121  55.314  0.00  0.00     0.036 H 
ATOM     69  O   SEP d   1       3.041  16.860  53.999  0.00  0.00    -0.271 OA
ATOM     70  H16 PRO d   1       1.579  14.173  53.327  0.00  0.00     0.087 H 
BRANCH  60  71
ATOM     71  CA  SEP d   1       4.911  16.155  55.342  0.00  0.00     0.110 C 
ATOM     72  H13 SEP d   1       5.098  15.285  55.989  0.00  0.00     0.090 H 
BRANCH  71  73
ATOM     73  N   SEP d   1       5.893  16.138  54.270  0.00  0.00    -0.344 N 
ATOM     74  C   TYR d   1       6.194  14.920  54.642  0.00  0.00     0.249 C 
ATOM     75  O   TYR d   1       5.970  13.961  55.356  0.00  0.00    -0.271 OA
ATOM     76  H12 SEP d   1       6.201  16.774  53.563  0.00  0.00     0.163 HD
BRANCH  74  77
ATOM     77  CA  TYR d   1       7.303  14.840  53.619  0.00  0.00     0.179 C 
ATOM     78  H4  TYR d   1       7.223  15.696  52.933  0.00  0.00     0.099 H 
BRANCH  77  79
ATOM     79  CB  TYR d   1       7.118  13.530  52.814  0.00  0.00    -0.006 C 
ATOM     80  H5  TYR d   1       7.337  12.680  53.477  0.00  0.00     0.043 H 
ATOM     81  H6  TYR d   1       7.830  13.534  51.975  0.00  0.00     0.043 H 
BRANCH  79  82
ATOM     82  CG  TYR d   1       5.703  13.351  52.248  0.00  0.00    -0.056 A 
ATOM     83  CD2 TYR d   1       5.114  14.339  51.451  0.00  0.00    -0.074 A 
ATOM     84  CE2 TYR d   1       3.807  14.189  50.943  0.00  0.00    -0.051 A 
ATOM     85  H8  TYR d   1       5.674  15.238  51.219  0.00  0.00     0.084 H 
ATOM     86  CZ  TYR d   1       3.081  13.043  51.231  0.00  0.00     0.065 A 
ATOM     87  H10 TYR d   1       3.371  14.968  50.328  0.00  0.00     0.087 H 
ATOM     88  CE1 TYR d   1       3.645  12.044  52.017  0.00  0.00    -0.051 A 
ATOM     89  CD1 TYR d   1       4.952  12.203  52.521  0.00  0.00    -0.074 A 
ATOM     90  H9  TYR d   1       3.081  11.146  52.242  0.00  0.00     0.087 H 
ATOM     91  H7  TYR d   1       5.384  11.419  53.133  0.00  0.00     0.084 H 
BRANCH  86  92
ATOM     92  OH  TYR d   1       1.793  12.904  50.754  0.00  0.00    -0.361 OA
ATOM     93  H11 TYR d   1       1.193  12.821  51.486  0.00  0.00     0.217 HD
ENDBRANCH  86  92
ENDBRANCH  79  82
ENDBRANCH  77  79
BRANCH  77  94
ATOM     94  N   TYR d   1       8.641  14.888  54.282  0.00  0.00    -0.066 N 
ATOM     95  H1  TYR d   1       9.365  14.833  53.583  0.00  0.00     0.275 HD
ATOM     96  H2  TYR d   1       8.729  14.111  54.918  0.00  0.00     0.275 HD
ATOM     97  H3  TYR d   1       8.732  15.752  54.793  0.00  0.00     0.275 HD
ENDBRANCH  77  94
ENDBRANCH  74  77
ENDBRANCH  71  73
BRANCH  71  98
ATOM     98  CB  SEP d   1       4.976  17.400  56.248  0.00  0.00     0.059 C 
ATOM     99  H14 SEP d   1       3.974  17.850  56.300  0.00  0.00     0.079 H 
ATOM    100  H15 SEP d   1       5.679  18.121  55.806  0.00  0.00     0.079 H 
BRANCH  98 101
ATOM    101  OG  SEP d   1       5.418  17.088  57.603  0.00  0.00    -0.280 OA
BRANCH 101 102
ATOM    102  P   SEP d   1       4.475  17.349  58.906  0.00  0.00     0.422 P 
ATOM    103  O3P SEP d   1       3.279  16.493  58.749  0.00  0.00    -0.617 OA
ATOM    104  O2P SEP d   1       4.006  18.761  58.948  0.00  0.00    -0.617 OA
ATOM    105  O1P SEP d   1       5.346  17.261  60.120  0.00  0.00    -0.617 OA
ENDBRANCH 101 102
ENDBRANCH  98 101
ENDBRANCH  71  98
ENDBRANCH  60  71
ENDBRANCH   1  57
TORSDOF 26
