REMARK WARNING: 32 MAX_TORS EXCEEDED!!!
REMARK  45 active torsions:
REMARK  status: ('A' for Active; 'I' for Inactive)
REMARK    1  A    between atoms: N_1  and  CA_2 
REMARK    2  A    between atoms: CA_2  and  C_3 
REMARK    3  A    between atoms: CA_2  and  CB_5 
REMARK       I    between atoms: C_3  and  N_10 
REMARK    4  A    between atoms: CB_5  and  CG_6 
REMARK    5  A    between atoms: CG_6  and  CD_7 
REMARK    6  A    between atoms: CD_7  and  CE_8 
REMARK    7  A    between atoms: CE_8  and  NZ_9 
REMARK    8  A    between atoms: CA_11  and  C_12 
REMARK       I    between atoms: C_12  and  N_17 
REMARK    9  A    between atoms: N_17  and  CA_18 
REMARK   10  A    between atoms: CA_18  and  C_19 
REMARK   11  A    between atoms: CA_18  and  CB_21 
REMARK       I    between atoms: C_19  and  N_25 
REMARK   12  A    between atoms: CB_21  and  CG_22 
REMARK   13  A    between atoms: CG_22  and  CD1_23 
REMARK   14  A    between atoms: CG_22  and  CD2_24 
REMARK   15  A    between atoms: N_25  and  CA_26 
REMARK   16  A    between atoms: CA_26  and  C_27 
REMARK   17  A    between atoms: CA_26  and  CB_29 
REMARK       I    between atoms: C_27  and  N_34 
REMARK   18  A    between atoms: CB_29  and  CG_30 
REMARK   19  A    between atoms: CG_30  and  CD_31 
REMARK   20  A    between atoms: N_34  and  CA_35 
REMARK   21  A    between atoms: CA_35  and  C_36 
REMARK   22  A    between atoms: CA_35  and  CB_38 
REMARK       I    between atoms: C_36  and  N_43 
REMARK   23  A    between atoms: CB_38  and  CG_39 
REMARK   24  A    between atoms: CG_39  and  CD_40 
REMARK   25  A    between atoms: N_43  and  CA_44 
REMARK   26  A    between atoms: CA_44  and  C_45 
REMARK   27  A    between atoms: CA_44  and  CB_47 
REMARK       I    between atoms: C_45  and  N_50 
REMARK   28  A    between atoms: CB_47  and  CG1_48 
REMARK   29  A    between atoms: CB_47  and  CG2_49 
REMARK   30  A    between atoms: N_50  and  CA_51 
REMARK   31  A    between atoms: CA_51  and  C_52 
REMARK   32  A    between atoms: CA_51  and  CB_54 
REMARK       I    between atoms: C_52  and  N_58 
REMARK   33  A    between atoms: CB_54  and  CG_55 
REMARK   34  A    between atoms: CG_55  and  CD1_56 
REMARK   35  A    between atoms: CG_55  and  CD2_57 
REMARK   36  A    between atoms: N_58  and  CA_59 
REMARK   37  A    between atoms: CA_59  and  C_60 
REMARK   38  A    between atoms: CA_59  and  CB_62 
REMARK       I    between atoms: C_60  and  N_66 
REMARK   39  A    between atoms: CB_62  and  CG_63 
REMARK       I    between atoms: CG_63  and  ND2_65 
REMARK   40  A    between atoms: N_66  and  CA_67 
REMARK   41  A    between atoms: CA_67  and  C_68 
REMARK   42  A    between atoms: CA_67  and  CB_70 
REMARK   43  A    between atoms: CB_70  and  CG_71 
REMARK   44  A    between atoms: CG_71  and  CD1_72 
REMARK   45  A    between atoms: CG_71  and  CD2_73 
ROOT
ATOM      1  CA  GLU d   1      60.042  53.686 -19.794  0.00  0.00     0.090 C 
ATOM      2  H41 GLU d   1      60.315  53.258 -18.818  0.00  0.00     0.087 H 
ENDROOT
BRANCH   1   3
ATOM      3  N   GLU d   1      60.724  52.941 -20.842  0.00  0.00    -0.346 N 
ATOM      4  C   GLU d   1      60.962  51.640 -20.707  0.00  0.00     0.241 C 
ATOM      5  O   GLU d   1      60.651  51.015 -19.694  0.00  0.00    -0.271 OA
ATOM      6  H40 GLU d   1      61.017  53.413 -21.673  0.00  0.00     0.163 HD
BRANCH   4   7
ATOM      7  CA  GLU d   1      61.653  50.938 -21.882  0.00  0.00     0.090 C 
ATOM      8  H35 GLU d   1      61.367  49.876 -21.862  0.00  0.00     0.087 H 
BRANCH   7   9
ATOM      9  N   GLU d   1      61.246  51.490 -23.169  0.00  0.00    -0.346 N 
ATOM     10  C   LEU d   1      59.963  51.642 -23.474  0.00  0.00     0.241 C 
ATOM     11  O   LEU d   1      59.054  51.323 -22.711  0.00  0.00    -0.271 OA
ATOM     12  H34 GLU d   1      61.945  51.758 -23.832  0.00  0.00     0.163 HD
BRANCH  10  13
ATOM     13  CA  LEU d   1      59.648  52.241 -24.835  0.00  0.00     0.089 C 
ATOM     14  H24 LEU d   1      58.631  52.659 -24.797  0.00  0.00     0.087 H 
BRANCH  13  15
ATOM     15  N   LEU d   1      60.567  53.319 -25.182  0.00  0.00    -0.346 N 
ATOM     16  C   PRO d   1      60.619  54.456 -24.494  0.00  0.00     0.241 C 
ATOM     17  O   PRO d   1      59.908  54.679 -23.523  0.00  0.00    -0.271 OA
ATOM     18  H23 LEU d   1      61.179  53.199 -25.964  0.00  0.00     0.163 HD
BRANCH  16  19
ATOM     19  CA  PRO d   1      61.634  55.489 -24.977  0.00  0.00     0.091 C 
ATOM     20  N   PRO d   1      61.276  56.886 -24.702  0.00  0.00    -0.337 N 
ATOM     21  C   LYS d   1      60.039  57.398 -24.854  0.00  0.00     0.251 C 
ATOM     22  CD  PRO d   1      62.433  57.614 -24.155  0.00  0.00    -0.001 C 
ATOM     23  O   LYS d   1      59.090  56.705 -25.231  0.00  0.00    -0.271 OA
ATOM     24  CG  PRO d   1      63.581  56.679 -24.469  0.00  0.00    -0.048 C 
ATOM     25  H21 PRO d   1      62.330  57.768 -23.071  0.00  0.00     0.064 H 
ATOM     26  H22 PRO d   1      62.564  58.586 -24.653  0.00  0.00     0.064 H 
ATOM     27  CB  PRO d   1      62.984  55.341 -24.282  0.00  0.00    -0.036 C 
ATOM     28  H19 PRO d   1      63.929  56.815 -25.503  0.00  0.00     0.035 H 
ATOM     29  H20 PRO d   1      64.420  56.837 -23.776  0.00  0.00     0.035 H 
ATOM     30  H17 PRO d   1      63.595  54.562 -24.760  0.00  0.00     0.036 H 
ATOM     31  H18 PRO d   1      62.859  55.106 -23.215  0.00  0.00     0.036 H 
ATOM     32  H16 PRO d   1      61.755  55.352 -26.062  0.00  0.00     0.087 H 
BRANCH  21  33
ATOM     33  CA  LYS d   1      59.846  58.887 -24.523  0.00  0.00     0.176 C 
ATOM     34  H4  LYS d   1      60.841  59.330 -24.369  0.00  0.00     0.099 H 
BRANCH  33  35
ATOM     35  N   LYS d   1      59.168  59.648 -25.625  0.00  0.00    -0.067 N 
ATOM     36  H1  LYS d   1      59.068  60.614 -25.354  0.00  0.00     0.275 HD
ATOM     37  H2  LYS d   1      58.257  59.251 -25.796  0.00  0.00     0.275 HD
ATOM     38  H3  LYS d   1      59.723  59.590 -26.464  0.00  0.00     0.275 HD
ENDBRANCH  33  35
BRANCH  33  39
ATOM     39  CB  LYS d   1      59.043  59.033 -23.228  0.00  0.00    -0.030 C 
ATOM     40  H5  LYS d   1      58.179  58.355 -23.283  0.00  0.00     0.036 H 
ATOM     41  H6  LYS d   1      58.690  60.072 -23.160  0.00  0.00     0.036 H 
BRANCH  39  42
ATOM     42  CG  LYS d   1      59.818  58.711 -21.955  0.00  0.00    -0.061 C 
ATOM     43  H7  LYS d   1      60.869  59.006 -22.088  0.00  0.00     0.033 H 
ATOM     44  H8  LYS d   1      59.763  57.629 -21.763  0.00  0.00     0.033 H 
BRANCH  42  45
ATOM     45  CD  LYS d   1      59.234  59.463 -20.758  0.00  0.00    -0.043 C 
ATOM     46  H9  LYS d   1      58.194  59.139 -20.607  0.00  0.00     0.035 H 
ATOM     47  H10 LYS d   1      59.255  60.542 -20.970  0.00  0.00     0.035 H 
BRANCH  45  48
ATOM     48  CE  LYS d   1      60.024  59.195 -19.484  0.00  0.00     0.080 C 
ATOM     49  H11 LYS d   1      61.095  59.307 -19.707  0.00  0.00     0.075 H 
ATOM     50  H12 LYS d   1      59.823  58.163 -19.160  0.00  0.00     0.075 H 
BRANCH  48  51
ATOM     51  NZ  LYS d   1      59.673  60.122 -18.363  0.00  0.00    -0.079 N 
ATOM     52  H13 LYS d   1      60.227  59.894 -17.552  0.00  0.00     0.274 HD
ATOM     53  H14 LYS d   1      58.695  60.024 -18.140  0.00  0.00     0.274 HD
ATOM     54  H15 LYS d   1      59.860  61.072 -18.642  0.00  0.00     0.274 HD
ENDBRANCH  48  51
ENDBRANCH  45  48
ENDBRANCH  42  45
ENDBRANCH  39  42
ENDBRANCH  33  39
ENDBRANCH  21  33
ENDBRANCH  16  19
ENDBRANCH  13  15
BRANCH  13  55
ATOM     55  CB  LEU d   1      59.684  51.151 -25.910  0.00  0.00    -0.035 C 
ATOM     56  H25 LEU d   1      59.211  50.247 -25.500  0.00  0.00     0.037 H 
ATOM     57  H26 LEU d   1      60.736  50.938 -26.150  0.00  0.00     0.037 H 
BRANCH  55  58
ATOM     58  CG  LEU d   1      58.964  51.524 -27.204  0.00  0.00    -0.059 C 
ATOM     59  H27 LEU d   1      59.386  52.462 -27.593  0.00  0.00     0.038 H 
BRANCH  58  60
ATOM     60  CD1 LEU d   1      59.138  50.445 -28.252  0.00  0.00    -0.073 C 
ATOM     61  H28 LEU d   1      58.611  50.739 -29.172  0.00  0.00     0.028 H 
ATOM     62  H29 LEU d   1      58.721  49.499 -27.877  0.00  0.00     0.028 H 
ATOM     63  H30 LEU d   1      60.208  50.314 -28.469  0.00  0.00     0.028 H 
ENDBRANCH  58  60
BRANCH  58  64
ATOM     64  CD2 LEU d   1      57.496  51.732 -26.886  0.00  0.00    -0.073 C 
ATOM     65  H31 LEU d   1      57.394  52.519 -26.124  0.00  0.00     0.028 H 
ATOM     66  H32 LEU d   1      57.067  50.794 -26.504  0.00  0.00     0.028 H 
ATOM     67  H33 LEU d   1      56.962  52.035 -27.799  0.00  0.00     0.028 H 
ENDBRANCH  58  64
ENDBRANCH  55  58
ENDBRANCH  13  55
ENDBRANCH  10  13
ENDBRANCH   7   9
BRANCH   7  68
ATOM     68  CB  GLU d   1      63.159  51.035 -21.722  0.00  0.00    -0.029 C 
ATOM     69  H36 GLU d   1      63.477  52.054 -21.986  0.00  0.00     0.037 H 
ATOM     70  H37 GLU d   1      63.633  50.315 -22.405  0.00  0.00     0.037 H 
BRANCH  68  71
ATOM     71  CG  GLU d   1      63.605  50.740 -20.330  0.00  0.00     0.018 C 
ATOM     72  H38 GLU d   1      62.812  50.176 -19.817  0.00  0.00     0.049 H 
ATOM     73  H39 GLU d   1      63.777  51.691 -19.805  0.00  0.00     0.049 H 
BRANCH  71  74
ATOM     74  CD  GLU d   1      64.870  49.934 -20.291  0.00  0.00     0.172 C 
ATOM     75  OE1 GLU d   1      65.863  50.358 -20.915  0.00  0.00    -0.648 OA
ATOM     76  OE2 GLU d   1      64.865  48.874 -19.632  0.00  0.00    -0.648 OA
ENDBRANCH  71  74
ENDBRANCH  68  71
ENDBRANCH   7  68
ENDBRANCH   4   7
ENDBRANCH   1   3
BRANCH   1  77
ATOM     77  C   GLU d   1      58.545  53.569 -19.989  0.00  0.00     0.241 C 
ATOM     78  O   GLU d   1      57.824  53.185 -19.072  0.00  0.00    -0.271 OA
ATOM     79  N   VAL d   1      58.084  53.894 -21.191  0.00  0.00    -0.346 N 
ATOM     80  H46 VAL d   1      58.728  54.198 -21.893  0.00  0.00     0.163 HD
BRANCH  79  81
ATOM     81  CA  VAL d   1      56.665  53.820 -21.514  0.00  0.00     0.092 C 
ATOM     82  H47 VAL d   1      56.154  54.644 -20.995  0.00  0.00     0.088 H 
BRANCH  81  83
ATOM     83  C   VAL d   1      56.052  52.504 -21.063  0.00  0.00     0.241 C 
ATOM     84  O   VAL d   1      54.983  52.491 -20.462  0.00  0.00    -0.271 OA
ATOM     85  N   LEU d   1      56.736  51.399 -21.337  0.00  0.00    -0.346 N 
ATOM     86  H55 LEU d   1      57.621  51.472 -21.797  0.00  0.00     0.163 HD
BRANCH  85  87
ATOM     87  CA  LEU d   1      56.223  50.079 -20.981  0.00  0.00     0.089 C 
ATOM     88  H56 LEU d   1      55.155  50.073 -21.244  0.00  0.00     0.087 H 
BRANCH  87  89
ATOM     89  C   LEU d   1      56.312  49.713 -19.502  0.00  0.00     0.241 C 
ATOM     90  O   LEU d   1      55.726  48.720 -19.066  0.00  0.00    -0.271 OA
ATOM     91  N   ASN d   1      57.035  50.515 -18.729  0.00  0.00    -0.346 N 
ATOM     92  H66 ASN d   1      57.483  51.313 -19.132  0.00  0.00     0.163 HD
BRANCH  91  93
ATOM     93  CA  ASN d   1      57.187  50.253 -17.301  0.00  0.00     0.097 C 
ATOM     94  H67 ASN d   1      56.509  49.431 -17.026  0.00  0.00     0.088 H 
BRANCH  93  95
ATOM     95  C   ASN d   1      56.825  51.474 -16.460  0.00  0.00     0.241 C 
ATOM     96  O   ASN d   1      57.584  51.888 -15.582  0.00  0.00    -0.271 OA
ATOM     97  N   LEU d   1      55.652  52.038 -16.730  0.00  0.00    -0.345 N 
ATOM     98  H72 LEU d   1      55.074  51.640 -17.442  0.00  0.00     0.163 HD
BRANCH  97  99
ATOM     99  CA  LEU d   1      55.185  53.222 -16.017  0.00  0.00     0.096 C 
ATOM    100  H73 LEU d   1      55.527  53.170 -14.973  0.00  0.00     0.089 H 
BRANCH  99 101
ATOM    101  C   LEU d   1      53.659  53.283 -16.035  0.00  0.00     0.196 C 
ATOM    102  O   LEU d   1      53.106  54.295 -16.524  0.00  0.00    -0.646 OA
ATOM    103  OXT LEU d   1      53.036  52.310 -15.557  0.00  0.00    -0.646 OA
ENDBRANCH  99 101
BRANCH  99 104
ATOM    104  CB  LEU d   1      55.769  54.478 -16.673  0.00  0.00    -0.034 C 
ATOM    105  H74 LEU d   1      55.350  54.531 -17.689  0.00  0.00     0.037 H 
ATOM    106  H75 LEU d   1      56.857  54.330 -16.732  0.00  0.00     0.037 H 
BRANCH 104 107
ATOM    107  CG  LEU d   1      55.542  55.846 -16.028  0.00  0.00    -0.059 C 
ATOM    108  H76 LEU d   1      54.461  56.030 -15.942  0.00  0.00     0.038 H 
BRANCH 107 109
ATOM    109  CD1 LEU d   1      56.158  55.875 -14.634  0.00  0.00    -0.073 C 
ATOM    110  H77 LEU d   1      55.989  56.862 -14.179  0.00  0.00     0.028 H 
ATOM    111  H78 LEU d   1      57.239  55.685 -14.707  0.00  0.00     0.028 H 
ATOM    112  H79 LEU d   1      55.690  55.099 -14.010  0.00  0.00     0.028 H 
ENDBRANCH 107 109
BRANCH 107 113
ATOM    113  CD2 LEU d   1      56.160  56.922 -16.915  0.00  0.00    -0.073 C 
ATOM    114  H80 LEU d   1      55.701  56.882 -17.914  0.00  0.00     0.028 H 
ATOM    115  H81 LEU d   1      57.243  56.748 -17.002  0.00  0.00     0.028 H 
ATOM    116  H82 LEU d   1      55.982  57.912 -16.469  0.00  0.00     0.028 H 
ENDBRANCH 107 113
ENDBRANCH 104 107
ENDBRANCH  99 104
ENDBRANCH  97  99
ENDBRANCH  93  95
BRANCH  93 117
ATOM    117  CB  ASN d   1      58.625  49.822 -17.002  0.00  0.00     0.036 C 
ATOM    118  H68 ASN d   1      58.734  49.688 -15.916  0.00  0.00     0.051 H 
ATOM    119  H69 ASN d   1      59.309  50.613 -17.345  0.00  0.00     0.051 H 
BRANCH 117 120
ATOM    120  CG  ASN d   1      58.999  48.524 -17.691  0.00  0.00     0.217 C 
ATOM    121  OD1 ASN d   1      58.380  47.482 -17.461  0.00  0.00    -0.274 OA
ATOM    122  ND2 ASN d   1      60.017  48.580 -18.542  0.00  0.00    -0.370 N 
ATOM    123  H70 ASN d   1      60.310  47.756 -19.026  0.00  0.00     0.159 HD
ATOM    124  H71 ASN d   1      60.491  49.447 -18.698  0.00  0.00     0.159 HD
ENDBRANCH 117 120
ENDBRANCH  93 117
ENDBRANCH  91  93
ENDBRANCH  87  89
BRANCH  87 125
ATOM    125  CB  LEU d   1      56.921  49.005 -21.824  0.00  0.00    -0.035 C 
ATOM    126  H57 LEU d   1      56.614  48.023 -21.436  0.00  0.00     0.037 H 
ATOM    127  H58 LEU d   1      58.006  49.129 -21.691  0.00  0.00     0.037 H 
BRANCH 125 128
ATOM    128  CG  LEU d   1      56.630  49.022 -23.335  0.00  0.00    -0.059 C 
ATOM    129  H59 LEU d   1      56.860  50.023 -23.729  0.00  0.00     0.038 H 
BRANCH 128 130
ATOM    130  CD1 LEU d   1      57.528  48.009 -24.020  0.00  0.00    -0.073 C 
ATOM    131  H60 LEU d   1      57.328  48.014 -25.102  0.00  0.00     0.028 H 
ATOM    132  H61 LEU d   1      57.327  47.007 -23.614  0.00  0.00     0.028 H 
ATOM    133  H62 LEU d   1      58.581  48.272 -23.841  0.00  0.00     0.028 H 
ENDBRANCH 128 130
BRANCH 128 134
ATOM    134  CD2 LEU d   1      55.155  48.720 -23.613  0.00  0.00    -0.073 C 
ATOM    135  H63 LEU d   1      54.526  49.467 -23.107  0.00  0.00     0.028 H 
ATOM    136  H64 LEU d   1      54.909  47.717 -23.235  0.00  0.00     0.028 H 
ATOM    137  H65 LEU d   1      54.971  48.760 -24.697  0.00  0.00     0.028 H 
ENDBRANCH 128 134
ENDBRANCH 125 128
ENDBRANCH  87 125
ENDBRANCH  85  87
ENDBRANCH  81  83
BRANCH  81 138
ATOM    138  CB  VAL d   1      56.425  53.964 -23.034  0.00  0.00    -0.033 C 
ATOM    139  H48 VAL d   1      57.013  53.198 -23.561  0.00  0.00     0.042 H 
BRANCH 138 140
ATOM    140  CG1 VAL d   1      54.958  53.759 -23.350  0.00  0.00    -0.071 C 
ATOM    141  H49 VAL d   1      54.798  53.864 -24.433  0.00  0.00     0.028 H 
ATOM    142  H50 VAL d   1      54.359  54.512 -22.817  0.00  0.00     0.028 H 
ATOM    143  H51 VAL d   1      54.651  52.752 -23.029  0.00  0.00     0.028 H 
ENDBRANCH 138 140
BRANCH 138 144
ATOM    144  CG2 VAL d   1      56.872  55.335 -23.504  0.00  0.00    -0.071 C 
ATOM    145  H52 VAL d   1      57.938  55.473 -23.270  0.00  0.00     0.028 H 
ATOM    146  H53 VAL d   1      56.281  56.109 -22.992  0.00  0.00     0.028 H 
ATOM    147  H54 VAL d   1      56.722  55.417 -24.591  0.00  0.00     0.028 H 
ENDBRANCH 138 144
ENDBRANCH  81 138
ENDBRANCH  79  81
ENDBRANCH   1  77
BRANCH   1 148
ATOM    148  CB  GLU d   1      60.442  55.157 -19.815  0.00  0.00    -0.029 C 
ATOM    149  H42 GLU d   1      59.709  55.726 -19.224  0.00  0.00     0.037 H 
ATOM    150  H43 GLU d   1      60.425  55.508 -20.857  0.00  0.00     0.037 H 
BRANCH 148 151
ATOM    151  CG  GLU d   1      61.817  55.412 -19.247  0.00  0.00     0.018 C 
ATOM    152  H44 GLU d   1      62.563  54.928 -19.895  0.00  0.00     0.049 H 
ATOM    153  H45 GLU d   1      61.870  54.977 -18.238  0.00  0.00     0.049 H 
BRANCH 151 154
ATOM    154  CD  GLU d   1      62.132  56.880 -19.158  0.00  0.00     0.172 C 
ATOM    155  OE1 GLU d   1      62.105  57.557 -20.205  0.00  0.00    -0.648 OA
ATOM    156  OE2 GLU d   1      62.408  57.359 -18.041  0.00  0.00    -0.648 OA
ENDBRANCH 151 154
ENDBRANCH 148 151
ENDBRANCH   1 148
TORSDOF 45
