REMARK  20 active torsions:
REMARK  status: ('A' for Active; 'I' for Inactive)
REMARK    1  A    between atoms: CA_2  and  N_1 
REMARK    2  A    between atoms: N_1  and  S_30 
REMARK    3  A    between atoms: CB_5  and  CA_2 
REMARK    4  A    between atoms: CA_2  and  C_14 
REMARK    5  A    between atoms: CE1_8  and  CX_3 
REMARK    6  A    between atoms: CX_3  and  NX1_12 
REMARK    7  A    between atoms: CB_5  and  CG1_6 
REMARK       I    between atoms: C_14  and  N1_33 
REMARK    8  A    between atoms: S_30  and  C6_15 
REMARK    9  A    between atoms: C7_16  and  C12_21 
REMARK   10  A    between atoms: C9_18  and  C18_27 
REMARK   11  A    between atoms: C11_20  and  C15_24 
REMARK   12  A    between atoms: C12_21  and  C13_22 
REMARK   13  A    between atoms: C12_21  and  C14_23 
REMARK   14  A    between atoms: C15_24  and  C16_25 
REMARK   15  A    between atoms: C15_24  and  C17_26 
REMARK   16  A    between atoms: C18_27  and  C19_28 
REMARK   17  A    between atoms: C18_27  and  C20_29 
REMARK       I    between atoms: N2_36  and  C21_39 
REMARK   18  A    between atoms: C21_39  and  C22_41 
REMARK   19  A    between atoms: C22_41  and  C23_42 
REMARK   20  A    between atoms: C23_42  and  N24_43 
ROOT
ATOM      1  CA  UKP d   1      30.207   9.932  28.007  0.00  0.00     0.101 C 
ATOM      2  H2  UKP d   1      29.806  10.868  27.591  0.00  0.00     0.089 H 
ENDROOT
BRANCH   1   3
ATOM      3  N   UKP d   1      31.659   9.996  27.990  0.00  0.00    -0.301 N 
ATOM      4  H1  UKP d   1      32.185   9.264  28.423  0.00  0.00     0.173 HD
BRANCH   3   5
ATOM      5  S   UKP d   1      32.454  11.236  27.280  0.00  0.00     0.260 S 
ATOM      6  OS1 UKP d   1      33.846  11.191  27.699  0.00  0.00    -0.200 OA
ATOM      7  OS2 UKP d   1      32.222  11.140  25.853  0.00  0.00    -0.200 OA
BRANCH   5   8
ATOM      8  C6  UKP d   1      31.590  12.637  28.080  0.00  0.00     0.092 A 
ATOM      9  C7  UKP d   1      31.750  12.813  29.482  0.00  0.00    -0.030 A 
ATOM     10  C8  UKP d   1      31.093  13.877  30.131  0.00  0.00    -0.069 A 
ATOM     11  C9  UKP d   1      30.275  14.777  29.433  0.00  0.00    -0.054 A 
ATOM     12  H13 UKP d   1      31.224  14.003  31.200  0.00  0.00     0.085 H 
ATOM     13  C10 UKP d   1      30.124  14.595  28.048  0.00  0.00    -0.069 A 
ATOM     14  C11 UKP d   1      30.761  13.546  27.351  0.00  0.00    -0.030 A 
ATOM     15  H14 UKP d   1      29.496  15.284  27.495  0.00  0.00     0.085 H 
BRANCH   9  16
ATOM     16  C12 UKP d   1      32.630  11.878  30.360  0.00  0.00    -0.034 C 
ATOM     17  H15 UKP d   1      32.837  10.977  29.764  0.00  0.00     0.046 H 
BRANCH  16  18
ATOM     18  C13 UKP d   1      32.008  11.398  31.711  0.00  0.00    -0.069 C 
ATOM     19  H16 UKP d   1      32.725  10.748  32.234  0.00  0.00     0.028 H 
ATOM     20  H17 UKP d   1      31.083  10.838  31.510  0.00  0.00     0.028 H 
ATOM     21  H18 UKP d   1      31.779  12.271  32.340  0.00  0.00     0.028 H 
ENDBRANCH  16  18
BRANCH  16  22
ATOM     22  C14 UKP d   1      33.970  12.597  30.648  0.00  0.00    -0.069 C 
ATOM     23  H19 UKP d   1      34.414  12.938  29.701  0.00  0.00     0.028 H 
ATOM     24  H20 UKP d   1      34.660  11.900  31.147  0.00  0.00     0.028 H 
ATOM     25  H21 UKP d   1      33.788  13.464  31.301  0.00  0.00     0.028 H 
ENDBRANCH  16  22
ENDBRANCH   9  16
BRANCH  11  26
ATOM     26  C18 UKP d   1      29.563  15.934  30.164  0.00  0.00    -0.036 C 
ATOM     27  H29 UKP d   1      29.313  16.712  29.428  0.00  0.00     0.046 H 
BRANCH  26  28
ATOM     28  C19 UKP d   1      30.499  16.552  31.236  0.00  0.00    -0.069 C 
ATOM     29  H30 UKP d   1      29.978  17.374  31.748  0.00  0.00     0.028 H 
ATOM     30  H31 UKP d   1      31.407  16.939  30.751  0.00  0.00     0.028 H 
ATOM     31  H32 UKP d   1      30.776  15.781  31.970  0.00  0.00     0.028 H 
ENDBRANCH  26  28
BRANCH  26  32
ATOM     32  C20 UKP d   1      28.244  15.427  30.815  0.00  0.00    -0.069 C 
ATOM     33  H33 UKP d   1      27.596  14.993  30.040  0.00  0.00     0.028 H 
ATOM     34  H34 UKP d   1      27.726  16.269  31.297  0.00  0.00     0.028 H 
ATOM     35  H35 UKP d   1      28.478  14.660  31.568  0.00  0.00     0.028 H 
ENDBRANCH  26  32
ENDBRANCH  11  26
BRANCH  14  36
ATOM     36  C15 UKP d   1      30.499  13.463  25.813  0.00  0.00    -0.034 C 
ATOM     37  H22 UKP d   1      30.280  12.411  25.577  0.00  0.00     0.046 H 
BRANCH  36  38
ATOM     38  C16 UKP d   1      29.299  14.309  25.288  0.00  0.00    -0.069 C 
ATOM     39  H23 UKP d   1      29.206  14.178  24.200  0.00  0.00     0.028 H 
ATOM     40  H24 UKP d   1      29.472  15.371  25.515  0.00  0.00     0.028 H 
ATOM     41  H25 UKP d   1      28.373  13.975  25.778  0.00  0.00     0.028 H 
ENDBRANCH  36  38
BRANCH  36  42
ATOM     42  C17 UKP d   1      31.796  13.874  25.061  0.00  0.00    -0.069 C 
ATOM     43  H26 UKP d   1      32.641  13.276  25.433  0.00  0.00     0.028 H 
ATOM     44  H27 UKP d   1      31.998  14.941  25.235  0.00  0.00     0.028 H 
ATOM     45  H28 UKP d   1      31.667  13.696  23.983  0.00  0.00     0.028 H 
ENDBRANCH  36  42
ENDBRANCH  14  36
ENDBRANCH   5   8
ENDBRANCH   3   5
ENDBRANCH   1   3
BRANCH   1  46
ATOM     46  CB  UKP d   1      29.754   8.756  27.109  0.00  0.00    -0.013 C 
ATOM     47  H3  UKP d   1      30.249   8.860  26.132  0.00  0.00     0.043 H 
ATOM     48  H4  UKP d   1      28.664   8.824  26.977  0.00  0.00     0.043 H 
BRANCH  46  49
ATOM     49  CG1 UKP d   1      30.148   7.090  27.778  0.00  0.00    -0.055 A 
ATOM     50  CD1 UKP d   1      31.282   6.316  27.473  0.00  0.00    -0.063 A 
ATOM     51  CE1 UKP d   1      31.495   5.029  28.062  0.00  0.00     0.007 A 
ATOM     52  H5  UKP d   1      32.014   6.704  26.774  0.00  0.00     0.085 H 
ATOM     53  CZ  UKP d   1      30.489   4.581  28.977  0.00  0.00    -0.069 A 
ATOM     54  CE2 UKP d   1      29.358   5.359  29.278  0.00  0.00    -0.082 A 
ATOM     55  H6  UKP d   1      30.603   3.613  29.452  0.00  0.00     0.085 H 
ATOM     56  CD2 UKP d   1      29.197   6.599  28.678  0.00  0.00    -0.077 A 
ATOM     57  H7  UKP d   1      28.615   4.992  29.976  0.00  0.00     0.083 H 
ATOM     58  H8  UKP d   1      28.322   7.196  28.910  0.00  0.00     0.084 H 
BRANCH  51  59
ATOM     59  CX  UKP d   1      32.628   4.232  27.764  0.00  0.00     0.102 C 
ATOM     60  NX2 UKP d   1      33.807   4.663  27.420  0.00  0.00    -0.385 N 
ATOM     61  H11 UKP d   1      33.986   5.675  27.353  0.00  0.00     0.157 HD
ATOM     62  H12 UKP d   1      34.561   3.992  27.215  0.00  0.00     0.157 HD
BRANCH  59  63
ATOM     63  NX1 UKP d   1      32.590   2.990  27.794  0.00  0.00    -0.385 N 
ATOM     64  H9  UKP d   1      33.434   2.443  27.571  0.00  0.00     0.157 HD
ATOM     65  H10 UKP d   1      31.714   2.507  28.042  0.00  0.00     0.157 HD
ENDBRANCH  59  63
ENDBRANCH  51  59
ENDBRANCH  46  49
ENDBRANCH   1  46
BRANCH   1  66
ATOM     66  C   UKP d   1      29.684   9.780  29.437  0.00  0.00     0.243 C 
ATOM     67  O   UKP d   1      30.399   9.098  30.177  0.00  0.00    -0.271 OA
ATOM     68  N1  UKP d   1      28.506  10.352  29.897  0.00  0.00    -0.347 N 
ATOM     69  C1  UKP d   1      28.102  10.131  31.292  0.00  0.00     0.013 C 
ATOM     70  C5  UKP d   1      27.305  10.974  29.081  0.00  0.00     0.013 C 
ATOM     71  C2  UKP d   1      27.885  11.542  31.880  0.00  0.00     0.013 C 
ATOM     72  H36 UKP d   1      28.893   9.601  31.843  0.00  0.00     0.066 H 
ATOM     73  H37 UKP d   1      27.171   9.548  31.336  0.00  0.00     0.066 H 
ATOM     74  N2  UKP d   1      26.697  12.114  31.238  0.00  0.00    -0.349 N 
ATOM     75  H38 UKP d   1      28.762  12.173  31.674  0.00  0.00     0.066 H 
ATOM     76  H39 UKP d   1      27.728  11.475  32.967  0.00  0.00     0.066 H 
ATOM     77  C4  UKP d   1      26.993  12.182  29.722  0.00  0.00     0.013 C 
ATOM     78  C21 UKP d   1      25.831  12.919  31.934  0.00  0.00     0.221 C 
ATOM     79  H40 UKP d   1      27.845  12.863  29.580  0.00  0.00     0.066 H 
ATOM     80  H41 UKP d   1      26.103  12.600  29.228  0.00  0.00     0.066 H 
ATOM     81  O1  UKP d   1      25.031  13.661  31.374  0.00  0.00    -0.273 OA
ATOM     82  H42 UKP d   1      26.439  10.296  29.098  0.00  0.00     0.066 H 
ATOM     83  H43 UKP d   1      27.605  11.160  28.039  0.00  0.00     0.066 H 
BRANCH  78  84
ATOM     84  C22 UKP d   1      25.787  12.963  33.455  0.00  0.00     0.032 C 
ATOM     85  H44 UKP d   1      26.783  13.242  33.829  0.00  0.00     0.049 H 
ATOM     86  H45 UKP d   1      25.522  11.963  33.829  0.00  0.00     0.049 H 
BRANCH  84  87
ATOM     87  C23 UKP d   1      24.745  13.991  33.994  0.00  0.00     0.087 C 
ATOM     88  H46 UKP d   1      23.737  13.561  33.904  0.00  0.00     0.075 H 
ATOM     89  H47 UKP d   1      24.806  14.912  33.395  0.00  0.00     0.075 H 
BRANCH  87  90
ATOM     90  N24 UKP d   1      25.005  14.321  35.417  0.00  0.00    -0.079 N 
ATOM     91  H48 UKP d   1      24.319  14.986  35.739  0.00  0.00     0.274 HD
ATOM     92  H49 UKP d   1      25.926  14.720  35.507  0.00  0.00     0.274 HD
ATOM     93  H50 UKP d   1      24.947  13.482  35.973  0.00  0.00     0.274 HD
ENDBRANCH  87  90
ENDBRANCH  84  87
ENDBRANCH  78  84
ENDBRANCH   1  66
TORSDOF 20
