REMARK  21 active torsions:
REMARK  status: ('A' for Active; 'I' for Inactive)
REMARK    1  A    between atoms: C1_1  and  O2_3 
REMARK       I    between atoms: C1_1  and  N_11 
REMARK    2  A    between atoms: O2_3  and  C2_4 
REMARK    3  A    between atoms: C2_4  and  C3_5 
REMARK    4  A    between atoms: N_11  and  CA_12 
REMARK    5  A    between atoms: CA_12  and  C_13 
REMARK    6  A    between atoms: CA_12  and  CB_15 
REMARK    7  A    between atoms: C_13  and  CG_16 
REMARK       I    between atoms: CB_15  and  N_19 
REMARK    8  A    between atoms: N_19  and  CA_20 
REMARK    9  A    between atoms: CA_20  and  C_21 
REMARK   10  A    between atoms: CA_20  and  CB_23 
REMARK       I    between atoms: C_21  and  N_28 
REMARK   11  A    between atoms: CB_23  and  CG_24 
REMARK   12  A    between atoms: CG_24  and  CD_25 
REMARK   13  A    between atoms: N_28  and  CA_29 
REMARK   14  A    between atoms: CA_29  and  C_30 
REMARK   15  A    between atoms: CA_29  and  CB_32 
REMARK       I    between atoms: C_30  and  N_35 
REMARK   16  A    between atoms: CB_32  and  CG1_33 
REMARK   17  A    between atoms: CB_32  and  CG2_34 
REMARK   18  A    between atoms: N_35  and  CA_36 
REMARK   19  A    between atoms: CA_36  and  C_37 
REMARK   20  A    between atoms: CA_36  and  CB_39 
REMARK   21  A    between atoms: CB_39  and  CG_40 
ROOT
ATOM      1  CA  GLU d   1      43.430  75.813  14.591  0.00  0.00     0.090 C 
ATOM      2  H13 GLU d   1      44.376  76.194  15.003  0.00  0.00     0.087 H 
ENDROOT
BRANCH   1   3
ATOM      3  N   GLU d   1      43.726  74.872  13.462  0.00  0.00    -0.346 N 
ATOM      4  CB  ASP d   1      44.785  74.942  12.671  0.00  0.00     0.241 C 
ATOM      5  O   ASP d   1      45.629  75.859  12.757  0.00  0.00    -0.271 OA
ATOM      6  H12 GLU d   1      43.072  74.134  13.293  0.00  0.00     0.163 HD
BRANCH   4   7
ATOM      7  CA  ASP d   1      44.832  73.913  11.486  0.00  0.00     0.100 C 
ATOM      8  H9  ASP d   1      45.860  73.544  11.354  0.00  0.00     0.088 H 
BRANCH   7   9
ATOM      9  N   ASP d   1      44.492  74.811  10.426  0.00  0.00    -0.323 N 
ATOM     10  C1  PHQ d   1      45.278  75.066   9.463  0.00  0.00     0.361 C 
ATOM     11  O1  PHQ d   1      46.397  74.528   9.324  0.00  0.00    -0.238 OA
ATOM     12  H8  ASP d   1      43.597  75.257  10.445  0.00  0.00     0.165 HD
BRANCH  10  13
ATOM     13  O2  PHQ d   1      44.762  76.036   8.614  0.00  0.00    -0.299 OA
BRANCH  13  14
ATOM     14  C2  PHQ d   1      45.434  76.538   7.450  0.00  0.00     0.054 C 
ATOM     15  H1  PHQ d   1      45.575  75.748   6.697  0.00  0.00     0.082 H 
ATOM     16  H2  PHQ d   1      46.409  76.977   7.709  0.00  0.00     0.082 H 
BRANCH  14  17
ATOM     17  C3  PHQ d   1      44.479  77.580   6.971  0.00  0.00    -0.034 A 
ATOM     18  C4  PHQ d   1      44.512  78.906   7.547  0.00  0.00    -0.075 A 
ATOM     19  C5  PHQ d   1      43.572  79.909   7.103  0.00  0.00    -0.082 A 
ATOM     20  H3  PHQ d   1      45.242  79.147   8.312  0.00  0.00     0.084 H 
ATOM     21  C6  PHQ d   1      42.587  79.600   6.082  0.00  0.00    -0.083 A 
ATOM     22  H4  PHQ d   1      43.602  80.902   7.536  0.00  0.00     0.083 H 
ATOM     23  C7  PHQ d   1      42.541  78.273   5.498  0.00  0.00    -0.082 A 
ATOM     24  H5  PHQ d   1      41.886  80.361   5.756  0.00  0.00     0.083 H 
ATOM     25  C8  PHQ d   1      43.487  77.266   5.948  0.00  0.00    -0.075 A 
ATOM     26  H6  PHQ d   1      41.809  78.035   4.734  0.00  0.00     0.083 H 
ATOM     27  H7  PHQ d   1      43.455  76.271   5.519  0.00  0.00     0.084 H 
ENDBRANCH  14  17
ENDBRANCH  13  14
ENDBRANCH  10  13
ENDBRANCH   7   9
BRANCH   7  28
ATOM     28  C   ASP d   1      43.949  72.690  11.607  0.00  0.00     0.043 C 
ATOM     29  H10 ASP d   1      42.902  73.025  11.640  0.00  0.00     0.052 H 
ATOM     30  H11 ASP d   1      44.200  72.178  12.547  0.00  0.00     0.052 H 
BRANCH  28  31
ATOM     31  CG  ASP d   1      44.091  71.682  10.462  0.00  0.00     0.175 C 
ATOM     32  OD1 ASP d   1      45.238  71.061  10.285  0.00  0.00    -0.648 OA
ATOM     33  OD2 ASP d   1      43.077  71.430   9.689  0.00  0.00    -0.648 OA
ENDBRANCH  28  31
ENDBRANCH   7  28
ENDBRANCH   4   7
ENDBRANCH   1   3
BRANCH   1  34
ATOM     34  C   GLU d   1      42.669  75.002  15.672  0.00  0.00     0.241 C 
ATOM     35  O   GLU d   1      41.818  74.137  15.360  0.00  0.00    -0.271 OA
ATOM     36  N   VAL d   1      42.986  75.265  16.938  0.00  0.00    -0.346 N 
ATOM     37  H18 VAL d   1      43.671  75.966  17.138  0.00  0.00     0.163 HD
BRANCH  36  38
ATOM     38  CA  VAL d   1      42.338  74.534  18.061  0.00  0.00     0.092 C 
ATOM     39  H19 VAL d   1      41.979  73.566  17.681  0.00  0.00     0.088 H 
BRANCH  38  40
ATOM     40  C   VAL d   1      41.148  75.266  18.519  0.00  0.00     0.241 C 
ATOM     41  O   VAL d   1      41.066  76.491  18.436  0.00  0.00    -0.271 OA
ATOM     42  N   ASA d   1      40.253  74.458  18.915  0.00  0.00    -0.351 N 
ATOM     43  H27 ASA d   1      40.402  73.474  18.820  0.00  0.00     0.163 HD
BRANCH  42  44
ATOM     44  CA  ASA d   1      39.057  74.924  19.485  0.00  0.00     0.052 C 
ATOM     45  H28 ASA d   1      38.886  75.978  19.222  0.00  0.00     0.077 H 
BRANCH  44  46
ATOM     46  C   ASA d   1      39.229  74.763  21.011  0.00  0.00     0.122 C 
ATOM     47  O   ASA d   1      38.391  75.303  21.849  0.00  0.00    -0.230 OA
ATOM     48  H29 ASA d   1      40.069  74.186  21.395  0.00  0.00     0.095 H 
ENDBRANCH  44  46
BRANCH  44  49
ATOM     49  CB  ASA d   1      37.875  74.065  18.997  0.00  0.00     0.037 C 
ATOM     50  H30 ASA d   1      37.168  73.947  19.831  0.00  0.00     0.052 H 
ATOM     51  H31 ASA d   1      38.264  73.079  18.703  0.00  0.00     0.052 H 
BRANCH  49  52
ATOM     52  CG  ASA d   1      37.112  74.656  17.801  0.00  0.00     0.174 C 
ATOM     53  OD1 ASA d   1      37.321  75.873  17.434  0.00  0.00    -0.648 OA
ATOM     54  OD2 ASA d   1      36.255  73.931  17.159  0.00  0.00    -0.648 OA
ENDBRANCH  49  52
ENDBRANCH  44  49
ENDBRANCH  42  44
ENDBRANCH  38  40
BRANCH  38  55
ATOM     55  CB  VAL d   1      43.422  74.226  19.104  0.00  0.00    -0.033 C 
ATOM     56  H20 VAL d   1      42.954  73.626  19.898  0.00  0.00     0.042 H 
BRANCH  55  57
ATOM     57  CG1 VAL d   1      44.601  73.444  18.522  0.00  0.00    -0.071 C 
ATOM     58  H21 VAL d   1      45.341  73.254  19.313  0.00  0.00     0.028 H 
ATOM     59  H22 VAL d   1      45.068  74.030  17.716  0.00  0.00     0.028 H 
ATOM     60  H23 VAL d   1      44.242  72.486  18.118  0.00  0.00     0.028 H 
ENDBRANCH  55  57
BRANCH  55  61
ATOM     61  CG2 VAL d   1      44.031  75.484  19.728  0.00  0.00    -0.071 C 
ATOM     62  H24 VAL d   1      43.232  76.098  20.169  0.00  0.00     0.028 H 
ATOM     63  H25 VAL d   1      44.552  76.063  18.951  0.00  0.00     0.028 H 
ATOM     64  H26 VAL d   1      44.746  75.195  20.512  0.00  0.00     0.028 H 
ENDBRANCH  55  61
ENDBRANCH  38  55
ENDBRANCH  36  38
ENDBRANCH   1  34
BRANCH   1  65
ATOM     65  CB  GLU d   1      42.547  77.025  14.149  0.00  0.00    -0.029 C 
ATOM     66  H14 GLU d   1      42.505  77.733  14.989  0.00  0.00     0.037 H 
ATOM     67  H15 GLU d   1      41.536  76.645  13.940  0.00  0.00     0.037 H 
BRANCH  65  68
ATOM     68  CG  GLU d   1      43.026  77.803  12.900  0.00  0.00     0.018 C 
ATOM     69  H16 GLU d   1      42.502  77.382  12.030  0.00  0.00     0.049 H 
ATOM     70  H17 GLU d   1      44.107  77.627  12.798  0.00  0.00     0.049 H 
BRANCH  68  71
ATOM     71  CD  GLU d   1      42.801  79.351  12.877  0.00  0.00     0.172 C 
ATOM     72  OE1 GLU d   1      41.822  79.912  13.530  0.00  0.00    -0.648 OA
ATOM     73  OE2 GLU d   1      43.612  80.101  12.172  0.00  0.00    -0.648 OA
ENDBRANCH  68  71
ENDBRANCH  65  68
ENDBRANCH   1  65
TORSDOF 21
