REMARK  11 active torsions:
REMARK  status: ('A' for Active; 'I' for Inactive)
REMARK    1  A    between atoms: C14_14  and  C13_2 
REMARK    2  A    between atoms: C4_8  and  C2_11 
REMARK    3  A    between atoms: C2_11  and  N2_12 
REMARK    4  A    between atoms: C15_18  and  C14_14 
REMARK    5  A    between atoms: C15_18  and  C22_15 
REMARK    6  A    between atoms: C16_33  and  C15_18 
REMARK    7  A    between atoms: N28_19  and  C31_24 
REMARK    8  A    between atoms: O25_32  and  C26_21 
REMARK    9  A    between atoms: C31_24  and  N32_25 
REMARK   10  A    between atoms: C31_24  and  C33_26 
REMARK   11  A    between atoms: C19_31  and  O25_32 
ROOT
ATOM      1  C21 DX9 d   1       5.936   5.524  21.940  0.00  0.00    -0.073 A 
ATOM      2  C20 DX9 d   1       6.821   4.521  21.567  0.00  0.00    -0.050 A 
ATOM      3  C17 DX9 d   1       6.796   6.953  20.178  0.00  0.00    -0.073 A 
ATOM      4  C18 DX9 d   1       7.678   5.948  19.802  0.00  0.00    -0.050 A 
ATOM      5  C19 DX9 d   1       7.688   4.738  20.501  0.00  0.00     0.069 A 
ATOM      6  C16 DX9 d   1       5.937   6.741  21.250  0.00  0.00    -0.043 A 
ATOM      7  H26 DX9 d   1       5.248   5.365  22.762  0.00  0.00     0.084 H 
ATOM      8  H27 DX9 d   1       6.836   3.578  22.101  0.00  0.00     0.087 H 
ATOM      9  H28 DX9 d   1       6.778   7.894  19.640  0.00  0.00     0.084 H 
ATOM     10  H29 DX9 d   1       8.356   6.102  18.970  0.00  0.00     0.087 H 
ENDROOT
BRANCH   6  11
ATOM     11  C15 DX9 d   1       5.058   7.904  21.703  0.00  0.00     0.059 C 
ATOM     12  H13 DX9 d   1       5.338   8.757  21.067  0.00  0.00     0.064 H 
BRANCH  11  13
ATOM     13  C14 DX9 d   1       5.400   8.247  23.148  0.00  0.00    -0.025 C 
ATOM     14  H11 DX9 d   1       4.798   9.123  23.431  0.00  0.00     0.042 H 
ATOM     15  H12 DX9 d   1       5.110   7.387  23.769  0.00  0.00     0.042 H 
BRANCH  13  16
ATOM     16  C13 DX9 d   1       6.851   8.569  23.463  0.00  0.00    -0.056 A 
ATOM     17  C12 DX9 d   1       7.386   8.022  24.613  0.00  0.00    -0.066 A 
ATOM     18  C8  DX9 d   1       8.649   8.348  25.043  0.00  0.00    -0.025 A 
ATOM     19  H1  DX9 d   1       6.795   7.319  25.189  0.00  0.00     0.085 H 
ATOM     20  C7  DX9 d   1       9.438   9.231  24.295  0.00  0.00    -0.026 A 
ATOM     21  C9  DX9 d   1       9.134   7.841  26.219  0.00  0.00    -0.059 C 
ATOM     22  C10 DX9 d   1       8.947   9.753  23.093  0.00  0.00    -0.072 A 
ATOM     23  C6  DX9 d   1      10.720   9.551  24.743  0.00  0.00    -0.071 C 
ATOM     24  C11 DX9 d   1       7.662   9.400  22.665  0.00  0.00    -0.076 A 
ATOM     25  H3  DX9 d   1       9.556  10.425  22.499  0.00  0.00     0.084 H 
ATOM     26  H2  DX9 d   1       7.289   9.767  21.716  0.00  0.00     0.084 H 
ATOM     27  C5  DX9 d   1      11.195   8.995  25.934  0.00  0.00    -0.069 C 
ATOM     28  H4  DX9 d   1      11.344  10.227  24.170  0.00  0.00     0.084 H 
ATOM     29  C4  DX9 d   1      10.425   8.072  26.662  0.00  0.00     0.008 C 
ATOM     30  H5  DX9 d   1      12.174   9.280  26.302  0.00  0.00     0.085 H 
ATOM     31  H6  DX9 d   1       8.478   7.232  26.830  0.00  0.00     0.086 H 
BRANCH  29  32
ATOM     32  C2  DX9 d   1      10.909   7.382  27.765  0.00  0.00     0.102 C 
ATOM     33  N1  DX9 d   1      12.171   7.574  28.170  0.00  0.00    -0.385 N 
ATOM     34  H9  DX9 d   1      12.777   8.238  27.668  0.00  0.00     0.157 HD
ATOM     35  H10 DX9 d   1      12.535   7.057  28.983  0.00  0.00     0.157 HD
BRANCH  32  36
ATOM     36  N2  DX9 d   1      10.105   6.526  28.400  0.00  0.00    -0.385 N 
ATOM     37  H7  DX9 d   1      10.450   6.007  29.220  0.00  0.00     0.157 HD
ATOM     38  H8  DX9 d   1       9.140   6.385  28.070  0.00  0.00     0.157 HD
ENDBRANCH  32  36
ENDBRANCH  29  32
ENDBRANCH  13  16
ENDBRANCH  11  13
BRANCH  11  39
ATOM     39  C22 DX9 d   1       3.535   7.793  21.620  0.00  0.00     0.181 C 
ATOM     40  O23 DX9 d   1       2.982   6.709  21.826  0.00  0.00    -0.647 OA
ATOM     41  O24 DX9 d   1       2.912   8.832  21.389  0.00  0.00    -0.647 OA
ENDBRANCH  11  39
ENDBRANCH   6  11
BRANCH   5  42
ATOM     42  O25 DX9 d   1       8.612   3.688  20.139  0.00  0.00    -0.344 OA
BRANCH  42  43
ATOM     43  C26 DX9 d   1       8.769   3.153  18.868  0.00  0.00     0.062 C 
ATOM     44  C27 DX9 d   1       7.452   2.944  18.160  0.00  0.00     0.021 C 
ATOM     45  N28 DX9 d   1       7.704   1.827  17.259  0.00  0.00    -0.369 N 
ATOM     46  H14 DX9 d   1       6.658   2.694  18.879  0.00  0.00     0.068 H 
ATOM     47  H15 DX9 d   1       7.165   3.844  17.596  0.00  0.00     0.068 H 
ATOM     48  C29 DX9 d   1       8.923   1.060  17.544  0.00  0.00    -0.002 C 
ATOM     49  C30 DX9 d   1       9.344   1.790  18.795  0.00  0.00    -0.024 C 
ATOM     50  H19 DX9 d   1       9.668   1.148  16.740  0.00  0.00     0.064 H 
ATOM     51  H20 DX9 d   1       8.712  -0.003  17.733  0.00  0.00     0.064 H 
ATOM     52  H17 DX9 d   1       9.007   1.216  19.671  0.00  0.00     0.039 H 
ATOM     53  H18 DX9 d   1      10.441   1.867  18.808  0.00  0.00     0.039 H 
ATOM     54  H16 DX9 d   1       9.402   3.849  18.298  0.00  0.00     0.086 H 
BRANCH  45  55
ATOM     55  C31 DX9 d   1       6.874   1.556  16.257  0.00  0.00     0.068 C 
BRANCH  55  56
ATOM     56  N32 DX9 d   1       7.006   0.422  15.592  0.00  0.00    -0.389 N 
ATOM     57  H21 DX9 d   1       6.367   0.204  14.814  0.00  0.00     0.157 HD
ATOM     58  H22 DX9 d   1       7.748  -0.244  15.851  0.00  0.00     0.157 HD
ENDBRANCH  55  56
BRANCH  55  59
ATOM     59  C33 DX9 d   1       5.701   2.450  15.853  0.00  0.00    -0.024 C 
ATOM     60  H23 DX9 d   1       5.700   3.357  16.476  0.00  0.00     0.037 H 
ATOM     61  H24 DX9 d   1       4.757   1.904  15.998  0.00  0.00     0.037 H 
ATOM     62  H25 DX9 d   1       5.802   2.732  14.795  0.00  0.00     0.037 H 
ENDBRANCH  55  59
ENDBRANCH  45  55
ENDBRANCH  42  43
ENDBRANCH   5  42
TORSDOF 11
