REMARK  13 active torsions:
REMARK  status: ('A' for Active; 'I' for Inactive)
REMARK    1  A    between atoms: C1_1  and  C16_17 
REMARK    2  A    between atoms: C1_1  and  C17_18 
REMARK    3  A    between atoms: C5_5  and  C18_19 
REMARK    4  A    between atoms: C6_6  and  C7_7 
REMARK    5  A    between atoms: C8_8  and  C9_9 
REMARK    6  A    between atoms: C9_9  and  C19_20 
REMARK    7  A    between atoms: C10_10  and  C11_11 
REMARK    8  A    between atoms: C11_11  and  C12_12 
REMARK    9  A    between atoms: C12_12  and  C13_13 
REMARK   10  A    between atoms: C13_13  and  C14_14 
REMARK   11  A    between atoms: C13_13  and  C20_21 
REMARK   12  A    between atoms: C14_14  and  C15_15 
REMARK   13  A    between atoms: C15_15  and  O1_16 
ROOT
ATOM      1  C7  RTL d   1      31.254  47.295  -3.604  0.00  0.00    -0.097 C 
ATOM      2  C8  RTL d   1      32.364  47.812  -4.277  0.00  0.00    -0.081 C 
ATOM      3  H9  RTL d   1      30.741  46.427  -4.016  0.00  0.00     0.077 H 
ATOM      4  H10 RTL d   1      32.900  48.686  -3.910  0.00  0.00     0.083 H 
ENDROOT
BRANCH   2   5
ATOM      5  C9  RTL d   1      32.773  47.116  -5.507  0.00  0.00    -0.066 C 
ATOM      6  C10 RTL d   1      33.852  47.787  -6.012  0.00  0.00    -0.097 C 
ATOM      7  H11 RTL d   1      34.311  48.675  -5.579  0.00  0.00     0.077 H 
BRANCH   6   8
ATOM      8  C11 RTL d   1      34.286  47.107  -7.236  0.00  0.00    -0.049 C 
ATOM      9  H12 RTL d   1      33.456  47.110  -7.958  0.00  0.00     0.038 H 
ATOM     10  H13 RTL d   1      34.555  46.069  -6.990  0.00  0.00     0.038 H 
BRANCH   8  11
ATOM     11  C12 RTL d   1      35.374  47.725  -7.806  0.00  0.00    -0.059 C 
ATOM     12  H14 RTL d   1      36.188  47.774  -7.068  0.00  0.00     0.034 H 
ATOM     13  H15 RTL d   1      35.092  48.744  -8.108  0.00  0.00     0.034 H 
BRANCH  11  14
ATOM     14  C13 RTL d   1      35.841  46.984  -8.989  0.00  0.00    -0.056 C 
ATOM     15  H16 RTL d   1      35.024  46.941  -9.724  0.00  0.00     0.039 H 
BRANCH  14  16
ATOM     16  C14 RTL d   1      36.927  47.623  -9.543  0.00  0.00    -0.042 C 
ATOM     17  H17 RTL d   1      37.744  47.662  -8.808  0.00  0.00     0.036 H 
ATOM     18  H18 RTL d   1      36.644  48.646  -9.831  0.00  0.00     0.036 H 
BRANCH  16  19
ATOM     19  C15 RTL d   1      37.372  46.884 -10.732  0.00  0.00     0.017 C 
ATOM     20  H19 RTL d   1      36.550  46.844 -11.462  0.00  0.00     0.073 H 
ATOM     21  H20 RTL d   1      37.652  45.861 -10.439  0.00  0.00     0.073 H 
BRANCH  19  22
ATOM     22  O1  RTL d   1      38.446  47.498 -11.299  0.00  0.00    -0.401 OA
ATOM     23  H21 RTL d   1      38.721  47.009 -12.065  0.00  0.00     0.209 HD
ENDBRANCH  19  22
ENDBRANCH  16  19
ENDBRANCH  14  16
BRANCH  14  24
ATOM     24  C20 RTL d   1      36.276  45.552  -8.632  0.00  0.00    -0.073 C 
ATOM     25  H34 RTL d   1      35.428  45.012  -8.185  0.00  0.00     0.028 H 
ATOM     26  H35 RTL d   1      37.107  45.590  -7.912  0.00  0.00     0.028 H 
ATOM     27  H36 RTL d   1      36.604  45.030  -9.543  0.00  0.00     0.028 H 
ENDBRANCH  14  24
ENDBRANCH  11  14
ENDBRANCH   8  11
ENDBRANCH   6   8
BRANCH   5  28
ATOM     28  C19 RTL d   1      31.887  45.898  -5.796  0.00  0.00    -0.051 C 
ATOM     29  H31 RTL d   1      31.115  45.813  -5.017  0.00  0.00     0.033 H 
ATOM     30  H32 RTL d   1      32.505  44.988  -5.800  0.00  0.00     0.033 H 
ATOM     31  H33 RTL d   1      31.406  46.019  -6.778  0.00  0.00     0.033 H 
ENDBRANCH   5  28
ENDBRANCH   2   5
BRANCH   1  32
ATOM     32  C6  RTL d   1      30.754  47.899  -2.340  0.00  0.00    -0.028 C 
ATOM     33  C1  RTL d   1      29.239  47.800  -1.922  0.00  0.00    -0.041 C 
ATOM     34  C2  RTL d   1      28.903  48.395  -0.519  0.00  0.00    -0.058 C 
ATOM     35  C3  RTL d   1      29.837  48.010   0.618  0.00  0.00    -0.064 C 
ATOM     36  H1  RTL d   1      27.890  48.062  -0.248  0.00  0.00     0.034 H 
ATOM     37  H2  RTL d   1      28.917  49.491  -0.608  0.00  0.00     0.034 H 
ATOM     38  C4  RTL d   1      30.954  47.101   0.137  0.00  0.00    -0.061 C 
ATOM     39  H3  RTL d   1      29.259  47.486   1.394  0.00  0.00     0.033 H 
ATOM     40  H4  RTL d   1      30.278  48.924   1.043  0.00  0.00     0.033 H 
ATOM     41  C5  RTL d   1      31.496  47.484  -1.256  0.00  0.00    -0.050 C 
ATOM     42  H5  RTL d   1      30.571  46.071   0.091  0.00  0.00     0.033 H 
ATOM     43  H6  RTL d   1      31.782  47.153   0.860  0.00  0.00     0.033 H 
ATOM     44  H7  RTL d   1      31.399  46.449  -1.616  0.00  0.00     0.040 H 
ATOM     45  H8  RTL d   1      30.943  48.975  -2.465  0.00  0.00     0.047 H 
BRANCH  33  46
ATOM     46  C16 RTL d   1      28.569  48.834  -2.768  0.00  0.00    -0.069 C 
ATOM     47  H22 RTL d   1      27.491  48.845  -2.549  0.00  0.00     0.028 H 
ATOM     48  H23 RTL d   1      28.724  48.595  -3.830  0.00  0.00     0.028 H 
ATOM     49  H24 RTL d   1      28.998  49.822  -2.547  0.00  0.00     0.028 H 
ENDBRANCH  33  46
BRANCH  33  50
ATOM     50  C17 RTL d   1      28.508  46.470  -2.060  0.00  0.00    -0.069 C 
ATOM     51  H25 RTL d   1      29.004  45.712  -1.436  0.00  0.00     0.028 H 
ATOM     52  H26 RTL d   1      28.527  46.148  -3.112  0.00  0.00     0.028 H 
ATOM     53  H27 RTL d   1      27.465  46.589  -1.732  0.00  0.00     0.028 H 
ENDBRANCH  33  50
BRANCH  41  54
ATOM     54  C18 RTL d   1      33.010  47.397  -1.234  0.00  0.00    -0.072 C 
ATOM     55  H28 RTL d   1      33.342  47.038  -0.249  0.00  0.00     0.028 H 
ATOM     56  H29 RTL d   1      33.437  48.392  -1.425  0.00  0.00     0.028 H 
ATOM     57  H30 RTL d   1      33.349  46.698  -2.013  0.00  0.00     0.028 H 
ENDBRANCH  41  54
ENDBRANCH   1  32
TORSDOF 13
