REMARK  17 active torsions:
REMARK  status: ('A' for Active; 'I' for Inactive)
REMARK    1  A    between atoms: C1_1  and  C2_4 
REMARK    2  A    between atoms: C2_4  and  C3_5 
REMARK    3  A    between atoms: C3_5  and  C4_6 
REMARK    4  A    between atoms: C4_6  and  C5_7 
REMARK    5  A    between atoms: C5_7  and  C6_8 
REMARK    6  A    between atoms: C6_8  and  C7_9 
REMARK    7  A    between atoms: C7_9  and  C8_10 
REMARK    8  A    between atoms: C8_10  and  C9_11 
REMARK    9  A    between atoms: C9_11  and  C10_12 
REMARK   10  A    between atoms: C10_12  and  C11_13 
REMARK   11  A    between atoms: C11_13  and  C12_14 
REMARK   12  A    between atoms: C12_14  and  C13_15 
REMARK   13  A    between atoms: C13_15  and  C14_16 
REMARK   14  A    between atoms: C14_16  and  C15_17 
REMARK   15  A    between atoms: C15_17  and  C16_18 
REMARK   16  A    between atoms: C16_18  and  C17_19 
REMARK   17  A    between atoms: C17_19  and  C18_20 
ROOT
ATOM      1  C10 OLA d   1      99.352  77.613 -42.840  0.00  0.00    -0.065 C 
ATOM      2  H17 OLA d   1     100.062  76.894 -43.275  0.00  0.00     0.033 H 
ATOM      3  H18 OLA d   1      99.632  78.633 -43.141  0.00  0.00     0.033 H 
ENDROOT
BRANCH   1   4
ATOM      4  C9  OLA d   1      99.526  77.554 -41.515  0.00  0.00    -0.065 C 
ATOM      5  H15 OLA d   1     100.398  78.182 -41.281  0.00  0.00     0.033 H 
ATOM      6  H16 OLA d   1      98.626  77.990 -41.056  0.00  0.00     0.033 H 
BRANCH   4   7
ATOM      7  C8  OLA d   1      99.758  76.203 -40.836  0.00  0.00    -0.065 C 
ATOM      8  H13 OLA d   1      99.010  75.539 -41.294  0.00  0.00     0.033 H 
ATOM      9  H14 OLA d   1     100.764  75.905 -41.166  0.00  0.00     0.033 H 
BRANCH   7  10
ATOM     10  C7  OLA d   1      99.726  75.838 -39.360  0.00  0.00    -0.065 C 
ATOM     11  H11 OLA d   1     100.470  76.446 -38.825  0.00  0.00     0.033 H 
ATOM     12  H12 OLA d   1      98.723  76.050 -38.961  0.00  0.00     0.033 H 
BRANCH  10  13
ATOM     13  C6  OLA d   1     100.044  74.362 -39.145  0.00  0.00    -0.065 C 
ATOM     14  H9  OLA d   1     101.061  74.162 -39.514  0.00  0.00     0.033 H 
ATOM     15  H10 OLA d   1      99.995  74.143 -38.068  0.00  0.00     0.033 H 
BRANCH  13  16
ATOM     16  C5  OLA d   1      99.066  73.447 -39.878  0.00  0.00    -0.065 C 
ATOM     17  H7  OLA d   1      99.042  73.733 -40.940  0.00  0.00     0.033 H 
ATOM     18  H8  OLA d   1      99.416  72.408 -39.785  0.00  0.00     0.033 H 
BRANCH  16  19
ATOM     19  C4  OLA d   1      97.655  73.541 -39.314  0.00  0.00    -0.065 C 
ATOM     20  H5  OLA d   1      97.669  73.240 -38.256  0.00  0.00     0.033 H 
ATOM     21  H6  OLA d   1      97.303  74.580 -39.395  0.00  0.00     0.033 H 
BRANCH  19  22
ATOM     22  C3  OLA d   1      96.704  72.632 -40.077  0.00  0.00    -0.056 C 
ATOM     23  H3  OLA d   1      96.666  72.956 -41.127  0.00  0.00     0.033 H 
ATOM     24  H4  OLA d   1      97.079  71.599 -40.025  0.00  0.00     0.033 H 
BRANCH  22  25
ATOM     25  C2  OLA d   1      95.299  72.677 -39.495  0.00  0.00     0.016 C 
ATOM     26  H1  OLA d   1      95.346  72.364 -38.441  0.00  0.00     0.049 H 
ATOM     27  H2  OLA d   1      94.928  73.711 -39.554  0.00  0.00     0.049 H 
BRANCH  25  28
ATOM     28  C1  OLA d   1      94.325  71.769 -40.228  0.00  0.00     0.172 C 
ATOM     29  O1  OLA d   1      94.708  70.633 -40.584  0.00  0.00    -0.648 OA
ATOM     30  O2  OLA d   1      93.171  72.191 -40.446  0.00  0.00    -0.648 OA
ENDBRANCH  25  28
ENDBRANCH  22  25
ENDBRANCH  19  22
ENDBRANCH  16  19
ENDBRANCH  13  16
ENDBRANCH  10  13
ENDBRANCH   7  10
ENDBRANCH   4   7
ENDBRANCH   1   4
BRANCH   1  31
ATOM     31  C11 OLA d   1      98.002  77.330 -43.501  0.00  0.00    -0.065 C 
ATOM     32  H19 OLA d   1      98.085  76.312 -43.910  0.00  0.00     0.033 H 
ATOM     33  H20 OLA d   1      97.925  78.052 -44.328  0.00  0.00     0.033 H 
BRANCH  31  34
ATOM     34  C12 OLA d   1      96.651  77.374 -42.801  0.00  0.00    -0.065 C 
ATOM     35  H21 OLA d   1      96.316  78.420 -42.739  0.00  0.00     0.033 H 
ATOM     36  H22 OLA d   1      96.762  76.963 -41.786  0.00  0.00     0.033 H 
BRANCH  34  37
ATOM     37  C13 OLA d   1      95.604  76.565 -43.548  0.00  0.00    -0.065 C 
ATOM     38  H23 OLA d   1      95.672  76.794 -44.622  0.00  0.00     0.033 H 
ATOM     39  H24 OLA d   1      94.606  76.840 -43.177  0.00  0.00     0.033 H 
BRANCH  37  40
ATOM     40  C14 OLA d   1      95.817  75.071 -43.343  0.00  0.00    -0.065 C 
ATOM     41  H25 OLA d   1      95.730  74.843 -42.270  0.00  0.00     0.033 H 
ATOM     42  H26 OLA d   1      96.825  74.804 -43.694  0.00  0.00     0.033 H 
BRANCH  40  43
ATOM     43  C15 OLA d   1      94.793  74.243 -44.108  0.00  0.00    -0.065 C 
ATOM     44  H27 OLA d   1      93.787  74.628 -43.886  0.00  0.00     0.033 H 
ATOM     45  H28 OLA d   1      94.865  73.196 -43.779  0.00  0.00     0.033 H 
BRANCH  43  46
ATOM     46  C16 OLA d   1      95.023  74.304 -45.613  0.00  0.00    -0.065 C 
ATOM     47  H29 OLA d   1      95.036  75.358 -45.929  0.00  0.00     0.033 H 
ATOM     48  H30 OLA d   1      94.200  73.779 -46.120  0.00  0.00     0.033 H 
BRANCH  46  49
ATOM     49  C17 OLA d   1      96.344  73.653 -46.011  0.00  0.00    -0.069 C 
ATOM     50  H31 OLA d   1      97.163  74.149 -45.470  0.00  0.00     0.032 H 
ATOM     51  H32 OLA d   1      96.491  73.778 -47.094  0.00  0.00     0.032 H 
BRANCH  49  52
ATOM     52  C18 OLA d   1      96.363  72.167 -45.679  0.00  0.00    -0.077 C 
ATOM     53  H33 OLA d   1      97.329  71.736 -45.980  0.00  0.00     0.027 H 
ATOM     54  H34 OLA d   1      95.551  71.660 -46.220  0.00  0.00     0.027 H 
ATOM     55  H35 OLA d   1      96.223  72.031 -44.596  0.00  0.00     0.027 H 
ENDBRANCH  49  52
ENDBRANCH  46  49
ENDBRANCH  43  46
ENDBRANCH  40  43
ENDBRANCH  37  40
ENDBRANCH  34  37
ENDBRANCH  31  34
ENDBRANCH   1  31
TORSDOF 17
