REMARK  24 active torsions:
REMARK  status: ('A' for Active; 'I' for Inactive)
REMARK    1  A    between atoms: N_1  and  CA_2 
REMARK    2  A    between atoms: CA_2  and  C_3 
REMARK    3  A    between atoms: CA_2  and  CB_5 
REMARK       I    between atoms: C_3  and  N_7 
REMARK    4  A    between atoms: CB_5  and  OG_6 
REMARK    5  A    between atoms: N_7  and  CA_8 
REMARK    6  A    between atoms: CA_8  and  C_9 
REMARK    7  A    between atoms: CA_8  and  CB_11 
REMARK       I    between atoms: C_9  and  N_14 
REMARK    8  A    between atoms: CB_11  and  OG1_12 
REMARK    9  A    between atoms: CB_11  and  CG2_13 
REMARK   10  A    between atoms: N_14  and  CA_15 
REMARK   11  A    between atoms: CA_15  and  C_16 
REMARK   12  A    between atoms: CA_15  and  CB_18 
REMARK       I    between atoms: C_16  and  N_22 
REMARK   13  A    between atoms: CB_18  and  CG_19 
REMARK       I    between atoms: CG_19  and  ND2_21 
REMARK   14  A    between atoms: CA_23  and  C_24 
REMARK       I    between atoms: C_24  and  N_29 
REMARK   15  A    between atoms: N_29  and  CA_30 
REMARK   16  A    between atoms: CA_30  and  C_31 
REMARK   17  A    between atoms: CA_30  and  CB_33 
REMARK       I    between atoms: C_31  and  N_40 
REMARK   18  A    between atoms: CB_33  and  CG_34 
REMARK   19  A    between atoms: N_40  and  CA_41 
REMARK   20  A    between atoms: CA_41  and  C_42 
REMARK   21  A    between atoms: CA_41  and  CB_44 
REMARK   22  A    between atoms: CB_44  and  CG_45 
REMARK   23  A    between atoms: CG_45  and  CD1_46 
REMARK   24  A    between atoms: CG_45  and  CD2_47 
ROOT
ATOM      1  C   ASN d   1       1.903   1.684   4.650  0.00  0.00     0.243 C 
ATOM      2  O   ASN d   1       2.440   1.462   5.717  0.00  0.00    -0.271 OA
ATOM      3  N   PRO d   1       0.735   1.205   4.307  0.00  0.00    -0.337 N 
ATOM      4  CA  PRO d   1      -0.031   0.333   5.230  0.00  0.00     0.091 C 
ATOM      5  CB  PRO d   1      -1.442   0.360   4.653  0.00  0.00    -0.036 C 
ATOM      6  CG  PRO d   1      -1.271   0.675   3.199  0.00  0.00    -0.048 C 
ATOM      7  CD  PRO d   1       0.024   1.432   3.044  0.00  0.00    -0.001 C 
ATOM      8  H21 PRO d   1      -0.016   0.735   6.254  0.00  0.00     0.087 H 
ATOM      9  H22 PRO d   1      -2.045   1.136   5.147  0.00  0.00     0.036 H 
ATOM     10  H23 PRO d   1      -1.929  -0.618   4.780  0.00  0.00     0.036 H 
ATOM     11  H24 PRO d   1      -2.111   1.293   2.848  0.00  0.00     0.035 H 
ATOM     12  H25 PRO d   1      -1.232  -0.257   2.616  0.00  0.00     0.035 H 
ATOM     13  H26 PRO d   1       0.604   1.040   2.195  0.00  0.00     0.064 H 
ATOM     14  H27 PRO d   1      -0.168   2.505   2.893  0.00  0.00     0.064 H 
ENDROOT
BRANCH   4  15
ATOM     15  C   PRO d   1       0.528  -1.097   5.232  0.00  0.00     0.241 C 
ATOM     16  O   PRO d   1      -0.035  -1.988   5.836  0.00  0.00    -0.271 OA
ATOM     17  N   PHE d   1       1.629  -1.327   4.564  0.00  0.00    -0.346 N 
ATOM     18  H28 PHE d   1       2.081  -0.584   4.071  0.00  0.00     0.163 HD
BRANCH  17  19
ATOM     19  CA  PHE d   1       2.210  -2.706   4.540  0.00  0.00     0.093 C 
ATOM     20  H29 PHE d   1       1.664  -3.368   5.229  0.00  0.00     0.088 H 
BRANCH  19  21
ATOM     21  C   PHE d   1       3.691  -2.667   4.934  0.00  0.00     0.241 C 
ATOM     22  O   PHE d   1       4.445  -3.572   4.637  0.00  0.00    -0.271 OA
ATOM     23  N   LEU d   1       4.112  -1.628   5.603  0.00  0.00    -0.345 N 
ATOM     24  H37 LEU d   1       3.475  -0.894   5.839  0.00  0.00     0.163 HD
BRANCH  23  25
ATOM     25  CA  LEU d   1       5.543  -1.535   6.015  0.00  0.00     0.096 C 
ATOM     26  H38 LEU d   1       6.095  -2.436   5.709  0.00  0.00     0.089 H 
BRANCH  25  27
ATOM     27  C   LEU d   1       5.644  -1.362   7.534  0.00  0.00     0.196 C 
ATOM     28  O   LEU d   1       4.714  -0.824   8.111  0.00  0.00    -0.646 OA
ATOM     29  OXT LEU d   1       6.648  -1.772   8.091  0.00  0.00    -0.646 OA
ENDBRANCH  25  27
BRANCH  25  30
ATOM     30  CB  LEU d   1       6.085  -0.300   5.293  0.00  0.00    -0.034 C 
ATOM     31  H39 LEU d   1       6.387   0.455   6.034  0.00  0.00     0.037 H 
ATOM     32  H40 LEU d   1       5.303   0.117   4.642  0.00  0.00     0.037 H 
BRANCH  30  33
ATOM     33  CG  LEU d   1       7.296  -0.696   4.446  0.00  0.00    -0.059 C 
ATOM     34  H41 LEU d   1       8.040  -1.196   5.083  0.00  0.00     0.038 H 
BRANCH  33  35
ATOM     35  CD1 LEU d   1       6.854  -1.650   3.336  0.00  0.00    -0.073 C 
ATOM     36  H42 LEU d   1       7.726  -1.934   2.728  0.00  0.00     0.028 H 
ATOM     37  H43 LEU d   1       6.109  -1.151   2.699  0.00  0.00     0.028 H 
ATOM     38  H44 LEU d   1       6.409  -2.551   3.783  0.00  0.00     0.028 H 
ENDBRANCH  33  35
BRANCH  33  39
ATOM     39  CD2 LEU d   1       7.917   0.559   3.825  0.00  0.00    -0.073 C 
ATOM     40  H45 LEU d   1       8.235   1.245   4.624  0.00  0.00     0.028 H 
ATOM     41  H46 LEU d   1       7.173   1.059   3.187  0.00  0.00     0.028 H 
ATOM     42  H47 LEU d   1       8.789   0.275   3.218  0.00  0.00     0.028 H 
ENDBRANCH  33  39
ENDBRANCH  30  33
ENDBRANCH  25  30
ENDBRANCH  23  25
ENDBRANCH  19  21
BRANCH  19  43
ATOM     43  CB  PHE d   1       2.049  -3.186   3.093  0.00  0.00    -0.014 C 
ATOM     44  H30 PHE d   1       2.558  -4.153   2.967  0.00  0.00     0.043 H 
ATOM     45  H31 PHE d   1       2.491  -2.447   2.409  0.00  0.00     0.043 H 
BRANCH  43  46
ATOM     46  CG  PHE d   1       0.584  -3.345   2.783  0.00  0.00    -0.056 A 
ATOM     47  CD1 PHE d   1      -0.166  -4.326   3.440  0.00  0.00    -0.077 A 
ATOM     48  CE1 PHE d   1      -1.526  -4.474   3.151  0.00  0.00    -0.082 A 
ATOM     49  H32 PHE d   1       0.306  -4.971   4.172  0.00  0.00     0.084 H 
ATOM     50  CZ  PHE d   1      -2.133  -3.641   2.205  0.00  0.00    -0.083 A 
ATOM     51  H34 PHE d   1      -2.109  -5.233   3.659  0.00  0.00     0.083 H 
ATOM     52  CE2 PHE d   1      -1.382  -2.659   1.549  0.00  0.00    -0.082 A 
ATOM     53  H36 PHE d   1      -3.187  -3.756   1.980  0.00  0.00     0.083 H 
ATOM     54  CD2 PHE d   1      -0.023  -2.511   1.839  0.00  0.00    -0.077 A 
ATOM     55  H35 PHE d   1      -1.854  -2.014   0.817  0.00  0.00     0.083 H 
ATOM     56  H33 PHE d   1       0.560  -1.750   1.333  0.00  0.00     0.084 H 
ENDBRANCH  43  46
ENDBRANCH  19  43
ENDBRANCH  17  19
ENDBRANCH   4  15
BRANCH   1  57
ATOM     57  CA  ASN d   1       2.581   2.574   3.603  0.00  0.00     0.097 C 
ATOM     58  H16 ASN d   1       1.947   2.634   2.706  0.00  0.00     0.088 H 
BRANCH  57  59
ATOM     59  N   ASN d   1       2.837   3.935   4.159  0.00  0.00    -0.345 N 
ATOM     60  C   THR d   1       2.323   4.983   3.575  0.00  0.00     0.243 C 
ATOM     61  O   THR d   1       1.633   4.874   2.581  0.00  0.00    -0.271 OA
ATOM     62  H15 ASN d   1       3.401   4.044   4.977  0.00  0.00     0.163 HD
BRANCH  60  63
ATOM     63  CA  THR d   1       2.623   6.356   4.183  0.00  0.00     0.113 C 
ATOM     64  H9  THR d   1       1.798   7.046   3.955  0.00  0.00     0.091 H 
BRANCH  63  65
ATOM     65  N   THR d   1       2.819   6.245   5.658  0.00  0.00    -0.344 N 
ATOM     66  C   SER d   1       3.104   7.312   6.355  0.00  0.00     0.251 C 
ATOM     67  O   SER d   1       3.212   8.399   5.824  0.00  0.00    -0.271 OA
ATOM     68  H8  THR d   1       2.732   5.358   6.111  0.00  0.00     0.163 HD
BRANCH  66  69
ATOM     69  CA  SER d   1       3.292   7.145   7.867  0.00  0.00     0.195 C 
ATOM     70  H4  SER d   1       2.775   6.235   8.207  0.00  0.00     0.102 H 
BRANCH  69  71
ATOM     71  N   SER d   1       4.746   7.083   8.203  0.00  0.00    -0.064 N 
ATOM     72  H1  SER d   1       4.856   6.973   9.199  0.00  0.00     0.275 HD
ATOM     73  H2  SER d   1       5.196   7.935   7.907  0.00  0.00     0.275 HD
ATOM     74  H3  SER d   1       5.167   6.299   7.730  0.00  0.00     0.275 HD
ENDBRANCH  69  71
BRANCH  69  75
ATOM     75  CB  SER d   1       2.763   8.375   8.606  0.00  0.00     0.051 C 
ATOM     76  H5  SER d   1       3.172   9.286   8.144  0.00  0.00     0.077 H 
ATOM     77  H6  SER d   1       3.069   8.330   9.662  0.00  0.00     0.077 H 
BRANCH  75  78
ATOM     78  OG  SER d   1       1.344   8.397   8.523  0.00  0.00    -0.398 OA
ATOM     79  H7  SER d   1       1.013   9.160   8.981  0.00  0.00     0.209 HD
ENDBRANCH  75  78
ENDBRANCH  69  75
ENDBRANCH  66  69
ENDBRANCH  63  65
BRANCH  63  80
ATOM     80  CB  THR d   1       3.946   6.904   3.642  0.00  0.00     0.060 C 
ATOM     81  H10 THR d   1       4.059   7.955   3.946  0.00  0.00     0.086 H 
BRANCH  80  82
ATOM     82  OG1 THR d   1       3.945   6.819   2.224  0.00  0.00    -0.393 OA
ATOM     83  H11 THR d   1       3.846   5.911   1.962  0.00  0.00     0.210 HD
ENDBRANCH  80  82
BRANCH  80  84
ATOM     84  CG2 THR d   1       5.111   6.085   4.203  0.00  0.00    -0.050 C 
ATOM     85  H12 THR d   1       6.060   6.482   3.812  0.00  0.00     0.031 H 
ATOM     86  H13 THR d   1       5.000   5.034   3.899  0.00  0.00     0.031 H 
ATOM     87  H14 THR d   1       5.111   6.151   5.301  0.00  0.00     0.031 H 
ENDBRANCH  80  84
ENDBRANCH  63  80
ENDBRANCH  60  63
ENDBRANCH  57  59
BRANCH  57  88
ATOM     88  CB  ASN d   1       3.963   2.029   3.250  0.00  0.00     0.036 C 
ATOM     89  H17 ASN d   1       4.545   1.880   4.172  0.00  0.00     0.051 H 
ATOM     90  H18 ASN d   1       4.485   2.746   2.599  0.00  0.00     0.051 H 
BRANCH  88  91
ATOM     91  CG  ASN d   1       3.813   0.694   2.520  0.00  0.00     0.217 C 
ATOM     92  OD1 ASN d   1       2.861  -0.028   2.739  0.00  0.00    -0.274 OA
ATOM     93  ND2 ASN d   1       4.719   0.335   1.653  0.00  0.00    -0.370 N 
ATOM     94  H19 ASN d   1       4.631  -0.536   1.170  0.00  0.00     0.159 HD
ATOM     95  H20 ASN d   1       5.501   0.931   1.472  0.00  0.00     0.159 HD
ENDBRANCH  88  91
ENDBRANCH  57  88
ENDBRANCH   1  57
TORSDOF 24
