REMARK WARNING: 32 MAX_TORS EXCEEDED!!!
REMARK  36 active torsions:
REMARK  status: ('A' for Active; 'I' for Inactive)
REMARK    1  A    between atoms: N_1  and  CA_2 
REMARK    2  A    between atoms: CA_2  and  C_3 
REMARK    3  A    between atoms: CA_2  and  CB_5 
REMARK       I    between atoms: C_3  and  N_18 
REMARK    4  A    between atoms: CB_5  and  CG_6 
REMARK    5  A    between atoms: CG_6  and  CD_7 
REMARK    6  A    between atoms: N_18  and  CA_19 
REMARK    7  A    between atoms: CA_19  and  C_20 
REMARK    8  A    between atoms: CA_19  and  CB_22 
REMARK       I    between atoms: C_20  and  N_30 
REMARK    9  A    between atoms: CB_22  and  CG_23 
REMARK   10  A    between atoms: N_30  and  CA_31 
REMARK   11  A    between atoms: CA_31  and  C_32 
REMARK   12  A    between atoms: CA_31  and  CB_34 
REMARK       I    between atoms: C_32  and  N_49 
REMARK   13  A    between atoms: CB_34  and  CG1_35 
REMARK   14  A    between atoms: CB_34  and  CG2_36 
REMARK   15  A    between atoms: CG1_35  and  CD1_37 
REMARK   16  A    between atoms: N_49  and  CA_50 
REMARK   17  A    between atoms: CA_50  and  C_51 
REMARK   18  A    between atoms: CA_50  and  CB_53 
REMARK       I    between atoms: C_51  and  N_73 
REMARK   19  A    between atoms: CB_53  and  CG_54 
REMARK   20  A    between atoms: CZ_59  and  OH_60 
REMARK   21  A    between atoms: OH_60  and  P_61 
REMARK   22  A    between atoms: N_73  and  CA_74 
REMARK   23  A    between atoms: CA_74  and  C_75 
REMARK   24  A    between atoms: CA_74  and  CB_77 
REMARK       I    between atoms: C_75  and  N_94 
REMARK   25  A    between atoms: CB_77  and  CG_78 
REMARK   26  A    between atoms: CZ_83  and  OH_84 
REMARK   27  A    between atoms: N_94  and  CA_95 
REMARK   28  A    between atoms: CA_95  and  C_96 
REMARK   29  A    between atoms: CA_95  and  CB_98 
REMARK       I    between atoms: C_96  and  N_113 
REMARK   30  A    between atoms: CB_98  and  CG_99 
REMARK   31  A    between atoms: CG_99  and  CD1_100 
REMARK   32  A    between atoms: CG_99  and  CD2_101 
REMARK   33  A    between atoms: N_113  and  CA_114 
REMARK   34  A    between atoms: CA_114  and  C_115 
REMARK   35  A    between atoms: CA_114  and  CB_117 
REMARK   36  A    between atoms: CB_117  and  CG_118 
ROOT
ATOM      1  CA  PTR d   1       8.654 -18.336 -14.773  0.00  0.00     0.093 C 
ATOM      2  H25 PTR d   1       8.402 -19.367 -15.062  0.00  0.00     0.088 H 
ENDROOT
BRANCH   1   3
ATOM      3  N   PTR d   1       8.603 -18.240 -13.318  0.00  0.00    -0.346 N 
ATOM      4  C   ILE d   1       9.002 -19.238 -12.538  0.00  0.00     0.241 C 
ATOM      5  O   ILE d   1       9.440 -20.300 -12.979  0.00  0.00    -0.271 OA
ATOM      6  H24 PTR d   1       8.259 -17.401 -12.897  0.00  0.00     0.163 HD
BRANCH   4   7
ATOM      7  CA  ILE d   1       8.888 -19.001 -11.035  0.00  0.00     0.092 C 
ATOM      8  H14 ILE d   1       9.792 -18.475 -10.694  0.00  0.00     0.088 H 
BRANCH   7   9
ATOM      9  N   ILE d   1       7.734 -18.159 -10.729  0.00  0.00    -0.346 N 
ATOM     10  C   ASP d   1       7.874 -16.943 -10.214  0.00  0.00     0.241 C 
ATOM     11  O   ASP d   1       8.971 -16.445  -9.960  0.00  0.00    -0.271 OA
ATOM     12  H13 ILE d   1       6.815 -18.507 -10.912  0.00  0.00     0.163 HD
BRANCH  10  13
ATOM     13  CA  ASP d   1       6.584 -16.173  -9.946  0.00  0.00     0.098 C 
ATOM     14  H10 ASP d   1       6.206 -15.783 -10.902  0.00  0.00     0.088 H 
BRANCH  13  15
ATOM     15  N   ASP d   1       5.569 -17.048  -9.371  0.00  0.00    -0.345 N 
ATOM     16  C   GLU d   1       4.606 -17.581 -10.115  0.00  0.00     0.249 C 
ATOM     17  O   GLU d   1       4.505 -17.378 -11.325  0.00  0.00    -0.271 OA
ATOM     18  H9  ASP d   1       5.598 -17.252  -8.392  0.00  0.00     0.163 HD
BRANCH  16  19
ATOM     19  CA  GLU d   1       3.611 -18.478  -9.386  0.00  0.00     0.176 C 
ATOM     20  H4  GLU d   1       4.170 -19.253  -8.841  0.00  0.00     0.099 H 
BRANCH  19  21
ATOM     21  N   GLU d   1       2.795 -17.699  -8.419  0.00  0.00    -0.066 N 
ATOM     22  H1  GLU d   1       2.148 -18.315  -7.953  0.00  0.00     0.275 HD
ATOM     23  H2  GLU d   1       2.283 -16.984  -8.911  0.00  0.00     0.275 HD
ATOM     24  H3  GLU d   1       3.401 -17.270  -7.737  0.00  0.00     0.275 HD
ENDBRANCH  19  21
BRANCH  19  25
ATOM     25  CB  GLU d   1       2.668 -19.149 -10.388  0.00  0.00    -0.021 C 
ATOM     26  H5  GLU d   1       3.250 -19.434 -11.277  0.00  0.00     0.037 H 
ATOM     27  H6  GLU d   1       1.892 -18.424 -10.675  0.00  0.00     0.037 H 
BRANCH  25  28
ATOM     28  CG  GLU d   1       1.985 -20.392  -9.843  0.00  0.00     0.018 C 
ATOM     29  H7  GLU d   1       2.714 -20.962  -9.248  0.00  0.00     0.049 H 
ATOM     30  H8  GLU d   1       1.643 -21.006 -10.689  0.00  0.00     0.049 H 
BRANCH  28  31
ATOM     31  CD  GLU d   1       0.791 -20.065  -8.966  0.00  0.00     0.172 C 
ATOM     32  OE1 GLU d   1       0.312 -18.913  -9.022  0.00  0.00    -0.648 OA
ATOM     33  OE2 GLU d   1       0.334 -20.960  -8.226  0.00  0.00    -0.648 OA
ENDBRANCH  28  31
ENDBRANCH  25  28
ENDBRANCH  19  25
ENDBRANCH  16  19
ENDBRANCH  13  15
BRANCH  13  34
ATOM     34  CB  ASP d   1       6.857 -14.991  -9.011  0.00  0.00     0.043 C 
ATOM     35  H11 ASP d   1       7.864 -15.104  -8.584  0.00  0.00     0.052 H 
ATOM     36  H12 ASP d   1       6.112 -15.001  -8.202  0.00  0.00     0.052 H 
BRANCH  34  37
ATOM     37  CG  ASP d   1       6.779 -13.658  -9.728  0.00  0.00     0.175 C 
ATOM     38  OD1 ASP d   1       7.614 -12.777  -9.435  0.00  0.00    -0.648 OA
ATOM     39  OD2 ASP d   1       5.884 -13.496 -10.584  0.00  0.00    -0.648 OA
ENDBRANCH  34  37
ENDBRANCH  13  34
ENDBRANCH  10  13
ENDBRANCH   7   9
BRANCH   7  40
ATOM     40  CB  ILE d   1       8.819 -20.368 -10.309  0.00  0.00    -0.030 C 
ATOM     41  H15 ILE d   1       8.741 -21.158 -11.070  0.00  0.00     0.043 H 
BRANCH  40  42
ATOM     42  CG1 ILE d   1       7.586 -20.453  -9.402  0.00  0.00    -0.063 C 
ATOM     43  H16 ILE d   1       7.515 -21.477  -9.007  0.00  0.00     0.033 H 
ATOM     44  H17 ILE d   1       6.694 -20.230 -10.006  0.00  0.00     0.033 H 
BRANCH  42  45
ATOM     45  CD1 ILE d   1       7.624 -19.491  -8.232  0.00  0.00    -0.076 C 
ATOM     46  H21 ILE d   1       6.711 -19.610  -7.630  0.00  0.00     0.027 H 
ATOM     47  H22 ILE d   1       7.684 -18.459  -8.608  0.00  0.00     0.027 H 
ATOM     48  H23 ILE d   1       8.505 -19.706  -7.609  0.00  0.00     0.027 H 
ENDBRANCH  42  45
ENDBRANCH  40  42
BRANCH  40  49
ATOM     49  CG2 ILE d   1      10.087 -20.603  -9.500  0.00  0.00    -0.071 C 
ATOM     50  H18 ILE d   1      10.962 -20.539 -10.163  0.00  0.00     0.028 H 
ATOM     51  H19 ILE d   1      10.048 -21.601  -9.039  0.00  0.00     0.028 H 
ATOM     52  H20 ILE d   1      10.167 -19.839  -8.713  0.00  0.00     0.028 H 
ENDBRANCH  40  49
ENDBRANCH   7  40
ENDBRANCH   4   7
ENDBRANCH   1   3
BRANCH   1  53
ATOM     53  C   PTR d   1      10.050 -18.016 -15.296  0.00  0.00     0.241 C 
ATOM     54  O   PTR d   1      10.857 -17.395 -14.604  0.00  0.00    -0.271 OA
ATOM     55  N   TYR d   1      10.327 -18.444 -16.524  0.00  0.00    -0.346 N 
ATOM     56  H32 TYR d   1       9.627 -18.944 -17.035  0.00  0.00     0.163 HD
BRANCH  55  57
ATOM     57  CA  TYR d   1      11.624 -18.204 -17.145  0.00  0.00     0.093 C 
ATOM     58  H33 TYR d   1      11.925 -17.167 -16.935  0.00  0.00     0.088 H 
BRANCH  57  59
ATOM     59  C   TYR d   1      11.544 -18.389 -18.658  0.00  0.00     0.241 C 
ATOM     60  O   TYR d   1      10.985 -19.373 -19.143  0.00  0.00    -0.271 OA
ATOM     61  N   LEU d   1      12.107 -17.439 -19.397  0.00  0.00    -0.346 N 
ATOM     62  H41 LEU d   1      12.547 -16.664 -18.943  0.00  0.00     0.163 HD
BRANCH  61  63
ATOM     63  CA  LEU d   1      12.099 -17.499 -20.855  0.00  0.00     0.089 C 
ATOM     64  H42 LEU d   1      11.643 -18.452 -21.161  0.00  0.00     0.087 H 
BRANCH  63  65
ATOM     65  C   LEU d   1      13.518 -17.441 -21.411  0.00  0.00     0.241 C 
ATOM     66  O   LEU d   1      14.412 -16.858 -20.798  0.00  0.00    -0.271 OA
ATOM     67  N   ASP d   1      13.717 -18.052 -22.575  0.00  0.00    -0.344 N 
ATOM     68  H52 ASP d   1      12.949 -18.510 -23.023  0.00  0.00     0.163 HD
BRANCH  67  69
ATOM     69  CA  ASP d   1      15.028 -18.071 -23.214  0.00  0.00     0.105 C 
ATOM     70  H53 ASP d   1      15.782 -18.329 -22.456  0.00  0.00     0.090 H 
BRANCH  69  71
ATOM     71  C   ASP d   1      15.370 -16.702 -23.793  0.00  0.00     0.197 C 
ATOM     72  O   ASP d   1      16.363 -16.098 -23.334  0.00  0.00    -0.646 OA
ATOM     73  OXT ASP d   1      14.645 -16.245 -24.700  0.00  0.00    -0.646 OA
ENDBRANCH  69  71
BRANCH  69  74
ATOM     74  CB  ASP d   1      15.064 -19.127 -24.319  0.00  0.00     0.044 C 
ATOM     75  H54 ASP d   1      16.043 -19.083 -24.818  0.00  0.00     0.053 H 
ATOM     76  H55 ASP d   1      14.271 -18.903 -25.047  0.00  0.00     0.053 H 
BRANCH  74  77
ATOM     77  CG  ASP d   1      14.853 -20.530 -23.785  0.00  0.00     0.175 C 
ATOM     78  OD1 ASP d   1      15.616 -20.946 -22.889  0.00  0.00    -0.648 OA
ATOM     79  OD2 ASP d   1      13.923 -21.213 -24.263  0.00  0.00    -0.648 OA
ENDBRANCH  74  77
ENDBRANCH  69  74
ENDBRANCH  67  69
ENDBRANCH  63  65
BRANCH  63  80
ATOM     80  CB  LEU d   1      11.266 -16.351 -21.430  0.00  0.00    -0.035 C 
ATOM     81  H43 LEU d   1      11.316 -16.409 -22.527  0.00  0.00     0.037 H 
ATOM     82  H44 LEU d   1      11.711 -15.404 -21.092  0.00  0.00     0.037 H 
BRANCH  80  83
ATOM     83  CG  LEU d   1       9.792 -16.354 -21.022  0.00  0.00    -0.059 C 
ATOM     84  H45 LEU d   1       9.734 -16.483 -19.931  0.00  0.00     0.038 H 
BRANCH  83  85
ATOM     85  CD1 LEU d   1       9.136 -15.031 -21.384  0.00  0.00    -0.073 C 
ATOM     86  H46 LEU d   1       8.078 -15.052 -21.083  0.00  0.00     0.028 H 
ATOM     87  H47 LEU d   1       9.205 -14.872 -22.470  0.00  0.00     0.028 H 
ATOM     88  H48 LEU d   1       9.650 -14.211 -20.860  0.00  0.00     0.028 H 
ENDBRANCH  83  85
BRANCH  83  89
ATOM     89  CD2 LEU d   1       9.059 -17.512 -21.682  0.00  0.00    -0.073 C 
ATOM     90  H49 LEU d   1       9.548 -18.459 -21.409  0.00  0.00     0.028 H 
ATOM     91  H50 LEU d   1       9.086 -17.388 -22.775  0.00  0.00     0.028 H 
ATOM     92  H51 LEU d   1       8.014 -17.527 -21.340  0.00  0.00     0.028 H 
ENDBRANCH  83  89
ENDBRANCH  80  83
ENDBRANCH  63  80
ENDBRANCH  61  63
ENDBRANCH  57  59
BRANCH  57  93
ATOM     93  CB  TYR d   1      12.676 -19.148 -16.558  0.00  0.00    -0.014 C 
ATOM     94  H34 TYR d   1      12.682 -19.024 -15.465  0.00  0.00     0.043 H 
ATOM     95  H35 TYR d   1      13.659 -18.868 -16.964  0.00  0.00     0.043 H 
BRANCH  93  96
ATOM     96  CG  TYR d   1      12.428 -20.606 -16.872  0.00  0.00    -0.056 A 
ATOM     97  CD1 TYR d   1      11.648 -21.394 -16.035  0.00  0.00    -0.074 A 
ATOM     98  CE1 TYR d   1      11.419 -22.727 -16.320  0.00  0.00    -0.051 A 
ATOM     99  H36 TYR d   1      11.212 -20.956 -15.144  0.00  0.00     0.084 H 
ATOM    100  CZ  TYR d   1      11.971 -23.287 -17.451  0.00  0.00     0.065 A 
ATOM    101  H38 TYR d   1      10.808 -23.329 -15.657  0.00  0.00     0.087 H 
ATOM    102  CE2 TYR d   1      12.748 -22.526 -18.298  0.00  0.00    -0.051 A 
ATOM    103  CD2 TYR d   1      12.973 -21.194 -18.007  0.00  0.00    -0.074 A 
ATOM    104  H39 TYR d   1      13.180 -22.970 -19.188  0.00  0.00     0.087 H 
ATOM    105  H37 TYR d   1      13.585 -20.598 -18.675  0.00  0.00     0.084 H 
BRANCH 100 106
ATOM    106  OH  TYR d   1      11.744 -24.614 -17.739  0.00  0.00    -0.361 OA
ATOM    107  H40 TYR d   1      11.195 -24.994 -17.064  0.00  0.00     0.217 HD
ENDBRANCH 100 106
ENDBRANCH  93  96
ENDBRANCH  57  93
ENDBRANCH  55  57
ENDBRANCH   1  53
BRANCH   1 108
ATOM    108  CB  PTR d   1       7.631 -17.388 -15.399  0.00  0.00    -0.014 C 
ATOM    109  H26 PTR d   1       7.643 -17.533 -16.489  0.00  0.00     0.043 H 
ATOM    110  H27 PTR d   1       7.924 -16.354 -15.163  0.00  0.00     0.043 H 
BRANCH 108 111
ATOM    111  CG  PTR d   1       6.221 -17.612 -14.901  0.00  0.00    -0.056 A 
ATOM    112  CD1 PTR d   1       5.693 -18.895 -14.808  0.00  0.00    -0.074 A 
ATOM    113  CE1 PTR d   1       4.407 -19.105 -14.350  0.00  0.00    -0.050 A 
ATOM    114  H28 PTR d   1       6.301 -19.744 -15.100  0.00  0.00     0.084 H 
ATOM    115  CZ  PTR d   1       3.631 -18.029 -13.979  0.00  0.00     0.082 A 
ATOM    116  H30 PTR d   1       4.010 -20.112 -14.283  0.00  0.00     0.087 H 
ATOM    117  CE2 PTR d   1       4.131 -16.746 -14.063  0.00  0.00    -0.050 A 
ATOM    118  CD2 PTR d   1       5.419 -16.544 -14.521  0.00  0.00    -0.074 A 
ATOM    119  H31 PTR d   1       3.517 -15.901 -13.771  0.00  0.00     0.087 H 
ATOM    120  H29 PTR d   1       5.810 -15.535 -14.585  0.00  0.00     0.084 H 
BRANCH 115 121
ATOM    121  OH  PTR d   1       2.327 -18.238 -13.514  0.00  0.00    -0.240 OA
BRANCH 121 122
ATOM    122  P   PTR d   1       1.167 -18.235 -14.557  0.00  0.00     0.427 P 
ATOM    123  O1P PTR d   1       1.696 -19.096 -15.734  0.00  0.00    -0.617 OA
ATOM    124  O2P PTR d   1       0.007 -18.989 -13.858  0.00  0.00    -0.617 OA
ATOM    125  O3P PTR d   1       0.781 -16.849 -14.984  0.00  0.00    -0.617 OA
ENDBRANCH 121 122
ENDBRANCH 115 121
ENDBRANCH 108 111
ENDBRANCH   1 108
TORSDOF 36
