REMARK  6 active torsions:
REMARK  status: ('A' for Active; 'I' for Inactive)
REMARK    1  A    between atoms: C2_3  and  C9_11 
REMARK    2  A    between atoms: C3_4  and  O2_12 
REMARK    3  A    between atoms: C4_5  and  C5_6 
REMARK    4  A    between atoms: C4_5  and  C10_13 
REMARK    5  A    between atoms: C6_7  and  C7_8 
REMARK    6  A    between atoms: C6_7  and  C11_14 
ROOT
ATOM      1  S1  TLM d   1       6.217 -19.486  -0.488  0.00  0.00    -0.067 SA
ATOM      2  C1  TLM d   1       7.027 -18.572   0.786  0.00  0.00     0.218 A 
ATOM      3  C2  TLM d   1       6.629 -19.016   2.097  0.00  0.00     0.026 A 
ATOM      4  C3  TLM d   1       5.790 -20.069   2.055  0.00  0.00     0.076 A 
ATOM      5  C4  TLM d   1       5.386 -20.651   0.716  0.00  0.00     0.079 A 
ATOM      6  O1  TLM d   1       7.823 -17.686   0.518  0.00  0.00    -0.280 OA
ENDROOT
BRANCH   5   7
ATOM      7  C5  TLM d   1       3.884 -20.696   0.404  0.00  0.00    -0.073 C 
ATOM      8  C6  TLM d   1       3.180 -20.852  -0.741  0.00  0.00    -0.065 C 
ATOM      9  H1  TLM d   1       3.256 -20.578   1.286  0.00  0.00     0.080 H 
BRANCH   8  10
ATOM     10  C7  TLM d   1       1.693 -20.719  -0.632  0.00  0.00    -0.086 C 
ATOM     11  C8  TLM d   1       0.781 -20.829  -1.602  0.00  0.00    -0.121 C 
ATOM     12  H3  TLM d   1      -0.276 -20.706  -1.372  0.00  0.00     0.066 H 
ATOM     13  H4  TLM d   1       1.095 -21.041  -2.623  0.00  0.00     0.066 H 
ATOM     14  H2  TLM d   1       1.306 -20.506   0.363  0.00  0.00     0.083 H 
ENDBRANCH   8  10
BRANCH   8  15
ATOM     15  C11 TLM d   1       3.758 -21.146  -2.094  0.00  0.00    -0.051 C 
ATOM     16  H12 TLM d   1       4.853 -21.215  -2.018  0.00  0.00     0.033 H 
ATOM     17  H13 TLM d   1       3.489 -20.338  -2.791  0.00  0.00     0.033 H 
ATOM     18  H14 TLM d   1       3.356 -22.100  -2.465  0.00  0.00     0.033 H 
ENDBRANCH   8  15
ENDBRANCH   5   7
BRANCH   5  19
ATOM     19  C10 TLM d   1       6.034 -22.048   0.584  0.00  0.00    -0.051 C 
ATOM     20  H9  TLM d   1       5.553 -22.743   1.288  0.00  0.00     0.030 H 
ATOM     21  H10 TLM d   1       7.107 -21.977   0.814  0.00  0.00     0.030 H 
ATOM     22  H11 TLM d   1       5.902 -22.418  -0.444  0.00  0.00     0.030 H 
ENDBRANCH   5  19
BRANCH   4  23
ATOM     23  O2  TLM d   1       5.287 -20.617   3.170  0.00  0.00    -0.362 OA
ATOM     24  H8  TLM d   1       5.624 -20.155   3.929  0.00  0.00     0.217 HD
ENDBRANCH   4  23
BRANCH   3  25
ATOM     25  C9  TLM d   1       7.119 -18.334   3.328  0.00  0.00    -0.045 C 
ATOM     26  H5  TLM d   1       7.790 -17.509   3.047  0.00  0.00     0.033 H 
ATOM     27  H6  TLM d   1       7.666 -19.055   3.954  0.00  0.00     0.033 H 
ATOM     28  H7  TLM d   1       6.263 -17.935   3.892  0.00  0.00     0.033 H 
ENDBRANCH   3  25
TORSDOF 6
