REMARK  10 active torsions:
REMARK  status: ('A' for Active; 'I' for Inactive)
REMARK    1  A    between atoms: C3_3  and  C10_10 
REMARK    2  A    between atoms: C6_6  and  N7_7 
REMARK    3  A    between atoms: C10_10  and  N11_11 
REMARK    4  A    between atoms: N11_11  and  C12_12 
REMARK    5  A    between atoms: N11_11  and  C17_17 
REMARK    6  A    between atoms: C12_12  and  P13_13 
REMARK    7  A    between atoms: C17_17  and  C18_18 
REMARK    8  A    between atoms: C18_18  and  C19_19 
REMARK    9  A    between atoms: C19_19  and  C20_20 
REMARK   10  A    between atoms: C20_20  and  C21_21 
ROOT
ATOM      1  N11 AAH d   1      62.066  43.329  17.251  0.00  0.00    -0.055 N 
ATOM      2  H7  AAH d   1      61.941  42.330  17.308  0.00  0.00     0.281 HD
ENDROOT
BRANCH   1   3
ATOM      3  C10 AAH d   1      61.641  43.705  15.855  0.00  0.00     0.108 C 
ATOM      4  H5  AAH d   1      61.964  42.890  15.190  0.00  0.00     0.083 H 
ATOM      5  H6  AAH d   1      60.542  43.763  15.858  0.00  0.00     0.083 H 
BRANCH   3   6
ATOM      6  C3  AAH d   1      62.163  45.028  15.237  0.00  0.00    -0.032 A 
ATOM      7  C2  AAH d   1      61.642  46.306  15.707  0.00  0.00    -0.073 A 
ATOM      8  C1  AAH d   1      62.125  47.518  15.133  0.00  0.00    -0.050 A 
ATOM      9  H2  AAH d   1      60.892  46.334  16.489  0.00  0.00     0.084 H 
ATOM     10  C6  AAH d   1      63.118  47.484  14.097  0.00  0.00     0.102 A 
ATOM     11  H1  AAH d   1      61.740  48.470  15.480  0.00  0.00     0.087 H 
ATOM     12  C5  AAH d   1      63.618  46.236  13.643  0.00  0.00    -0.050 A 
ATOM     13  C4  AAH d   1      63.133  45.016  14.220  0.00  0.00    -0.073 A 
ATOM     14  H4  AAH d   1      64.367  46.205  12.860  0.00  0.00     0.087 H 
ATOM     15  H3  AAH d   1      63.521  44.068  13.866  0.00  0.00     0.084 H 
BRANCH  10  16
ATOM     16  N7  AAH d   1      63.629  48.778  13.491  0.00  0.00    -0.116 N 
ATOM     17  O8  AAH d   1      63.218  49.821  13.860  0.00  0.00    -0.532 OA
ATOM     18  O9  AAH d   1      64.469  48.781  12.638  0.00  0.00    -0.532 OA
ENDBRANCH  10  16
ENDBRANCH   3   6
ENDBRANCH   1   3
BRANCH   1  19
ATOM     19  C12 AAH d   1      61.203  43.937  18.346  0.00  0.00     0.185 C 
ATOM     20  H8  AAH d   1      60.566  44.693  17.863  0.00  0.00     0.098 H 
ATOM     21  H9  AAH d   1      61.888  44.431  19.051  0.00  0.00     0.098 H 
BRANCH  19  22
ATOM     22  P13 AAH d   1      60.080  42.861  19.358  0.00  0.00     0.286 P 
ATOM     23  O14 AAH d   1      59.017  42.131  18.490  0.00  0.00    -0.638 OA
ATOM     24  O15 AAH d   1      60.880  41.699  20.160  0.00  0.00    -0.638 OA
ATOM     25  O16 AAH d   1      59.419  43.751  20.301  0.00  0.00    -0.638 OA
ENDBRANCH  19  22
ENDBRANCH   1  19
BRANCH   1  26
ATOM     26  C17 AAH d   1      63.569  43.605  17.581  0.00  0.00     0.085 C 
ATOM     27  H10 AAH d   1      63.622  44.234  18.482  0.00  0.00     0.076 H 
ATOM     28  H11 AAH d   1      64.023  44.139  16.733  0.00  0.00     0.076 H 
BRANCH  26  29
ATOM     29  C18 AAH d   1      64.364  42.319  17.834  0.00  0.00    -0.042 C 
ATOM     30  H12 AAH d   1      63.671  41.511  18.112  0.00  0.00     0.035 H 
ATOM     31  H13 AAH d   1      65.078  42.488  18.654  0.00  0.00     0.035 H 
BRANCH  29  32
ATOM     32  C19 AAH d   1      65.131  41.916  16.568  0.00  0.00    -0.055 C 
ATOM     33  H14 AAH d   1      66.202  41.822  16.801  0.00  0.00     0.033 H 
ATOM     34  H15 AAH d   1      64.991  42.684  15.793  0.00  0.00     0.033 H 
BRANCH  32  35
ATOM     35  C20 AAH d   1      64.597  40.572  16.060  0.00  0.00     0.016 C 
ATOM     36  H16 AAH d   1      64.349  40.656  14.992  0.00  0.00     0.049 H 
ATOM     37  H17 AAH d   1      63.694  40.298  16.626  0.00  0.00     0.049 H 
BRANCH  35  38
ATOM     38  C21 AAH d   1      65.659  39.502  16.251  0.00  0.00     0.172 C 
ATOM     39  O22 AAH d   1      65.757  38.805  17.440  0.00  0.00    -0.648 OA
ATOM     40  O23 AAH d   1      66.436  39.268  15.332  0.00  0.00    -0.648 OA
ENDBRANCH  35  38
ENDBRANCH  32  35
ENDBRANCH  29  32
ENDBRANCH  26  29
ENDBRANCH   1  26
TORSDOF 10
