REMARK  12 active torsions:
REMARK  status: ('A' for Active; 'I' for Inactive)
REMARK    1  A    between atoms: C7_11  and  C7M_12 
REMARK    2  A    between atoms: C8_13  and  C8M_14 
REMARK    3  A    between atoms: N10_17  and  C1_19 
REMARK    4  A    between atoms: C1_19  and  C2_20 
REMARK    5  A    between atoms: C2_20  and  O2_21 
REMARK    6  A    between atoms: C2_20  and  C3_22 
REMARK    7  A    between atoms: C3_22  and  O3_23 
REMARK    8  A    between atoms: C3_22  and  C4_24 
REMARK    9  A    between atoms: C4_24  and  O4_25 
REMARK   10  A    between atoms: C4_24  and  C5_26 
REMARK   11  A    between atoms: C5_26  and  O5_27 
REMARK   12  A    between atoms: O5_27  and  P_28 
ROOT
ATOM      1  N1  FMN d   1      23.247  26.232  26.946  0.00  0.00    -0.173 NA
ATOM      2  C2  FMN d   1      24.032  27.106  27.605  0.00  0.00     0.350 A 
ATOM      3  O2  FMN d   1      24.032  27.266  28.781  0.00  0.00    -0.244 OA
ATOM      4  N3  FMN d   1      25.080  27.784  26.908  0.00  0.00    -0.272 N 
ATOM      5  C4  FMN d   1      25.320  27.676  25.585  0.00  0.00     0.282 A 
ATOM      6  O4  FMN d   1      26.267  28.289  25.037  0.00  0.00    -0.265 OA
ATOM      7  C4A FMN d   1      24.417  26.825  24.843  0.00  0.00     0.171 A 
ATOM      8  N5  FMN d   1      24.592  26.648  23.572  0.00  0.00    -0.237 NA
ATOM      9  C5A FMN d   1      23.844  25.707  22.945  0.00  0.00     0.085 A 
ATOM     10  C6  FMN d   1      24.103  25.427  21.564  0.00  0.00    -0.047 C 
ATOM     11  C7  FMN d   1      23.412  24.463  20.900  0.00  0.00    -0.054 C 
ATOM     12  C8  FMN d   1      22.268  23.838  21.520  0.00  0.00    -0.054 C 
ATOM     13  C9  FMN d   1      22.023  24.041  22.859  0.00  0.00    -0.048 C 
ATOM     14  C9A FMN d   1      22.796  24.948  23.589  0.00  0.00     0.065 A 
ATOM     15  N10 FMN d   1      22.629  25.197  24.953  0.00  0.00    -0.325 N 
ATOM     16  C10 FMN d   1      23.395  26.098  25.621  0.00  0.00     0.170 A 
ATOM     17  H1  FMN d   1      25.679  28.382  27.440  0.00  0.00     0.174 HD
ATOM     18  H2  FMN d   1      24.863  25.994  21.039  0.00  0.00     0.088 H 
ATOM     19  H9  FMN d   1      21.226  23.494  23.350  0.00  0.00     0.087 H 
ENDROOT
BRANCH  15  20
ATOM     20  C1  FMN d   1      21.594  24.471  25.745  0.00  0.00     0.028 C 
ATOM     21  H10 FMN d   1      20.826  24.051  25.079  0.00  0.00     0.069 H 
ATOM     22  H11 FMN d   1      21.120  25.150  26.469  0.00  0.00     0.069 H 
BRANCH  20  23
ATOM     23  C2  FMN d   1      22.338  23.351  26.473  0.00  0.00     0.078 C 
ATOM     24  H12 FMN d   1      23.232  23.776  26.954  0.00  0.00     0.089 H 
BRANCH  23  25
ATOM     25  O2  FMN d   1      22.734  22.361  25.519  0.00  0.00    -0.391 OA
ATOM     26  H13 FMN d   1      21.962  22.009  25.091  0.00  0.00     0.210 HD
ENDBRANCH  23  25
BRANCH  23  27
ATOM     27  C3  FMN d   1      21.468  22.667  27.555  0.00  0.00     0.088 C 
ATOM     28  H14 FMN d   1      22.047  21.876  28.054  0.00  0.00     0.091 H 
BRANCH  27  29
ATOM     29  O3  FMN d   1      20.272  22.112  26.865  0.00  0.00    -0.390 OA
ATOM     30  H15 FMN d   1      19.712  21.682  27.501  0.00  0.00     0.210 HD
ENDBRANCH  27  29
BRANCH  27  31
ATOM     31  C4  FMN d   1      20.927  23.632  28.570  0.00  0.00     0.084 C 
ATOM     32  H16 FMN d   1      20.112  24.207  28.107  0.00  0.00     0.090 H 
BRANCH  31  33
ATOM     33  O4  FMN d   1      21.953  24.531  29.041  0.00  0.00    -0.391 OA
ATOM     34  H17 FMN d   1      22.299  25.026  28.308  0.00  0.00     0.210 HD
ENDBRANCH  31  33
BRANCH  31  35
ATOM     35  C5  FMN d   1      20.409  22.914  29.814  0.00  0.00     0.059 C 
ATOM     36  H18 FMN d   1      19.624  22.200  29.525  0.00  0.00     0.079 H 
ATOM     37  H19 FMN d   1      19.993  23.651  30.517  0.00  0.00     0.079 H 
BRANCH  35  38
ATOM     38  O5  FMN d   1      21.500  22.202  30.450  0.00  0.00    -0.280 OA
BRANCH  38  39
ATOM     39  P   FMN d   1      21.268  21.056  31.514  0.00  0.00     0.422 P 
ATOM     40  O1P FMN d   1      20.550  19.926  30.813  0.00  0.00    -0.617 OA
ATOM     41  O2P FMN d   1      20.381  21.669  32.626  0.00  0.00    -0.617 OA
ATOM     42  O3P FMN d   1      22.670  20.672  31.999  0.00  0.00    -0.617 OA
ENDBRANCH  38  39
ENDBRANCH  35  38
ENDBRANCH  31  35
ENDBRANCH  27  31
ENDBRANCH  23  27
ENDBRANCH  20  23
ENDBRANCH  15  20
BRANCH  12  43
ATOM     43  C8M FMN d   1      21.465  22.802  20.759  0.00  0.00    -0.051 C 
ATOM     44  H6  FMN d   1      20.639  22.442  21.390  0.00  0.00     0.033 H 
ATOM     45  H7  FMN d   1      22.117  21.957  20.491  0.00  0.00     0.033 H 
ATOM     46  H8  FMN d   1      21.057  23.255  19.843  0.00  0.00     0.033 H 
ENDBRANCH  12  43
BRANCH  11  47
ATOM     47  C7M FMN d   1      23.628  24.083  19.427  0.00  0.00    -0.051 C 
ATOM     48  H3  FMN d   1      24.517  24.604  19.041  0.00  0.00     0.033 H 
ATOM     49  H4  FMN d   1      22.746  24.378  18.839  0.00  0.00     0.033 H 
ATOM     50  H5  FMN d   1      23.776  22.996  19.347  0.00  0.00     0.033 H 
ENDBRANCH  11  47
TORSDOF 12
