REMARK  10 active torsions:
REMARK  status: ('A' for Active; 'I' for Inactive)
REMARK    1  A    between atoms: N20_12  and  C1_1 
REMARK    2  A    between atoms: C2_2  and  C10_7 
REMARK    3  A    between atoms: C6_6  and  CE_11 
REMARK       I    between atoms: C10_7  and  N12_9 
REMARK    4  A    between atoms: N12_9  and  O13_10 
REMARK    5  A    between atoms: N20_12  and  S21_13 
REMARK    6  A    between atoms: CD_14  and  N20_12 
REMARK    7  A    between atoms: S21_13  and  C35_21 
REMARK    8  A    between atoms: C27_19  and  CD_14 
REMARK    9  A    between atoms: C38_24  and  O45_27 
REMARK   10  A    between atoms: O45_27  and  CA_28 
ROOT
ATOM      1  N20 WAY d   1       3.143  -4.501   0.637  0.00  0.00    -0.266 N 
ENDROOT
BRANCH   1   2
ATOM      2  C1  WAY d   1       2.139  -4.326   1.553  0.00  0.00     0.067 A 
ATOM      3  C2  WAY d   1       0.774  -4.522   1.240  0.00  0.00     0.062 A 
ATOM      4  CF2 WAY d   1      -0.177  -4.320   2.239  0.00  0.00    -0.065 A 
ATOM      5  CH  WAY d   1       0.187  -3.936   3.518  0.00  0.00    -0.081 A 
ATOM      6  H1  WAY d   1      -1.226  -4.467   2.009  0.00  0.00     0.085 H 
ATOM      7  CF1 WAY d   1       1.523  -3.746   3.819  0.00  0.00    -0.075 A 
ATOM      8  H2  WAY d   1      -0.570  -3.785   4.279  0.00  0.00     0.083 H 
ATOM      9  C6  WAY d   1       2.504  -3.935   2.855  0.00  0.00    -0.033 A 
ATOM     10  H3  WAY d   1       1.808  -3.446   4.821  0.00  0.00     0.084 H 
BRANCH   3  11
ATOM     11  C10 WAY d   1       0.217  -4.931  -0.074  0.00  0.00     0.277 C 
ATOM     12  O11 WAY d   1       0.089  -6.112  -0.387  0.00  0.00    -0.265 OA
ATOM     13  N12 WAY d   1      -0.105  -4.006  -0.991  0.00  0.00    -0.233 N 
ATOM     14  H4  WAY d   1      -0.024  -3.028  -0.800  0.00  0.00     0.197 HD
BRANCH  13  15
ATOM     15  O13 WAY d   1      -0.561  -4.477  -2.230  0.00  0.00    -0.287 OA
ATOM     16  H5  WAY d   1       0.113  -5.014  -2.631  0.00  0.00     0.244 HD
ENDBRANCH  13  15
ENDBRANCH   3  11
BRANCH   9  17
ATOM     17  CE  WAY d   1       3.943  -3.710   3.256  0.00  0.00    -0.049 C 
ATOM     18  H6  WAY d   1       4.598  -3.897   2.392  0.00  0.00     0.033 H 
ATOM     19  H7  WAY d   1       4.208  -4.398   4.073  0.00  0.00     0.033 H 
ATOM     20  H8  WAY d   1       4.071  -2.671   3.595  0.00  0.00     0.033 H 
ENDBRANCH   9  17
ENDBRANCH   1   2
BRANCH   1  21
ATOM     21  S21 WAY d   1       3.801  -3.159  -0.045  0.00  0.00     0.265 S 
ATOM     22  O50 WAY d   1       5.022  -2.886   0.644  0.00  0.00    -0.200 OA
ATOM     23  O51 WAY d   1       2.785  -2.153  -0.072  0.00  0.00    -0.200 OA
BRANCH  21  24
ATOM     24  C35 WAY d   1       4.223  -3.516  -1.727  0.00  0.00     0.080 A 
ATOM     25  CC1 WAY d   1       3.436  -3.019  -2.754  0.00  0.00    -0.058 A 
ATOM     26  CB1 WAY d   1       3.768  -3.301  -4.073  0.00  0.00    -0.049 A 
ATOM     27  H15 WAY d   1       2.566  -2.413  -2.529  0.00  0.00     0.086 H 
ATOM     28  C38 WAY d   1       4.886  -4.078  -4.371  0.00  0.00     0.068 A 
ATOM     29  H16 WAY d   1       3.153  -2.914  -4.877  0.00  0.00     0.087 H 
ATOM     30  CB2 WAY d   1       5.668  -4.570  -3.327  0.00  0.00    -0.049 A 
ATOM     31  CC2 WAY d   1       5.338  -4.291  -2.007  0.00  0.00    -0.058 A 
ATOM     32  H17 WAY d   1       6.540  -5.175  -3.547  0.00  0.00     0.087 H 
ATOM     33  H18 WAY d   1       5.949  -4.677  -1.200  0.00  0.00     0.086 H 
BRANCH  28  34
ATOM     34  O45 WAY d   1       5.218  -4.360  -5.697  0.00  0.00    -0.356 OA
BRANCH  34  35
ATOM     35  CA  WAY d   1       6.370  -5.156  -5.901  0.00  0.00     0.010 C 
ATOM     36  H19 WAY d   1       6.525  -5.307  -6.979  0.00  0.00     0.066 H 
ATOM     37  H20 WAY d   1       6.234  -6.131  -5.410  0.00  0.00     0.066 H 
ATOM     38  H21 WAY d   1       7.247  -4.649  -5.472  0.00  0.00     0.066 H 
ENDBRANCH  34  35
ENDBRANCH  28  34
ENDBRANCH  21  24
ENDBRANCH   1  21
BRANCH   1  39
ATOM     39  CD  WAY d   1       3.801  -5.806   0.533  0.00  0.00     0.036 C 
ATOM     40  H9  WAY d   1       4.205  -5.907  -0.485  0.00  0.00     0.073 H 
ATOM     41  H10 WAY d   1       3.046  -6.586   0.707  0.00  0.00     0.073 H 
BRANCH  39  42
ATOM     42  C27 WAY d   1       4.926  -6.017   1.507  0.00  0.00    -0.022 A 
ATOM     43  CJ  WAY d   1       4.660  -6.357   2.828  0.00  0.00     0.009 A 
ATOM     44  N25 WAY d   1       5.608  -6.562   3.753  0.00  0.00    -0.273 NA
ATOM     45  H13 WAY d   1       3.624  -6.463   3.128  0.00  0.00     0.115 H 
ATOM     46  CM  WAY d   1       6.883  -6.427   3.367  0.00  0.00     0.002 A 
ATOM     47  CK  WAY d   1       7.249  -6.091   2.071  0.00  0.00    -0.065 A 
ATOM     48  H12 WAY d   1       7.665  -6.588   4.100  0.00  0.00     0.114 H 
ATOM     49  CI  WAY d   1       6.255  -5.883   1.128  0.00  0.00    -0.072 A 
ATOM     50  H11 WAY d   1       8.294  -5.993   1.801  0.00  0.00     0.085 H 
ATOM     51  H14 WAY d   1       6.512  -5.619   0.108  0.00  0.00     0.084 H 
ENDBRANCH  39  42
ENDBRANCH   1  39
TORSDOF 10
