REMARK  19 active torsions:
REMARK  status: ('A' for Active; 'I' for Inactive)
REMARK    1  A    between atoms: C36_36  and  S1_1 
REMARK    2  A    between atoms: S1_1  and  C38_38 
REMARK    3  A    between atoms: C35_35  and  C7_7 
REMARK    4  A    between atoms: C15_15  and  O14_14 
REMARK    5  A    between atoms: C17_17  and  C15_15 
REMARK       I    between atoms: N16_16  and  C27_27 
REMARK    6  A    between atoms: N16_16  and  C17_17 
REMARK    7  A    between atoms: C17_17  and  C18_18 
REMARK    8  A    between atoms: C18_18  and  C19_19 
REMARK    9  A    between atoms: C26_26  and  N25_25 
REMARK       I    between atoms: N25_25  and  C32_32 
REMARK   10  A    between atoms: C27_27  and  C26_26 
REMARK   11  A    between atoms: C26_26  and  C29_29 
REMARK   12  A    between atoms: C29_29  and  C30_30 
REMARK   13  A    between atoms: C29_29  and  C31_31 
REMARK   14  A    between atoms: C32_32  and  C34_34 
REMARK   15  A    between atoms: C34_34  and  C35_35 
REMARK   16  A    between atoms: C34_34  and  C36_36 
REMARK   17  A    between atoms: C38_38  and  C37_37 
REMARK   18  A    between atoms: C38_38  and  C39_39 
REMARK   19  A    between atoms: C38_38  and  C40_40 
ROOT
ATOM      1  N25 HYB d   1       3.696  19.957   3.611  0.00  0.00    -0.347 N 
ATOM      2  C32 HYB d   1       4.773  19.287   4.106  0.00  0.00     0.223 C 
ATOM      3  O33 HYB d   1       4.710  18.128   4.534  0.00  0.00    -0.273 OA
ATOM      4  H20 HYB d   1       3.841  20.882   3.260  0.00  0.00     0.163 HD
ENDROOT
BRANCH   2   5
ATOM      5  C34 HYB d   1       6.118  20.038   4.013  0.00  0.00     0.040 C 
ATOM      6  H29 HYB d   1       5.929  21.107   3.837  0.00  0.00     0.056 H 
BRANCH   5   7
ATOM      7  C35 HYB d   1       6.841  19.425   2.786  0.00  0.00    -0.028 C 
ATOM      8  H30 HYB d   1       7.394  18.527   3.099  0.00  0.00     0.041 H 
ATOM      9  H31 HYB d   1       6.097  19.150   2.024  0.00  0.00     0.041 H 
BRANCH   7  10
ATOM     10  C7  HYB d   1       7.825  20.449   2.193  0.00  0.00    -0.046 A 
ATOM     11  C6  HYB d   1       7.793  21.777   2.433  0.00  0.00    -0.076 A 
ATOM     12  C5  HYB d   1       8.756  22.657   1.797  0.00  0.00    -0.082 A 
ATOM     13  H3  HYB d   1       7.046  22.187   3.103  0.00  0.00     0.084 H 
ATOM     14  C4  HYB d   1       9.695  22.148   0.952  0.00  0.00    -0.072 A 
ATOM     15  H2  HYB d   1       8.728  23.722   1.995  0.00  0.00     0.083 H 
ATOM     16  C9  HYB d   1       9.753  20.740   0.673  0.00  0.00    -0.025 A 
ATOM     17  H1  HYB d   1      10.409  22.815   0.483  0.00  0.00     0.084 H 
ATOM     18  C8  HYB d   1       8.837  19.857   1.259  0.00  0.00    -0.020 A 
ATOM     19  C10 HYB d   1      10.763  20.235  -0.215  0.00  0.00    -0.072 A 
ATOM     20  C13 HYB d   1       8.900  18.489   0.968  0.00  0.00    -0.072 A 
ATOM     21  C12 HYB d   1       9.875  17.999   0.095  0.00  0.00    -0.082 A 
ATOM     22  H7  HYB d   1       8.190  17.807   1.422  0.00  0.00     0.084 H 
ATOM     23  C11 HYB d   1      10.811  18.894  -0.493  0.00  0.00    -0.082 A 
ATOM     24  H6  HYB d   1       9.918  16.940  -0.133  0.00  0.00     0.083 H 
ATOM     25  H5  HYB d   1      11.569  18.512  -1.167  0.00  0.00     0.083 H 
ATOM     26  H4  HYB d   1      11.483  20.911  -0.662  0.00  0.00     0.084 H 
ENDBRANCH   7  10
ENDBRANCH   5   7
BRANCH   5  27
ATOM     27  C36 HYB d   1       6.977  19.900   5.311  0.00  0.00     0.041 C 
ATOM     28  H32 HYB d   1       6.835  18.894   5.734  0.00  0.00     0.057 H 
ATOM     29  H33 HYB d   1       8.038  20.045   5.060  0.00  0.00     0.057 H 
BRANCH  27  30
ATOM     30  S1  HYB d   1       6.488  21.119   6.520  0.00  0.00     0.152 S 
ATOM     31  O2  HYB d   1       6.964  22.374   6.008  0.00  0.00    -0.227 OA
ATOM     32  O3  HYB d   1       5.111  21.007   6.876  0.00  0.00    -0.227 OA
BRANCH  30  33
ATOM     33  C38 HYB d   1       7.442  20.717   8.043  0.00  0.00     0.053 C 
BRANCH  33  34
ATOM     34  C39 HYB d   1       7.132  21.866   9.033  0.00  0.00    -0.057 C 
ATOM     35  H37 HYB d   1       7.672  21.694   9.976  0.00  0.00     0.029 H 
ATOM     36  H38 HYB d   1       6.050  21.898   9.231  0.00  0.00     0.029 H 
ATOM     37  H39 HYB d   1       7.453  22.823   8.596  0.00  0.00     0.029 H 
ENDBRANCH  33  34
BRANCH  33  38
ATOM     38  C40 HYB d   1       8.956  20.660   7.723  0.00  0.00    -0.057 C 
ATOM     39  H40 HYB d   1       9.515  20.419   8.639  0.00  0.00     0.029 H 
ATOM     40  H41 HYB d   1       9.286  21.636   7.337  0.00  0.00     0.029 H 
ATOM     41  H42 HYB d   1       9.142  19.884   6.965  0.00  0.00     0.029 H 
ENDBRANCH  33  38
BRANCH  33  42
ATOM     42  C37 HYB d   1       6.931  19.408   8.697  0.00  0.00    -0.057 C 
ATOM     43  H34 HYB d   1       7.520  19.196   9.602  0.00  0.00     0.029 H 
ATOM     44  H35 HYB d   1       7.040  18.576   7.986  0.00  0.00     0.029 H 
ATOM     45  H36 HYB d   1       5.871  19.523   8.968  0.00  0.00     0.029 H 
ENDBRANCH  33  42
ENDBRANCH  30  33
ENDBRANCH  27  30
ENDBRANCH   5  27
ENDBRANCH   2   5
BRANCH   1  46
ATOM     46  C26 HYB d   1       2.319  19.400   3.559  0.00  0.00     0.092 C 
ATOM     47  H21 HYB d   1       2.365  18.305   3.652  0.00  0.00     0.088 H 
BRANCH  46  48
ATOM     48  C27 HYB d   1       1.830  19.787   2.111  0.00  0.00     0.241 C 
ATOM     49  O28 HYB d   1       1.110  20.734   1.838  0.00  0.00    -0.271 OA
ATOM     50  N16 HYB d   1       2.244  18.878   1.154  0.00  0.00    -0.352 N 
ATOM     51  H11 HYB d   1       2.784  18.090   1.448  0.00  0.00     0.163 HD
BRANCH  50  52
ATOM     52  C17 HYB d   1       1.927  19.016  -0.278  0.00  0.00     0.036 C 
ATOM     53  H12 HYB d   1       1.278  19.887  -0.451  0.00  0.00     0.076 H 
BRANCH  52  54
ATOM     54  C15 HYB d   1       1.191  17.714  -0.701  0.00  0.00     0.036 C 
ATOM     55  H9  HYB d   1       0.281  17.571  -0.100  0.00  0.00     0.077 H 
ATOM     56  H10 HYB d   1       0.924  17.749  -1.768  0.00  0.00     0.077 H 
BRANCH  54  57
ATOM     57  O14 HYB d   1       2.159  16.632  -0.443  0.00  0.00    -0.399 OA
ATOM     58  H8  HYB d   1       1.771  15.798  -0.682  0.00  0.00     0.209 HD
ENDBRANCH  54  57
ENDBRANCH  52  54
BRANCH  52  59
ATOM     59  C18 HYB d   1       3.260  19.198  -1.043  0.00  0.00    -0.020 C 
ATOM     60  H13 HYB d   1       3.049  18.990  -2.102  0.00  0.00     0.043 H 
ATOM     61  H14 HYB d   1       3.957  18.442  -0.652  0.00  0.00     0.043 H 
BRANCH  59  62
ATOM     62  C19 HYB d   1       3.985  20.527  -0.994  0.00  0.00    -0.056 A 
ATOM     63  C20 HYB d   1       5.032  20.801  -0.107  0.00  0.00    -0.077 A 
ATOM     64  C21 HYB d   1       5.734  22.013  -0.110  0.00  0.00    -0.082 A 
ATOM     65  H15 HYB d   1       5.312  20.042   0.614  0.00  0.00     0.084 H 
ATOM     66  C22 HYB d   1       5.369  22.999  -1.034  0.00  0.00    -0.083 A 
ATOM     67  H16 HYB d   1       6.544  22.184   0.590  0.00  0.00     0.083 H 
ATOM     68  C23 HYB d   1       4.347  22.743  -1.945  0.00  0.00    -0.082 A 
ATOM     69  H17 HYB d   1       5.878  23.956  -1.040  0.00  0.00     0.083 H 
ATOM     70  C24 HYB d   1       3.659  21.526  -1.927  0.00  0.00    -0.077 A 
ATOM     71  H18 HYB d   1       4.082  23.497  -2.677  0.00  0.00     0.083 H 
ATOM     72  H19 HYB d   1       2.864  21.351  -2.642  0.00  0.00     0.084 H 
ENDBRANCH  59  62
ENDBRANCH  52  59
ENDBRANCH  50  52
ENDBRANCH  46  48
BRANCH  46  73
ATOM     73  C29 HYB d   1       1.381  19.922   4.675  0.00  0.00    -0.033 C 
ATOM     74  H22 HYB d   1       1.479  21.015   4.747  0.00  0.00     0.042 H 
BRANCH  73  75
ATOM     75  C30 HYB d   1      -0.090  19.597   4.367  0.00  0.00    -0.071 C 
ATOM     76  H23 HYB d   1      -0.728  19.980   5.177  0.00  0.00     0.028 H 
ATOM     77  H24 HYB d   1      -0.216  18.507   4.286  0.00  0.00     0.028 H 
ATOM     78  H25 HYB d   1      -0.379  20.071   3.417  0.00  0.00     0.028 H 
ENDBRANCH  73  75
BRANCH  73  79
ATOM     79  C31 HYB d   1       1.870  19.288   5.998  0.00  0.00    -0.071 C 
ATOM     80  H26 HYB d   1       2.924  19.554   6.164  0.00  0.00     0.028 H 
ATOM     81  H27 HYB d   1       1.773  18.194   5.938  0.00  0.00     0.028 H 
ATOM     82  H28 HYB d   1       1.261  19.665   6.833  0.00  0.00     0.028 H 
ENDBRANCH  73  79
ENDBRANCH  46  73
ENDBRANCH   1  46
TORSDOF 19
