REMARK  5 active torsions:
REMARK  status: ('A' for Active; 'I' for Inactive)
REMARK    1  A    between atoms: C4_1  and  O4_2 
REMARK    2  A    between atoms: C3_3  and  O3_4 
REMARK    3  A    between atoms: C2_5  and  O2_6 
REMARK    4  A    between atoms: C5_9  and  C6_10 
REMARK    5  A    between atoms: C6_10  and  O6_11 
ROOT
ATOM      1  C4  DMJ d   1      39.009  40.268  25.513  0.00  0.00     0.092 C 
ATOM      2  C3  DMJ d   1      37.824  39.190  25.527  0.00  0.00     0.088 C 
ATOM      3  C2  DMJ d   1      36.533  39.807  26.231  0.00  0.00     0.086 C 
ATOM      4  C1  DMJ d   1      36.111  41.142  25.488  0.00  0.00     0.108 C 
ATOM      5  N5  DMJ d   1      37.272  42.018  25.583  0.00  0.00    -0.064 N 
ATOM      6  C5  DMJ d   1      38.593  41.640  24.847  0.00  0.00     0.149 C 
ATOM      7  H1  DMJ d   1      39.909  39.857  25.032  0.00  0.00     0.090 H 
ATOM      8  H3  DMJ d   1      38.169  38.329  26.119  0.00  0.00     0.091 H 
ATOM      9  H5  DMJ d   1      36.778  40.048  27.276  0.00  0.00     0.089 H 
ATOM     10  H7  DMJ d   1      35.241  41.600  25.982  0.00  0.00     0.079 H 
ATOM     11  H8  DMJ d   1      35.868  40.937  24.435  0.00  0.00     0.079 H 
ATOM     12  H9  DMJ d   1      37.497  42.099  26.562  0.00  0.00     0.277 HD
ATOM     13  H10 DMJ d   1      36.988  42.918  25.228  0.00  0.00     0.277 HD
ATOM     14  H11 DMJ d   1      39.368  42.397  25.038  0.00  0.00     0.091 H 
ENDROOT
BRANCH   6  15
ATOM     15  C6  DMJ d   1      38.369  41.545  23.307  0.00  0.00     0.046 C 
ATOM     16  H12 DMJ d   1      37.471  40.911  23.265  0.00  0.00     0.077 H 
ATOM     17  H13 DMJ d   1      39.248  40.957  23.004  0.00  0.00     0.077 H 
BRANCH  15  18
ATOM     18  O6  DMJ d   1      38.177  42.367  22.146  0.00  0.00    -0.399 OA
ATOM     19  H14 DMJ d   1      38.079  41.813  21.380  0.00  0.00     0.209 HD
ENDBRANCH  15  18
ENDBRANCH   6  15
BRANCH   1  20
ATOM     20  O4  DMJ d   1      39.217  40.581  26.898  0.00  0.00    -0.391 OA
ATOM     21  H2  DMJ d   1      39.459  39.791  27.367  0.00  0.00     0.210 HD
ENDBRANCH   1  20
BRANCH   2  22
ATOM     22  O3  DMJ d   1      37.451  38.710  24.240  0.00  0.00    -0.390 OA
ATOM     23  H4  DMJ d   1      38.212  38.339  23.809  0.00  0.00     0.210 HD
ENDBRANCH   2  22
BRANCH   3  24
ATOM     24  O2  DMJ d   1      35.478  38.859  26.221  0.00  0.00    -0.391 OA
ATOM     25  H6  DMJ d   1      34.720  39.225  26.662  0.00  0.00     0.210 HD
ENDBRANCH   3  24
TORSDOF 5
