REMARK  5 active torsions:
REMARK  status: ('A' for Active; 'I' for Inactive)
REMARK    1  A    between atoms: C4_1  and  O4_2 
REMARK    2  A    between atoms: C3_3  and  O3_4 
REMARK    3  A    between atoms: C2_5  and  O2_6 
REMARK    4  A    between atoms: C5_14  and  C6_15 
REMARK    5  A    between atoms: C6_15  and  O6_16 
ROOT
ATOM      1  C4  KIF d   1      38.532  40.252  25.692  0.00  0.00     0.084 C 
ATOM      2  C3  KIF d   1      37.275  39.281  25.561  0.00  0.00     0.090 C 
ATOM      3  C2  KIF d   1      35.992  39.966  26.176  0.00  0.00     0.099 C 
ATOM      4  C1  KIF d   1      35.778  41.348  25.464  0.00  0.00     0.111 C 
ATOM      5  N9  KIF d   1      34.651  42.070  26.075  0.00  0.00    -0.329 N 
ATOM      6  C8  KIF d   1      35.126  43.336  26.178  0.00  0.00     0.311 C 
ATOM      7  O8  KIF d   1      34.442  44.318  26.409  0.00  0.00    -0.262 OA
ATOM      8  C7  KIF d   1      36.603  43.356  25.967  0.00  0.00     0.313 C 
ATOM      9  O7  KIF d   1      37.326  44.335  26.004  0.00  0.00    -0.262 OA
ATOM     10  N   KIF d   1      36.952  42.104  25.792  0.00  0.00    -0.311 N 
ATOM     11  C5  KIF d   1      38.261  41.689  25.120  0.00  0.00     0.064 C 
ATOM     12  H1  KIF d   1      39.413  39.803  25.210  0.00  0.00     0.090 H 
ATOM     13  H3  KIF d   1      37.499  38.369  26.133  0.00  0.00     0.091 H 
ATOM     14  H5  KIF d   1      36.149  40.135  27.252  0.00  0.00     0.093 H 
ATOM     15  H7  KIF d   1      35.639  41.230  24.379  0.00  0.00     0.111 H 
ATOM     16  H8  KIF d   1      33.757  41.715  26.347  0.00  0.00     0.165 HD
ATOM     17  H9  KIF d   1      39.064  42.368  25.444  0.00  0.00     0.080 H 
ENDROOT
BRANCH  11  18
ATOM     18  C6  KIF d   1      38.219  41.731  23.561  0.00  0.00     0.038 C 
ATOM     19  H10 KIF d   1      37.641  40.820  23.348  0.00  0.00     0.077 H 
ATOM     20  H11 KIF d   1      39.279  41.557  23.323  0.00  0.00     0.077 H 
BRANCH  18  21
ATOM     21  O6  KIF d   1      37.830  42.559  22.454  0.00  0.00    -0.399 OA
ATOM     22  H12 KIF d   1      36.899  42.739  22.507  0.00  0.00     0.209 HD
ENDBRANCH  18  21
ENDBRANCH  11  18
BRANCH   1  23
ATOM     23  O4  KIF d   1      38.733  40.458  27.103  0.00  0.00    -0.391 OA
ATOM     24  H2  KIF d   1      38.900  39.623  27.523  0.00  0.00     0.210 HD
ENDBRANCH   1  23
BRANCH   2  25
ATOM     25  O3  KIF d   1      36.969  38.897  24.221  0.00  0.00    -0.390 OA
ATOM     26  H4  KIF d   1      37.729  38.482  23.830  0.00  0.00     0.210 HD
ENDBRANCH   2  25
BRANCH   3  27
ATOM     27  O2  KIF d   1      34.857  39.120  26.004  0.00  0.00    -0.389 OA
ATOM     28  H6  KIF d   1      34.091  39.540  26.377  0.00  0.00     0.210 HD
ENDBRANCH   3  27
TORSDOF 5
