REMARK  7 active torsions:
REMARK  status: ('A' for Active; 'I' for Inactive)
REMARK    1  A    between atoms: P_1  and  O5'_5 
REMARK    2  A    between atoms: O5'_5  and  C5'_6 
REMARK    3  A    between atoms: C5'_6  and  C4'_7 
REMARK    4  A    between atoms: C3'_9  and  O3'_10 
REMARK    5  A    between atoms: C2'_11  and  O2'_12 
REMARK    6  A    between atoms: C1'_13  and  N9_14 
REMARK    7  A    between atoms: C6_18  and  N6_19 
ROOT
ATOM      1  C4' AMP d   1      34.107  94.245 -14.129  0.00  0.00     0.089 C 
ATOM      2  O4' AMP d   1      32.775  93.738 -13.949  0.00  0.00    -0.353 OA
ATOM      3  C3' AMP d   1      34.333  94.939 -12.752  0.00  0.00     0.091 C 
ATOM      4  C2' AMP d   1      32.997  95.637 -12.489  0.00  0.00     0.105 C 
ATOM      5  C1' AMP d   1      32.305  94.279 -12.690  0.00  0.00     0.139 C 
ATOM      6  H3  AMP d   1      34.161  94.961 -14.963  0.00  0.00     0.090 H 
ATOM      7  H4  AMP d   1      34.478  94.161 -11.988  0.00  0.00     0.091 H 
ATOM      8  H6  AMP d   1      32.870  96.123 -11.510  0.00  0.00     0.093 H 
ATOM      9  H8  AMP d   1      31.268  94.572 -12.911  0.00  0.00     0.122 H 
ENDROOT
BRANCH   5  10
ATOM     10  N9  AMP d   1      32.087  93.333 -11.574  0.00  0.00    -0.294 N 
ATOM     11  C8  AMP d   1      32.811  92.195 -11.360  0.00  0.00     0.071 A 
ATOM     12  N7  AMP d   1      32.323  91.659 -10.212  0.00  0.00    -0.236 NA
ATOM     13  H9  AMP d   1      33.613  91.799 -11.981  0.00  0.00     0.144 H 
ATOM     14  C5  AMP d   1      31.306  92.409  -9.682  0.00  0.00     0.149 A 
ATOM     15  C6  AMP d   1      30.499  92.356  -8.582  0.00  0.00     0.155 A 
ATOM     16  C4  AMP d   1      31.144  93.487 -10.537  0.00  0.00     0.167 A 
ATOM     17  N1  AMP d   1      29.616  93.326  -8.408  0.00  0.00    -0.222 NA
ATOM     18  C2  AMP d   1      29.460  94.356  -9.223  0.00  0.00     0.091 A 
ATOM     19  N3  AMP d   1      30.233  94.475 -10.322  0.00  0.00    -0.222 NA
ATOM     20  H12 AMP d   1      28.709  95.107  -9.007  0.00  0.00     0.146 H 
BRANCH  15  21
ATOM     21  N6  AMP d   1      30.610  91.420  -7.607  0.00  0.00    -0.382 N 
ATOM     22  H10 AMP d   1      29.968  91.436  -6.802  0.00  0.00     0.157 HD
ATOM     23  H11 AMP d   1      31.336  90.693  -7.672  0.00  0.00     0.157 HD
ENDBRANCH  15  21
ENDBRANCH   5  10
BRANCH   4  24
ATOM     24  O2' AMP d   1      32.711  96.441 -13.502  0.00  0.00    -0.388 OA
ATOM     25  H7  AMP d   1      32.651  95.932 -14.302  0.00  0.00     0.210 HD
ENDBRANCH   4  24
BRANCH   1  26
ATOM     26  C5' AMP d   1      35.121  93.119 -14.352  0.00  0.00     0.059 C 
ATOM     27  H1  AMP d   1      35.014  92.711 -15.368  0.00  0.00     0.079 H 
ATOM     28  H2  AMP d   1      36.144  93.500 -14.215  0.00  0.00     0.079 H 
BRANCH  26  29
ATOM     29  O5' AMP d   1      34.836  92.082 -13.363  0.00  0.00    -0.280 OA
BRANCH  29  30
ATOM     30  P   AMP d   1      35.862  90.957 -13.288  0.00  0.00     0.422 P 
ATOM     31  O1P AMP d   1      37.230  91.458 -12.947  0.00  0.00    -0.617 OA
ATOM     32  O2P AMP d   1      35.404  90.087 -12.157  0.00  0.00    -0.617 OA
ATOM     33  O3P AMP d   1      35.759  90.136 -14.564  0.00  0.00    -0.617 OA
ENDBRANCH  29  30
ENDBRANCH  26  29
ENDBRANCH   1  26
BRANCH   3  34
ATOM     34  O3' AMP d   1      35.370  95.707 -12.689  0.00  0.00    -0.390 OA
ATOM     35  H5  AMP d   1      36.151  95.197 -12.868  0.00  0.00     0.210 HD
ENDBRANCH   3  34
TORSDOF 7
