REMARK  6 active torsions:
REMARK  status: ('A' for Active; 'I' for Inactive)
REMARK    1  A    between atoms: NP_1  and  CAP_2 
REMARK    2  A    between atoms: CAP_2  and  CBP_3 
REMARK    3  A    between atoms: CAP_2  and  CP_9 
REMARK    4  A    between atoms: CBP_3  and  CGP_4 
REMARK    5  A    between atoms: CGP_4  and  PDP_5 
REMARK    6  A    between atoms: PDP_5  and  CEP_6 
ROOT
ATOM      1  CBP PPQ d   1     -86.895  14.663 -70.236  0.00  0.00    -0.020 C 
ATOM      2  H5  PPQ d   1     -87.859  15.151 -70.030  0.00  0.00     0.037 H 
ATOM      3  H6  PPQ d   1     -87.037  13.875 -70.990  0.00  0.00     0.037 H 
ENDROOT
BRANCH   1   4
ATOM      4  CAP PPQ d   1     -86.402  14.017 -68.955  0.00  0.00     0.183 C 
ATOM      5  H4  PPQ d   1     -86.426  14.769 -68.152  0.00  0.00     0.101 H 
BRANCH   4   6
ATOM      6  NP  PPQ d   1     -85.029  13.578 -69.152  0.00  0.00    -0.065 N 
ATOM      7  H1  PPQ d   1     -84.462  14.363 -69.431  0.00  0.00     0.275 HD
ATOM      8  H2  PPQ d   1     -85.002  12.872 -69.871  0.00  0.00     0.275 HD
ATOM      9  H3  PPQ d   1     -84.672  13.195 -68.291  0.00  0.00     0.275 HD
ENDBRANCH   4   6
BRANCH   4  10
ATOM     10  CP  PPQ d   1     -87.282  12.823 -68.527  0.00  0.00     0.204 C 
ATOM     11  OP  PPQ d   1     -88.325  12.561 -69.133  0.00  0.00    -0.646 OA
ATOM     12  OTP PPQ d   1     -86.977  12.251 -67.473  0.00  0.00    -0.646 OA
ENDBRANCH   4  10
ENDBRANCH   1   4
BRANCH   1  13
ATOM     13  CGP PPQ d   1     -85.940  15.705 -70.803  0.00  0.00     0.009 C 
ATOM     14  H7  PPQ d   1     -85.044  15.119 -71.055  0.00  0.00     0.048 H 
ATOM     15  H8  PPQ d   1     -85.725  16.351 -69.939  0.00  0.00     0.048 H 
BRANCH  13  16
ATOM     16  PDP PPQ d   1     -86.074  16.854 -72.152  0.00  0.00     0.102 P 
ATOM     17  OEA PPQ d   1     -84.822  16.792 -72.903  0.00  0.00    -0.668 OA
ATOM     18  OEB PPQ d   1     -86.156  18.290 -71.572  0.00  0.00    -0.668 OA
BRANCH  16  19
ATOM     19  CEP PPQ d   1     -87.414  16.731 -73.265  0.00  0.00    -0.005 C 
ATOM     20  H9  PPQ d   1     -87.331  17.519 -74.028  0.00  0.00     0.041 H 
ATOM     21  H10 PPQ d   1     -88.359  16.851 -72.716  0.00  0.00     0.041 H 
ATOM     22  H11 PPQ d   1     -87.396  15.745 -73.753  0.00  0.00     0.041 H 
ENDBRANCH  16  19
ENDBRANCH  13  16
ENDBRANCH   1  13
TORSDOF 6
