REMARK  1 active torsions:
REMARK  status: ('A' for Active; 'I' for Inactive)
REMARK    1  A    between atoms: C2_8  and  N2_9 
ROOT
ATOM      1  C9  9DG d   1      17.857  39.741 -15.203  0.00  0.00    -0.037 A 
ATOM      2  C8  9DG d   1      17.095  38.640 -15.288  0.00  0.00    -0.020 A 
ATOM      3  N7  9DG d   1      16.291  38.552 -14.176  0.00  0.00    -0.359 N 
ATOM      4  C5  9DG d   1      16.524  39.677 -13.368  0.00  0.00     0.131 A 
ATOM      5  C6  9DG d   1      15.865  40.110 -12.223  0.00  0.00     0.288 A 
ATOM      6  O6  9DG d   1      14.975  39.554 -11.548  0.00  0.00    -0.265 OA
ATOM      7  N1  9DG d   1      16.418  41.328 -11.796  0.00  0.00    -0.153 N 
ATOM      8  C2  9DG d   1      17.381  42.022 -12.426  0.00  0.00     0.701 A 
ATOM      9  N3  9DG d   1      17.997  41.615 -13.481  0.00  0.00    -0.063 NA
ATOM     10  C4  9DG d   1      17.528  40.412 -13.996  0.00  0.00     0.109 A 
ATOM     11  H1  9DG d   1      18.598  40.064 -15.932  0.00  0.00     0.089 H 
ATOM     12  H2  9DG d   1      17.111  37.926 -16.110  0.00  0.00     0.111 H 
ATOM     13  H3  9DG d   1      15.630  37.790 -13.970  0.00  0.00     0.165 HD
ATOM     14  H4  9DG d   1      16.063  41.715 -10.945  0.00  0.00     0.187 HD
ENDROOT
BRANCH   8  15
ATOM     15  N2  9DG d   1      17.742  43.205 -11.830  0.00  0.00    -0.233 N 
ATOM     16  H5  9DG d   1      18.474  43.793 -12.254  0.00  0.00     0.174 HD
ATOM     17  H6  9DG d   1      17.281  43.505 -10.959  0.00  0.00     0.174 HD
ENDBRANCH   8  15
TORSDOF 1
