REMARK  6 active torsions:
REMARK  status: ('A' for Active; 'I' for Inactive)
REMARK    1  A    between atoms: B_1  and  O1_2 
REMARK    2  A    between atoms: B_1  and  O2_3 
REMARK    3  A    between atoms: B_1  and  C3_4 
REMARK    4  A    between atoms: C3_4  and  N4_5 
REMARK       I    between atoms: N4_5  and  C5_6 
REMARK    5  A    between atoms: C5_6  and  C7_8 
REMARK    6  A    between atoms: C7_8  and  C8_9 
ROOT
ATOM      1  N4  CTB d   1      25.187   6.737  15.372  0.00  0.00    -0.364 N 
ATOM      2  C5  CTB d   1      24.525   7.175  14.272  0.00  0.00     0.221 C 
ATOM      3  O6  CTB d   1      24.920   6.879  13.125  0.00  0.00    -0.273 OA
ATOM      4  H5  CTB d   1      24.850   6.966  16.285  0.00  0.00     0.161 HD
ENDROOT
BRANCH   2   5
ATOM      5  C7  CTB d   1      23.261   8.024  14.435  0.00  0.00     0.039 C 
ATOM      6  H6  CTB d   1      23.107   8.611  13.518  0.00  0.00     0.055 H 
ATOM      7  H7  CTB d   1      23.398   8.705  15.288  0.00  0.00     0.055 H 
BRANCH   5   8
ATOM      8  C8  CTB d   1      22.130   7.239  14.663  0.00  0.00    -0.009 A 
ATOM      9  C9  CTB d   1      21.825   6.861  15.941  0.00  0.00    -0.069 A 
ATOM     10  C10 CTB d   1      20.692   6.078  15.932  0.00  0.00    -0.076 A 
ATOM     11  H8  CTB d   1      22.391   7.137  16.830  0.00  0.00     0.085 H 
ATOM     12  C11 CTB d   1      20.197   5.899  14.642  0.00  0.00    -0.045 A 
ATOM     13  H9  CTB d   1      20.238   5.651  16.825  0.00  0.00     0.084 H 
ATOM     14  S1  CTB d   1      21.110   6.693  13.394  0.00  0.00    -0.106 SA
ATOM     15  H10 CTB d   1      19.307   5.308  14.432  0.00  0.00     0.095 H 
ENDBRANCH   5   8
ENDBRANCH   2   5
BRANCH   1  16
ATOM     16  C3  CTB d   1      26.414   5.916  15.213  0.00  0.00     0.030 C 
ATOM     17  H3  CTB d   1      26.314   5.297  14.309  0.00  0.00     0.057 H 
ATOM     18  H4  CTB d   1      27.279   6.586  15.104  0.00  0.00     0.057 H 
BRANCH  16  19
ATOM     19  B   CTB d   1      26.647   4.987  16.436  0.00  0.00     0.510 B 
BRANCH  19  20
ATOM     20  O1  CTB d   1      25.489   4.014  16.589  0.00  0.00    -0.436 OA
ATOM     21  H1  CTB d   1      25.404   3.498  15.796  0.00  0.00     0.184 HD
ENDBRANCH  19  20
BRANCH  19  22
ATOM     22  O2  CTB d   1      26.799   5.805  17.665  0.00  0.00    -0.436 OA
ATOM     23  H2  CTB d   1      27.525   6.407  17.555  0.00  0.00     0.184 HD
ENDBRANCH  19  22
ENDBRANCH  16  19
ENDBRANCH   1  16
TORSDOF 6
