REMARK  7 active torsions:
REMARK  status: ('A' for Active; 'I' for Inactive)
REMARK    1  A    between atoms: B_1  and  O1_2 
REMARK    2  A    between atoms: B_1  and  O2_3 
REMARK    3  A    between atoms: C3_4  and  B_1 
REMARK    4  A    between atoms: N4_5  and  C3_4 
REMARK       I    between atoms: C5_6  and  N4_5 
REMARK    5  A    between atoms: C7_8  and  C5_6 
REMARK    6  A    between atoms: C8_11  and  C9_13 
REMARK    7  A    between atoms: C12_12  and  C13_14 
ROOT
ATOM      1  C7  105 d   1      22.971   5.721  12.999  0.00  0.00     0.095 A 
ATOM      2  N11 105 d   1      20.734   6.080  13.351  0.00  0.00    -0.127 NA
ATOM      3  O10 105 d   1      20.928   5.346  12.118  0.00  0.00    -0.217 OA
ATOM      4  C8  105 d   1      22.239   5.214  12.039  0.00  0.00     0.093 A 
ATOM      5  C12 105 d   1      21.943   6.288  13.837  0.00  0.00     0.114 A 
ENDROOT
BRANCH   1   6
ATOM      6  C5  105 d   1      24.371   5.852  13.288  0.00  0.00     0.256 C 
ATOM      7  N4  105 d   1      24.749   5.603  14.564  0.00  0.00    -0.360 N 
ATOM      8  H5  105 d   1      24.055   5.323  15.228  0.00  0.00     0.161 HD
ATOM      9  O6  105 d   1      25.147   6.219  12.402  0.00  0.00    -0.268 OA
BRANCH   7  10
ATOM     10  C3  105 d   1      26.151   5.731  15.008  0.00  0.00     0.030 C 
ATOM     11  H3  105 d   1      26.818   5.387  14.204  0.00  0.00     0.057 H 
ATOM     12  H4  105 d   1      26.364   6.786  15.234  0.00  0.00     0.057 H 
BRANCH  10  13
ATOM     13  B   105 d   1      26.404   4.871  16.288  0.00  0.00     0.510 B 
BRANCH  13  14
ATOM     14  O1  105 d   1      25.270   3.874  16.501  0.00  0.00    -0.436 OA
ATOM     15  H1  105 d   1      25.186   3.322  15.732  0.00  0.00     0.184 HD
ENDBRANCH  13  14
BRANCH  13  16
ATOM     16  O2  105 d   1      26.550   5.740  17.477  0.00  0.00    -0.436 OA
ATOM     17  H2  105 d   1      27.259   6.356  17.332  0.00  0.00     0.184 HD
ENDBRANCH  13  16
ENDBRANCH  10  13
ENDBRANCH   7  10
ENDBRANCH   1   6
BRANCH   4  18
ATOM     18  C9  105 d   1      22.879   4.489  10.884  0.00  0.00    -0.028 C 
ATOM     19  H6  105 d   1      22.098   4.142  10.191  0.00  0.00     0.036 H 
ATOM     20  H7  105 d   1      23.445   3.624  11.262  0.00  0.00     0.036 H 
ATOM     21  H8  105 d   1      23.561   5.171  10.356  0.00  0.00     0.036 H 
ENDBRANCH   4  18
BRANCH   5  22
ATOM     22  C13 105 d   1      21.971   7.055  15.167  0.00  0.00     0.018 A 
ATOM     23  C14 105 d   1      22.702   8.311  15.263  0.00  0.00     0.046 A 
ATOM     24 CL1  105 d   1      23.419   9.083  13.817  0.00  0.00    -0.083 Cl
ATOM     25  C15 105 d   1      22.886   8.942  16.519  0.00  0.00    -0.061 A 
ATOM     26  C16 105 d   1      22.342   8.346  17.687  0.00  0.00    -0.081 A 
ATOM     27  H9  105 d   1      23.438   9.873  16.587  0.00  0.00     0.086 H 
ATOM     28  C17 105 d   1      21.606   7.126  17.597  0.00  0.00    -0.082 A 
ATOM     29  H10 105 d   1      22.486   8.819  18.651  0.00  0.00     0.083 H 
ATOM     30  C18 105 d   1      21.419   6.481  16.339  0.00  0.00    -0.069 A 
ATOM     31  H11 105 d   1      21.185   6.686  18.494  0.00  0.00     0.083 H 
ATOM     32  H12 105 d   1      20.857   5.556  16.280  0.00  0.00     0.085 H 
ENDBRANCH   5  22
TORSDOF 7
