REMARK  6 active torsions:
REMARK  status: ('A' for Active; 'I' for Inactive)
REMARK    1  A    between atoms: C3_3  and  N7_7 
REMARK    2  A    between atoms: C5_5  and  C10_10 
REMARK    3  A    between atoms: N19_19  and  C23_23 
REMARK    4  A    between atoms: C23_23  and  C24_24 
REMARK    5  A    between atoms: C24_24  and  C25_25 
REMARK    6  A    between atoms: C25_25  and  N26_26 
ROOT
ATOM      1  C10 703 d   1      18.052   1.343  24.824  0.00  0.00     0.018 A 
ATOM      2  S11 703 d   1      19.777   1.317  24.802  0.00  0.00    -0.087 SA
ATOM      3  C12 703 d   1      20.002  -0.313  24.304  0.00  0.00     0.035 A 
ATOM      4  C13 703 d   1      18.651  -0.876  24.117  0.00  0.00     0.060 A 
ATOM      5  C14 703 d   1      17.557   0.055  24.404  0.00  0.00    -0.038 A 
ATOM      6  N15 703 d   1      19.042  -2.108  23.658  0.00  0.00    -0.283 N 
ATOM      7  C16 703 d   1      20.308  -2.369  23.536  0.00  0.00     0.097 A 
ATOM      8  C17 703 d   1      21.057  -1.260  23.961  0.00  0.00    -0.034 A 
ATOM      9  C18 703 d   1      18.424  -3.199  23.144  0.00  0.00     0.188 A 
ATOM     10  N19 703 d   1      19.296  -4.185  22.650  0.00  0.00    -0.300 N 
ATOM     11  C20 703 d   1      20.570  -3.636  22.916  0.00  0.00     0.210 A 
ATOM     12  S21 703 d   1      16.677  -3.334  23.153  0.00  0.00    -0.040 SA
ATOM     13  O22 703 d   1      21.738  -4.158  22.556  0.00  0.00    -0.169 OA
ATOM     14  H5  703 d   1      16.501  -0.194  24.312  0.00  0.00     0.089 H 
ATOM     15  H6  703 d   1      22.138  -1.139  24.019  0.00  0.00     0.089 H 
ENDROOT
BRANCH  10  16
ATOM     16  C23 703 d   1      18.943  -5.425  21.894  0.00  0.00     0.006 C 
ATOM     17  H7  703 d   1      18.630  -5.126  20.883  0.00  0.00     0.065 H 
ATOM     18  H8  703 d   1      18.101  -5.907  22.412  0.00  0.00     0.065 H 
BRANCH  16  19
ATOM     19  C24 703 d   1      20.063  -6.463  21.751  0.00  0.00    -0.027 C 
ATOM     20  H9  703 d   1      19.740  -7.402  22.224  0.00  0.00     0.037 H 
ATOM     21  H10 703 d   1      20.963  -6.087  22.260  0.00  0.00     0.037 H 
BRANCH  19  22
ATOM     22  C25 703 d   1      20.405  -6.741  20.276  0.00  0.00     0.085 C 
ATOM     23  H11 703 d   1      20.973  -5.887  19.878  0.00  0.00     0.076 H 
ATOM     24  H12 703 d   1      19.468  -6.853  19.712  0.00  0.00     0.076 H 
BRANCH  22  25
ATOM     25  N26 703 d   1      21.222  -7.983  20.102  0.00  0.00    -0.067 N 
ATOM     26  C27 703 d   1      20.441  -9.174  19.648  0.00  0.00     0.103 C 
ATOM     27  C28 703 d   1      21.269 -10.470  19.650  0.00  0.00     0.042 C 
ATOM     28  H14 703 d   1      20.082  -8.989  18.625  0.00  0.00     0.079 H 
ATOM     29  H15 703 d   1      19.581  -9.306  20.320  0.00  0.00     0.079 H 
ATOM     30  O29 703 d   1      22.473 -10.322  18.856  0.00  0.00    -0.388 OA
ATOM     31  H16 703 d   1      20.661 -11.285  19.232  0.00  0.00     0.076 H 
ATOM     32  H17 703 d   1      21.549 -10.716  20.685  0.00  0.00     0.076 H 
ATOM     33  C30 703 d   1      23.255  -9.180  19.305  0.00  0.00     0.042 C 
ATOM     34  C31 703 d   1      22.454  -7.864  19.280  0.00  0.00     0.103 C 
ATOM     35  H18 703 d   1      24.130  -9.072  18.647  0.00  0.00     0.076 H 
ATOM     36  H19 703 d   1      23.592  -9.367  20.335  0.00  0.00     0.076 H 
ATOM     37  H20 703 d   1      23.079  -7.053  19.682  0.00  0.00     0.079 H 
ATOM     38  H21 703 d   1      22.174  -7.631  18.242  0.00  0.00     0.079 H 
ATOM     39  H13 703 d   1      21.543  -8.203  21.032  0.00  0.00     0.280 HD
ENDBRANCH  22  25
ENDBRANCH  19  22
ENDBRANCH  16  19
ENDBRANCH  10  16
BRANCH   1  40
ATOM     40  C5  703 d   1      17.363   2.497  25.555  0.00  0.00    -0.017 A 
ATOM     41  C4  703 d   1      17.907   2.522  26.828  0.00  0.00    -0.040 A 
ATOM     42  C3  703 d   1      17.528   3.417  27.808  0.00  0.00     0.103 A 
ATOM     43  H3  703 d   1      18.675   1.796  27.069  0.00  0.00     0.088 H 
ATOM     44  C2  703 d   1      16.494   4.351  27.548  0.00  0.00    -0.051 A 
ATOM     45  C1  703 d   1      15.911   4.462  26.252  0.00  0.00    -0.080 A 
ATOM     46  H2  703 d   1      16.141   4.992  28.348  0.00  0.00     0.087 H 
ATOM     47  C6  703 d   1      16.363   3.505  25.249  0.00  0.00    -0.072 A 
ATOM     48  H1  703 d   1      15.170   5.219  26.024  0.00  0.00     0.083 H 
ATOM     49  H4  703 d   1      15.943   3.547  24.251  0.00  0.00     0.084 H 
BRANCH  42  50
ATOM     50  N7  703 d   1      18.445   3.453  28.974  0.00  0.00    -0.116 N 
ATOM     51  O8  703 d   1      19.043   2.387  29.299  0.00  0.00    -0.532 OA
ATOM     52  O9  703 d   1      18.588   4.581  29.490  0.00  0.00    -0.532 OA
ENDBRANCH  42  50
ENDBRANCH   1  40
TORSDOF 6
