REMARK  6 active torsions:
REMARK  status: ('A' for Active; 'I' for Inactive)
REMARK    1  A    between atoms: P_1  and  O5'_5 
REMARK    2  A    between atoms: O5'_5  and  C5'_6 
REMARK    3  A    between atoms: C5'_6  and  C4'_7 
REMARK    4  A    between atoms: C3'_9  and  O3'_10 
REMARK    5  A    between atoms: C2'_11  and  O2'_12 
REMARK    6  A    between atoms: C1'_13  and  N9_14 
ROOT
ATOM      1  C4' AMP d   1      17.851  61.728  15.558  0.00  0.00     0.089 C 
ATOM      2  O4' AMP d   1      18.384  61.887  16.894  0.00  0.00    -0.353 OA
ATOM      3  C3' AMP d   1      18.434  60.415  15.007  0.00  0.00     0.091 C 
ATOM      4  C2' AMP d   1      19.644  60.138  15.906  0.00  0.00     0.105 C 
ATOM      5  C1' AMP d   1      19.419  60.994  17.184  0.00  0.00     0.139 C 
ATOM      6  H3  AMP d   1      18.149  62.575  14.923  0.00  0.00     0.090 H 
ATOM      7  H4  AMP d   1      17.696  59.612  15.147  0.00  0.00     0.091 H 
ATOM      8  H6  AMP d   1      19.642  59.075  16.188  0.00  0.00     0.093 H 
ATOM      9  H8  AMP d   1      20.338  61.562  17.389  0.00  0.00     0.122 H 
ENDROOT
BRANCH   5  10
ATOM     10  N9  AMP d   1      19.094  60.179  18.426  0.00  0.00    -0.294 N 
ATOM     11  C8  AMP d   1      17.871  59.622  18.714  0.00  0.00     0.071 C 
ATOM     12  N7  AMP d   1      17.964  58.665  19.693  0.00  0.00    -0.236 NA
ATOM     13  H9  AMP d   1      16.941  59.906  18.224  0.00  0.00     0.144 H 
ATOM     14  C5  AMP d   1      19.305  58.569  19.934  0.00  0.00     0.149 C 
ATOM     15  C6  AMP d   1      19.953  57.599  20.721  0.00  0.00     0.155 C 
ATOM     16  C4  AMP d   1      19.990  59.374  19.045  0.00  0.00     0.167 C 
ATOM     17  N6  AMP d   1      19.306  56.834  21.572  0.00  0.00    -0.382 N 
ATOM     18  N1  AMP d   1      21.310  57.768  20.799  0.00  0.00    -0.222 NA
ATOM     19  H10 AMP d   1      19.818  56.136  22.129  0.00  0.00     0.157 HD
ATOM     20  H11 AMP d   1      18.287  56.933  21.681  0.00  0.00     0.157 HD
ATOM     21  C2  AMP d   1      21.947  58.460  19.795  0.00  0.00     0.091 C 
ATOM     22  N3  AMP d   1      21.337  59.433  19.061  0.00  0.00    -0.222 NA
ATOM     23  H12 AMP d   1      22.982  58.220  19.578  0.00  0.00     0.146 H 
ENDBRANCH   5  10
BRANCH   4  24
ATOM     24  O2' AMP d   1      20.882  60.404  15.261  0.00  0.00    -0.388 OA
ATOM     25  H7  AMP d   1      20.961  59.854  14.490  0.00  0.00     0.210 HD
ENDBRANCH   4  24
BRANCH   1  26
ATOM     26  C5' AMP d   1      16.408  61.645  15.615  0.00  0.00     0.059 C 
ATOM     27  H1  AMP d   1      15.979  62.580  16.005  0.00  0.00     0.079 H 
ATOM     28  H2  AMP d   1      15.990  61.436  14.619  0.00  0.00     0.079 H 
BRANCH  26  29
ATOM     29  O5' AMP d   1      16.147  60.534  16.530  0.00  0.00    -0.280 OA
BRANCH  29  30
ATOM     30  P   AMP d   1      14.660  60.077  16.722  0.00  0.00     0.422 P 
ATOM     31  O1P AMP d   1      14.171  59.331  15.526  0.00  0.00    -0.617 OA
ATOM     32  O2P AMP d   1      13.740  61.240  16.939  0.00  0.00    -0.617 OA
ATOM     33  O3P AMP d   1      14.524  59.169  17.949  0.00  0.00    -0.617 OA
ENDBRANCH  29  30
ENDBRANCH  26  29
ENDBRANCH   1  26
BRANCH   3  34
ATOM     34  O3' AMP d   1      18.742  60.457  13.624  0.00  0.00    -0.390 OA
ATOM     35  H5  AMP d   1      19.384  61.139  13.464  0.00  0.00     0.210 HD
ENDBRANCH   3  34
TORSDOF 6
