REMARK  5 active torsions:
REMARK  status: ('A' for Active; 'I' for Inactive)
REMARK    1  A    between atoms: CA_2  and  N_1 
REMARK    2  A    between atoms: CA_2  and  CB_5 
REMARK    3  A    between atoms: CA_2  and  C_3 
REMARK    4  A    between atoms: CB_5  and  CG_6 
REMARK    5  A    between atoms: CG_6  and  CD_7 
ROOT
ATOM      1  CA  GLU d   1      76.276  26.268  43.589  0.00  0.00     0.183 C 
ATOM      2  H4  GLU d   1      75.920  25.372  43.059  0.00  0.00     0.101 H 
ENDROOT
BRANCH   1   3
ATOM      3  N   GLU d   1      75.284  27.362  43.370  0.00  0.00    -0.065 N 
ATOM      4  H1  GLU d   1      75.221  27.567  42.385  0.00  0.00     0.275 HD
ATOM      5  H2  GLU d   1      75.580  28.188  43.866  0.00  0.00     0.275 HD
ATOM      6  H3  GLU d   1      74.381  27.070  43.711  0.00  0.00     0.275 HD
ENDBRANCH   1   3
BRANCH   1   7
ATOM      7  CB  GLU d   1      77.641  26.655  43.016  0.00  0.00    -0.020 C 
ATOM      8  H5  GLU d   1      78.402  26.005  43.473  0.00  0.00     0.037 H 
ATOM      9  H6  GLU d   1      77.843  27.702  43.287  0.00  0.00     0.037 H 
BRANCH   7  10
ATOM     10  CG  GLU d   1      77.754  26.524  41.485  0.00  0.00     0.018 C 
ATOM     11  H7  GLU d   1      78.673  27.030  41.155  0.00  0.00     0.049 H 
ATOM     12  H8  GLU d   1      76.882  27.011  41.024  0.00  0.00     0.049 H 
BRANCH  10  13
ATOM     13  CD  GLU d   1      77.803  25.070  41.023  0.00  0.00     0.172 C 
ATOM     14  OE2 GLU d   1      78.018  24.174  41.872  0.00  0.00    -0.648 OA
ATOM     15  OE1 GLU d   1      77.626  24.817  39.806  0.00  0.00    -0.648 OA
ENDBRANCH  10  13
ENDBRANCH   7  10
ENDBRANCH   1   7
BRANCH   1  16
ATOM     16  C   GLU d   1      76.403  25.926  45.066  0.00  0.00     0.204 C 
ATOM     17  O   GLU d   1      77.187  25.019  45.385  0.00  0.00    -0.646 OA
ATOM     18  OXT GLU d   1      75.695  26.557  45.878  0.00  0.00    -0.646 OA
ENDBRANCH   1  16
TORSDOF 5
