REMARK  6 active torsions:
REMARK  status: ('A' for Active; 'I' for Inactive)
REMARK    1  A    between atoms: CG2_10  and  CD1_3 
REMARK    2  A    between atoms: CG2_10  and  CD2_4 
REMARK    3  A    between atoms: CA_5  and  C_11 
REMARK    4  A    between atoms: CB_6  and  CB1_7 
REMARK    5  A    between atoms: CB1_7  and  CG1_9 
REMARK    6  A    between atoms: CG_8  and  CG2_10 
ROOT
ATOM      1  N   KAI d   1      -8.575   9.599   8.357  0.00  0.00    -0.060 N 
ATOM      2  CD  KAI d   1      -9.750  10.107   9.155  0.00  0.00     0.087 C 
ATOM      3  CA  KAI d   1      -8.691  10.131   7.023  0.00  0.00     0.188 C 
ATOM      4  CB  KAI d   1     -10.091  10.649   6.799  0.00  0.00    -0.002 C 
ATOM      5  CG  KAI d   1     -10.386  11.185   8.164  0.00  0.00    -0.022 C 
ATOM      6  H1  KAI d   1      -8.589   8.591   8.328  0.00  0.00     0.278 HD
ATOM      7  H2  KAI d   1      -7.713   9.911   8.777  0.00  0.00     0.278 HD
ATOM      8  H3  KAI d   1      -9.422  10.574  10.095  0.00  0.00     0.076 H 
ATOM      9  H4  KAI d   1     -10.462   9.298   9.376  0.00  0.00     0.076 H 
ATOM     10  H11 KAI d   1      -8.537   9.297   6.323  0.00  0.00     0.102 H 
ATOM     11  H12 KAI d   1     -10.106  11.416   6.011  0.00  0.00     0.045 H 
ATOM     12  H15 KAI d   1      -9.738  12.069   8.253  0.00  0.00     0.043 H 
ENDROOT
BRANCH   5  13
ATOM     13  CG2 KAI d   1     -11.756  11.770   8.518  0.00  0.00    -0.056 C 
ATOM     14  H16 KAI d   1     -11.310  12.519   9.189  0.00  0.00     0.039 H 
BRANCH  13  15
ATOM     15  CD2 KAI d   1     -12.309  12.846   7.668  0.00  0.00    -0.073 C 
ATOM     16  H8  KAI d   1     -11.570  13.125   6.902  0.00  0.00     0.028 H 
ATOM     17  H9  KAI d   1     -12.540  13.723   8.291  0.00  0.00     0.028 H 
ATOM     18  H10 KAI d   1     -13.228  12.491   7.179  0.00  0.00     0.028 H 
ENDBRANCH  13  15
BRANCH  13  19
ATOM     19  CD1 KAI d   1     -12.364  11.225   9.498  0.00  0.00    -0.073 C 
ATOM     20  H5  KAI d   1     -13.330  11.727   9.655  0.00  0.00     0.028 H 
ATOM     21  H6  KAI d   1     -11.751  11.316  10.407  0.00  0.00     0.028 H 
ATOM     22  H7  KAI d   1     -12.536  10.161   9.277  0.00  0.00     0.028 H 
ENDBRANCH  13  19
ENDBRANCH   5  13
BRANCH   4  23
ATOM     23  CB1 KAI d   1     -11.230   9.566   6.531  0.00  0.00     0.022 C 
ATOM     24  H13 KAI d   1     -12.209  10.005   6.773  0.00  0.00     0.049 H 
ATOM     25  H14 KAI d   1     -11.052   8.690   7.171  0.00  0.00     0.049 H 
BRANCH  23  26
ATOM     26  CG1 KAI d   1     -11.226   9.124   5.060  0.00  0.00     0.172 C 
ATOM     27  OD1 KAI d   1     -11.944   8.144   4.806  0.00  0.00    -0.648 OA
ATOM     28  OD2 KAI d   1     -10.556   9.777   4.232  0.00  0.00    -0.648 OA
ENDBRANCH  23  26
ENDBRANCH   4  23
BRANCH   3  29
ATOM     29  C   KAI d   1      -7.594  11.185   6.710  0.00  0.00     0.205 C 
ATOM     30  O   KAI d   1      -6.666  11.256   7.543  0.00  0.00    -0.646 OA
ATOM     31  OXT KAI d   1      -7.752  11.856   5.660  0.00  0.00    -0.646 OA
ENDBRANCH   3  29
TORSDOF 6
