REMARK  1 active torsions:
REMARK  status: ('A' for Active; 'I' for Inactive)
REMARK    1  A    between atoms: C1_1  and  O17_11 
ROOT
ATOM      1  C1  172 d   1      21.021  16.061  33.587  0.00  0.00     0.068 A 
ATOM      2  C2  172 d   1      21.013  17.366  34.006  0.00  0.00    -0.022 A 
ATOM      3  C3  172 d   1      19.844  18.031  33.911  0.00  0.00     0.081 A 
ATOM      4  C4  172 d   1      18.777  17.524  33.473  0.00  0.00     0.103 A 
ATOM      5  C5  172 d   1      18.671  16.256  33.031  0.00  0.00    -0.050 A 
ATOM      6  C6  172 d   1      19.838  15.474  33.078  0.00  0.00    -0.049 A 
ATOM      7  N10 172 d   1      19.756  19.342  34.264  0.00  0.00    -0.188 N 
ATOM      8  C11 172 d   1      18.401  19.575  33.958  0.00  0.00     0.699 A 
ATOM      9  N12 172 d   1      17.744  18.418  33.449  0.00  0.00    -0.063 NA
ATOM     10  N14 172 d   1      17.788  20.778  34.148  0.00  0.00    -0.233 N 
ATOM     11  H1  172 d   1      21.906  17.842  34.396  0.00  0.00     0.091 H 
ATOM     12  H2  172 d   1      17.734  15.859  32.658  0.00  0.00     0.087 H 
ATOM     13  H3  172 d   1      19.832  14.446  32.733  0.00  0.00     0.087 H 
ATOM     14  H4  172 d   1      20.471  19.978  34.644  0.00  0.00     0.184 HD
ATOM     15  H5  172 d   1      16.793  20.893  33.907  0.00  0.00     0.174 HD
ATOM     16  H6  172 d   1      18.320  21.572  34.533  0.00  0.00     0.174 HD
ENDROOT
BRANCH   1  17
ATOM     17  O17 172 d   1      22.171  15.342  33.652  0.00  0.00    -0.361 OA
ATOM     18  H7  172 d   1      22.862  15.884  34.016  0.00  0.00     0.217 HD
ENDBRANCH   1  17
TORSDOF 1
