REMARK  5 active torsions:
REMARK  status: ('A' for Active; 'I' for Inactive)
REMARK    1  A    between atoms: C3_3  and  N12_11 
REMARK    2  A    between atoms: N12_11  and  N17_13 
REMARK    3  A    between atoms: N17_13  and  C19_14 
REMARK    4  A    between atoms: C22_17  and  S27_20 
REMARK    5  A    between atoms: S27_20  and  N30_23 
ROOT
ATOM      1  N17 106 d   1      38.005  10.338 -12.042  0.00  0.00    -0.278 N 
ATOM      2  H5  106 d   1      37.558  10.572 -12.940  0.00  0.00     0.189 HD
ENDROOT
BRANCH   1   3
ATOM      3  N12 106 d   1      39.221  10.095 -12.067  0.00  0.00    -0.168 NA
BRANCH   3   4
ATOM      4  C3  106 d   1      39.952   9.850 -13.298  0.00  0.00     0.157 A 
ATOM      5  C2  106 d   1      39.704  10.496 -14.608  0.00  0.00     0.277 A 
ATOM      6  N1  106 d   1      40.576   9.993 -15.528  0.00  0.00    -0.321 N 
ATOM      7  O11 106 d   1      38.835  11.352 -14.751  0.00  0.00    -0.266 OA
ATOM      8  C8  106 d   1      41.411   9.116 -14.924  0.00  0.00     0.048 A 
ATOM      9  H1  106 d   1      40.595  10.235 -16.498  0.00  0.00     0.169 HD
ATOM     10  C9  106 d   1      41.063   8.996 -13.524  0.00  0.00     0.028 A 
ATOM     11  C7  106 d   1      42.519   8.317 -15.484  0.00  0.00    -0.055 A 
ATOM     12  C4  106 d   1      41.788   8.102 -12.606  0.00  0.00    -0.051 A 
ATOM     13  C5  106 d   1      42.928   7.332 -13.173  0.00  0.00     0.011 A 
ATOM     14  H2  106 d   1      41.504   8.009 -11.564  0.00  0.00     0.087 H 
ATOM     15 BR4  106 d   1      43.871   6.150 -12.094  0.00  0.00    -0.051 Br
ATOM     16  C6  106 d   1      43.311   7.435 -14.607  0.00  0.00    -0.064 A 
ATOM     17  H3  106 d   1      44.153   6.875 -14.998  0.00  0.00     0.085 H 
ATOM     18  H4  106 d   1      42.751   8.379 -16.541  0.00  0.00     0.087 H 
ENDBRANCH   3   4
ENDBRANCH   1   3
BRANCH   1  19
ATOM     19  C19 106 d   1      37.209  10.325 -10.945  0.00  0.00     0.050 A 
ATOM     20  C24 106 d   1      37.281   9.289  -9.857  0.00  0.00    -0.054 A 
ATOM     21  C23 106 d   1      36.317   9.302  -8.760  0.00  0.00    -0.058 A 
ATOM     22  H9  106 d   1      38.053   8.528  -9.887  0.00  0.00     0.087 H 
ATOM     23  C22 106 d   1      35.272  10.356  -8.728  0.00  0.00     0.079 A 
ATOM     24  H8  106 d   1      36.364   8.552  -7.979  0.00  0.00     0.086 H 
ATOM     25  C21 106 d   1      35.198  11.379  -9.802  0.00  0.00    -0.058 A 
ATOM     26  C20 106 d   1      36.177  11.375 -10.896  0.00  0.00    -0.054 A 
ATOM     27  H7  106 d   1      34.418  12.132  -9.778  0.00  0.00     0.086 H 
ATOM     28  H6  106 d   1      36.141  12.140 -11.663  0.00  0.00     0.087 H 
BRANCH  23  29
ATOM     29  S27 106 d   1      33.849  10.229  -7.686  0.00  0.00     0.256 S 
ATOM     30  O29 106 d   1      33.746  11.517  -7.065  0.00  0.00    -0.201 OA
ATOM     31  O28 106 d   1      32.772   9.800  -8.535  0.00  0.00    -0.201 OA
BRANCH  29  32
ATOM     32  N30 106 d   1      34.041   9.142  -6.469  0.00  0.00    -0.324 N 
ATOM     33  H10 106 d   1      33.300   8.986  -5.816  0.00  0.00     0.169 HD
ATOM     34  H11 106 d   1      34.899   8.636  -6.381  0.00  0.00     0.169 HD
ENDBRANCH  29  32
ENDBRANCH  23  29
ENDBRANCH   1  19
TORSDOF 5
