REMARK  5 active torsions:
REMARK  status: ('A' for Active; 'I' for Inactive)
REMARK    1  A    between atoms: C14_14  and  C13_13 
REMARK    2  A    between atoms: N15_15  and  C14_14 
REMARK    3  A    between atoms: S22_22  and  C19_19 
REMARK    4  A    between atoms: N25_25  and  S22_22 
REMARK    5  A    between atoms: C31_30  and  N25_25 
ROOT
ATOM      1  N15 107 d   1     -10.107 208.439 111.792  0.00  0.00    -0.385 N 
ATOM      2  C16 107 d   1      -9.099 208.885 112.556  0.00  0.00     0.028 A 
ATOM      3  C17 107 d   1      -9.242 209.208 114.013  0.00  0.00    -0.056 A 
ATOM      4  C18 107 d   1      -8.067 209.594 114.784  0.00  0.00    -0.058 A 
ATOM      5  C19 107 d   1      -6.765 209.768 114.098  0.00  0.00     0.080 A 
ATOM      6  C20 107 d   1      -6.607 209.448 112.666  0.00  0.00    -0.058 A 
ATOM      7  C21 107 d   1      -7.783 209.022 111.886  0.00  0.00    -0.056 A 
ATOM      8  H6  107 d   1     -10.146 208.807 110.831  0.00  0.00     0.160 HD
ATOM      9  H7  107 d   1     -10.214 209.155 114.490  0.00  0.00     0.087 H 
ATOM     10  H8  107 d   1      -8.145 209.753 115.853  0.00  0.00     0.086 H 
ATOM     11  H9  107 d   1      -5.635 209.525 112.192  0.00  0.00     0.086 H 
ATOM     12  H10 107 d   1      -7.686 208.810 110.827  0.00  0.00     0.087 H 
ENDROOT
BRANCH   1  13
ATOM     13  C14 107 d   1     -11.176 207.475 112.170  0.00  0.00     0.023 C 
ATOM     14  H4  107 d   1     -10.686 206.504 112.337  0.00  0.00     0.071 H 
ATOM     15  H5  107 d   1     -11.610 207.834 113.115  0.00  0.00     0.071 H 
BRANCH  13  16
ATOM     16  C13 107 d   1     -12.203 207.255 111.327  0.00  0.00     0.043 A 
ATOM     17  C2  107 d   1     -12.171 207.502 109.842  0.00  0.00     0.276 A 
ATOM     18  O1  107 d   1     -11.222 207.976 109.212  0.00  0.00    -0.266 OA
ATOM     19  N3  107 d   1     -13.360 207.138 109.320  0.00  0.00    -0.209 NA
ATOM     20  C4  107 d   1     -14.217 206.750 110.300  0.00  0.00     0.073 A 
ATOM     21  C5  107 d   1     -15.638 206.360 110.190  0.00  0.00    -0.052 A 
ATOM     22  C12 107 d   1     -13.557 206.806 111.586  0.00  0.00     0.026 A 
ATOM     23  C6  107 d   1     -16.386 205.967 111.390  0.00  0.00    -0.052 A 
ATOM     24  H1  107 d   1     -16.130 206.364 109.219  0.00  0.00     0.087 H 
ATOM     25  C7  107 d   1     -15.741 206.027 112.690  0.00  0.00     0.075 A 
ATOM     26  H2  107 d   1     -17.419 205.632 111.306  0.00  0.00     0.087 H 
ATOM     27  N8  107 d   1     -16.232 205.714 113.950  0.00  0.00    -0.253 NA
ATOM     28  C11 107 d   1     -14.292 206.468 112.816  0.00  0.00     0.048 A 
ATOM     29  C9  107 d   1     -15.304 205.837 114.932  0.00  0.00     0.041 A 
ATOM     30  S10 107 d   1     -13.814 206.453 114.428  0.00  0.00    -0.080 SA
ATOM     31  H3  107 d   1     -15.504 205.560 115.966  0.00  0.00     0.126 H 
ENDBRANCH  13  16
ENDBRANCH   1  13
BRANCH   5  32
ATOM     32  S22 107 d   1      -5.422 210.380 115.054  0.00  0.00     0.264 S 
ATOM     33  O23 107 d   1      -4.210 210.289 114.298  0.00  0.00    -0.200 OA
ATOM     34  O24 107 d   1      -5.854 211.649 115.554  0.00  0.00    -0.200 OA
BRANCH  32  35
ATOM     35  N25 107 d   1      -5.217 209.365 116.350  0.00  0.00    -0.264 N 
ATOM     36  H11 107 d   1      -5.395 209.754 117.254  0.00  0.00     0.180 HD
BRANCH  35  37
ATOM     37  C31 107 d   1      -4.823 208.027 116.313  0.00  0.00     0.136 A 
ATOM     38  N30 107 d   1      -5.193 207.218 117.443  0.00  0.00    -0.243 NA
ATOM     39  C29 107 d   1      -4.709 205.875 117.597  0.00  0.00     0.004 A 
ATOM     40  C28 107 d   1      -3.862 205.252 116.556  0.00  0.00    -0.066 A 
ATOM     41  H14 107 d   1      -4.967 205.311 118.486  0.00  0.00     0.114 H 
ATOM     42  C27 107 d   1      -3.562 206.048 115.344  0.00  0.00    -0.078 A 
ATOM     43  H13 107 d   1      -3.474 204.247 116.677  0.00  0.00     0.085 H 
ATOM     44  C32 107 d   1      -4.022 207.432 115.192  0.00  0.00    -0.038 A 
ATOM     45  H12 107 d   1      -2.986 205.594 114.546  0.00  0.00     0.083 H 
ATOM     46  H15 107 d   1      -3.792 208.005 114.301  0.00  0.00     0.089 H 
ENDBRANCH  35  37
ENDBRANCH  32  35
ENDBRANCH   5  32
TORSDOF 5
