REMARK  2 active torsions:
REMARK  status: ('A' for Active; 'I' for Inactive)
REMARK    1  A    between atoms: C1_1  and  C2_2 
REMARK       I    between atoms: C2_2  and  N_4 
REMARK    2  A    between atoms: N_4  and  O_5 
ROOT
ATOM      1  C2  HAE d   1      69.380 107.435  71.578  0.00  0.00     0.236 C 
ATOM      2  O2  HAE d   1      68.635 107.613  70.614  0.00  0.00    -0.272 OA
ATOM      3  N   HAE d   1      69.062 106.691  72.611  0.00  0.00    -0.238 N 
ATOM      4  H   HAE d   1      69.772 106.524  73.295  0.00  0.00     0.197 HD
ENDROOT
BRANCH   1   5
ATOM      5  C1  HAE d   1      70.746 108.078  71.615  0.00  0.00    -0.001 C 
ATOM      6  H   HAE d   1      71.256 107.802  72.550  0.00  0.00     0.040 H 
ATOM      7  H   HAE d   1      70.638 109.171  71.565  0.00  0.00     0.040 H 
ATOM      8  H   HAE d   1      71.339 107.729  70.757  0.00  0.00     0.040 H 
ENDBRANCH   1   5
BRANCH   3   9
ATOM      9  O   HAE d   1      67.824 106.121  72.827  0.00  0.00    -0.287 OA
ATOM     10  H   HAE d   1      67.840 105.630  73.640  0.00  0.00     0.244 HD
ENDBRANCH   3   9
TORSDOF 2
