REMARK  19 active torsions:
REMARK  status: ('A' for Active; 'I' for Inactive)
REMARK    1  A    between atoms: O1_7  and  C1_1 
REMARK    2  A    between atoms: C2_2  and  O2_8 
REMARK    3  A    between atoms: C3_3  and  O3_9 
REMARK    4  A    between atoms: C4_4  and  O4_10 
REMARK    5  A    between atoms: C5_5  and  C6_6 
REMARK    6  A    between atoms: C6_6  and  O6_12 
REMARK    7  A    between atoms: C4_20  and  O1_7 
REMARK    8  A    between atoms: O3_9  and  S_13 
REMARK    9  A    between atoms: C1_17  and  O1_26 
REMARK   10  A    between atoms: C2_18  and  N2_25 
REMARK   11  A    between atoms: O1_36  and  C3_19 
REMARK   12  A    between atoms: C5_21  and  C6_22 
REMARK   13  A    between atoms: C6_22  and  O6_28 
REMARK       I    between atoms: N2_25  and  C7_23 
REMARK   14  A    between atoms: C7_23  and  C8_24 
REMARK   15  A    between atoms: O1_36  and  C1_30 
REMARK   16  A    between atoms: C2_31  and  O2_37 
REMARK   17  A    between atoms: C3_32  and  O3_38 
REMARK   18  A    between atoms: C4_33  and  O4_39 
REMARK   19  A    between atoms: C5_34  and  C6_35 
ROOT
ATOM      1  H11 SGA d   1      -1.986   1.818   6.705  0.00  0.00     0.132 H 
ATOM      2  H12 SGA d   1      -1.175   1.457   9.650  0.00  0.00     0.084 H 
ATOM      3  H13 SGA d   1      -2.463   3.899   8.193  0.00  0.00     0.091 H 
ATOM      4  H14 SGA d   1       0.344   3.490   9.525  0.00  0.00     0.091 H 
ATOM      5  H15 SGA d   1      -0.516   3.859   6.585  0.00  0.00     0.090 H 
ATOM      6  C1  MAG d   1      -1.311   1.415   7.475  0.00  0.00     0.151 C 
ATOM      7  C2  MAG d   1      -1.838   1.857   8.869  0.00  0.00     0.087 C 
ATOM      8  C3  MAG d   1      -1.848   3.405   8.960  0.00  0.00     0.093 C 
ATOM      9  C4  MAG d   1      -0.355   3.885   8.774  0.00  0.00     0.096 C 
ATOM     10  C5  MAG d   1       0.132   3.403   7.348  0.00  0.00     0.089 C 
ATOM     11  O5  MAG d   1       0.051   1.957   7.249  0.00  0.00    -0.349 OA
ENDROOT
BRANCH   9  12
ATOM     12  O1  SGA d   1      -0.706   5.291   9.070  0.00  0.00    -0.348 OA
BRANCH  12  13
ATOM     13  C1  SGA d   1       0.074   6.025  10.048  0.00  0.00     0.159 C 
ATOM     14  O5  SGA d   1      -0.350   5.624  11.409  0.00  0.00    -0.348 OA
ATOM     15  C5  SGA d   1       0.402   6.354  12.473  0.00  0.00     0.089 C 
ATOM     16  C4  SGA d   1       0.242   7.912  12.299  0.00  0.00     0.091 C 
ATOM     17  H5  SGA d   1       1.473   6.118  12.384  0.00  0.00     0.090 H 
ATOM     18  C3  SGA d   1       0.764   8.297  10.882  0.00  0.00     0.116 C 
ATOM     19  H4  SGA d   1       0.828   8.440  13.066  0.00  0.00     0.091 H 
ATOM     20  C2  SGA d   1      -0.070   7.519   9.837  0.00  0.00     0.112 C 
ATOM     21  H3  SGA d   1       1.825   8.021  10.790  0.00  0.00     0.094 H 
ATOM     22  H2  SGA d   1      -1.128   7.801   9.945  0.00  0.00     0.094 H 
ATOM     23  H1  SGA d   1       1.134   5.761   9.921  0.00  0.00     0.133 H 
BRANCH  15  24
ATOM     24  C6  SGA d   1      -0.107   5.808  13.832  0.00  0.00     0.043 C 
ATOM     25  H6  SGA d   1      -1.147   6.129  13.988  0.00  0.00     0.078 H 
ATOM     26  H7  SGA d   1       0.523   6.202  14.643  0.00  0.00     0.078 H 
BRANCH  24  27
ATOM     27  O6  SGA d   1      -0.046   4.384  13.835  0.00  0.00    -0.398 OA
ATOM     28  H10 SGA d   1      -0.591   4.043  13.136  0.00  0.00     0.209 HD
ENDBRANCH  24  27
ENDBRANCH  15  24
BRANCH  16  29
ATOM     29  O4  SGA d   1      -1.139   8.248  12.438  0.00  0.00    -0.390 OA
ATOM     30  H9  SGA d   1      -1.437   8.006  13.307  0.00  0.00     0.210 HD
ENDBRANCH  16  29
BRANCH  18  31
ATOM     31  O3  SGA d   1       0.621   9.710  10.674  0.00  0.00    -0.246 OA
BRANCH  31  32
ATOM     32  S   SGA d   1       1.807  10.630  10.944  0.00  0.00     0.252 S 
ATOM     33  O3S SGA d   1       2.187  10.572  12.345  0.00  0.00    -0.572 OA
ATOM     34  O2S SGA d   1       1.422  12.014  10.643  0.00  0.00    -0.572 OA
ATOM     35  O1S SGA d   1       2.960  10.256  10.091  0.00  0.00    -0.572 OA
ENDBRANCH  31  32
ENDBRANCH  18  31
BRANCH  20  36
ATOM     36  O2  SGA d   1       0.370   7.834   8.516  0.00  0.00    -0.388 OA
ATOM     37  H8  SGA d   1       1.280   7.578   8.417  0.00  0.00     0.210 HD
ENDBRANCH  20  36
ENDBRANCH  12  13
ENDBRANCH   9  12
BRANCH   8  38
ATOM     38  O1  FUC d   1      -2.532   3.401  10.232  0.00  0.00    -0.348 OA
BRANCH  38  39
ATOM     39  C1  FUC d   1      -3.939   3.716  10.219  0.00  0.00     0.159 C 
ATOM     40  O5  FUC d   1      -4.178   5.126   9.827  0.00  0.00    -0.351 OA
ATOM     41  C5  FUC d   1      -3.725   6.182  10.807  0.00  0.00     0.065 C 
ATOM     42  C4  FUC d   1      -4.297   5.914  12.183  0.00  0.00     0.087 C 
ATOM     43  H28 SGA d   1      -2.631   6.114  10.900  0.00  0.00     0.086 H 
ATOM     44  C3  FUC d   1      -3.921   4.481  12.644  0.00  0.00     0.092 C 
ATOM     45  H27 SGA d   1      -3.881   6.644  12.893  0.00  0.00     0.091 H 
ATOM     46  C2  FUC d   1      -4.511   3.457  11.643  0.00  0.00     0.110 C 
ATOM     47  H26 SGA d   1      -2.826   4.380  12.681  0.00  0.00     0.091 H 
ATOM     48  H25 SGA d   1      -5.603   3.591  11.622  0.00  0.00     0.094 H 
ATOM     49  H24 SGA d   1      -4.447   3.059   9.498  0.00  0.00     0.133 H 
BRANCH  41  50
ATOM     50  C6  FUC d   1      -4.038   7.539  10.230  0.00  0.00    -0.050 C 
ATOM     51  H29 SGA d   1      -3.578   7.629   9.235  0.00  0.00     0.031 H 
ATOM     52  H30 SGA d   1      -3.636   8.320  10.892  0.00  0.00     0.031 H 
ATOM     53  H31 SGA d   1      -5.128   7.658  10.142  0.00  0.00     0.031 H 
ENDBRANCH  41  50
BRANCH  42  54
ATOM     54  O4  FUC d   1      -5.745   6.043  12.157  0.00  0.00    -0.390 OA
ATOM     55  H34 SGA d   1      -6.091   5.886  13.028  0.00  0.00     0.210 HD
ENDBRANCH  42  54
BRANCH  44  56
ATOM     56  O3  FUC d   1      -4.470   4.228  13.934  0.00  0.00    -0.390 OA
ATOM     57  H33 SGA d   1      -5.415   4.319  13.898  0.00  0.00     0.210 HD
ENDBRANCH  44  56
BRANCH  46  58
ATOM     58  O2  FUC d   1      -4.227   2.094  11.995  0.00  0.00    -0.388 OA
ATOM     59  H32 SGA d   1      -3.287   1.956  11.989  0.00  0.00     0.210 HD
ENDBRANCH  46  58
ENDBRANCH  38  39
ENDBRANCH   8  38
BRANCH  10  60
ATOM     60  C6  MAG d   1       1.578   3.797   7.074  0.00  0.00     0.043 C 
ATOM     61  H16 SGA d   1       2.220   3.341   7.841  0.00  0.00     0.078 H 
ATOM     62  H17 SGA d   1       1.663   4.892   7.128  0.00  0.00     0.078 H 
BRANCH  60  63
ATOM     63  O6  MAG d   1       2.025   3.363   5.780  0.00  0.00    -0.398 OA
ATOM     64  H23 SGA d   1       1.962   2.417   5.725  0.00  0.00     0.209 HD
ENDBRANCH  60  63
ENDBRANCH  10  60
BRANCH   7  65
ATOM     65  N2  MAG d   1      -3.186   1.325   9.067  0.00  0.00    -0.349 N 
ATOM     66  C7  MAG d   1      -3.153   0.200   8.302  0.00  0.00     0.214 C 
ATOM     67  O7  MAG d   1      -2.495  -0.842   8.584  0.00  0.00    -0.274 OA
ATOM     68  H21 SGA d   1      -3.935   1.692   9.619  0.00  0.00     0.163 HD
BRANCH  66  69
ATOM     69  C8  MAG d   1      -3.969   0.246   7.046  0.00  0.00    -0.003 C 
ATOM     70  H18 SGA d   1      -3.870  -0.709   6.509  0.00  0.00     0.040 H 
ATOM     71  H19 SGA d   1      -3.611   1.065   6.406  0.00  0.00     0.040 H 
ATOM     72  H20 SGA d   1      -5.026   0.415   7.301  0.00  0.00     0.040 H 
ENDBRANCH  66  69
ENDBRANCH   7  65
BRANCH   6  73
ATOM     73  O1  MAG d   1      -1.281   0.065   7.359  0.00  0.00    -0.369 OA
ATOM     74  H22 SGA d   1      -2.153  -0.284   7.503  0.00  0.00     0.212 HD
ENDBRANCH   6  73
TORSDOF 19
