REMARK  19 active torsions:
REMARK  status: ('A' for Active; 'I' for Inactive)
REMARK    1  A    between atoms: O1_7  and  C1_1 
REMARK    2  A    between atoms: C2_2  and  O2_8 
REMARK    3  A    between atoms: C3_3  and  O3_9 
REMARK    4  A    between atoms: C4_4  and  O4_10 
REMARK    5  A    between atoms: C5_5  and  C6_6 
REMARK    6  A    between atoms: C6_6  and  O6_12 
REMARK    7  A    between atoms: C3_19  and  O1_7 
REMARK    8  A    between atoms: O3_9  and  S_13 
REMARK    9  A    between atoms: C1_17  and  O1_26 
REMARK   10  A    between atoms: C2_18  and  N2_25 
REMARK   11  A    between atoms: O1_36  and  C4_20 
REMARK   12  A    between atoms: C5_21  and  C6_22 
REMARK   13  A    between atoms: C6_22  and  O6_28 
REMARK       I    between atoms: N2_25  and  C7_23 
REMARK   14  A    between atoms: C7_23  and  C8_24 
REMARK   15  A    between atoms: O1_36  and  C1_30 
REMARK   16  A    between atoms: C2_31  and  O2_37 
REMARK   17  A    between atoms: C3_32  and  O3_38 
REMARK   18  A    between atoms: C4_33  and  O4_39 
REMARK   19  A    between atoms: C5_34  and  C6_35 
ROOT
ATOM      1  H11 SGA d   1      -0.701   2.098   8.518  0.00  0.00     0.132 H 
ATOM      2  H12 SGA d   1      -2.067   4.439   7.095  0.00  0.00     0.084 H 
ATOM      3  H13 SGA d   1      -1.167   4.084   9.999  0.00  0.00     0.091 H 
ATOM      4  H14 SGA d   1      -3.940   4.392   8.658  0.00  0.00     0.091 H 
ATOM      5  H15 SGA d   1      -2.611   2.033  10.125  0.00  0.00     0.090 H 
ATOM      6  C1  MAG d   1      -1.397   2.497   7.766  0.00  0.00     0.151 C 
ATOM      7  C2  MAG d   1      -1.376   4.032   7.848  0.00  0.00     0.087 C 
ATOM      8  C3  MAG d   1      -1.830   4.507   9.230  0.00  0.00     0.093 C 
ATOM      9  C4  MAG d   1      -3.286   3.982   9.441  0.00  0.00     0.096 C 
ATOM     10  C5  MAG d   1      -3.260   2.423   9.327  0.00  0.00     0.089 C 
ATOM     11  O5  MAG d   1      -2.744   2.011   8.058  0.00  0.00    -0.349 OA
ENDROOT
BRANCH   8  12
ATOM     12  O1  SGA d   1      -1.806   5.914   9.331  0.00  0.00    -0.348 OA
BRANCH  12  13
ATOM     13  C1  SGA d   1      -0.832   6.504  10.213  0.00  0.00     0.159 C 
ATOM     14  O5  SGA d   1      -1.224   6.175  11.583  0.00  0.00    -0.348 OA
ATOM     15  C5  SGA d   1      -0.314   6.767  12.572  0.00  0.00     0.089 C 
ATOM     16  C4  SGA d   1      -0.242   8.306  12.415  0.00  0.00     0.091 C 
ATOM     17  H5  SGA d   1       0.700   6.370  12.417  0.00  0.00     0.090 H 
ATOM     18  C3  SGA d   1       0.233   8.637  10.984  0.00  0.00     0.116 C 
ATOM     19  H4  SGA d   1       0.463   8.727  13.147  0.00  0.00     0.091 H 
ATOM     20  C2  SGA d   1      -0.752   8.005   9.999  0.00  0.00     0.112 C 
ATOM     21  H3  SGA d   1       1.233   8.209  10.822  0.00  0.00     0.094 H 
ATOM     22  H2  SGA d   1      -1.748   8.440  10.166  0.00  0.00     0.094 H 
ATOM     23  H1  SGA d   1       0.157   6.069  10.006  0.00  0.00     0.133 H 
BRANCH  15  24
ATOM     24  C6  SGA d   1      -0.826   6.288  13.947  0.00  0.00     0.043 C 
ATOM     25  H6  SGA d   1      -0.804   5.189  13.981  0.00  0.00     0.078 H 
ATOM     26  H7  SGA d   1      -1.858   6.639  14.093  0.00  0.00     0.078 H 
BRANCH  24  27
ATOM     27  O6  SGA d   1       0.012   6.816  14.999  0.00  0.00    -0.398 OA
ATOM     28  H10 SGA d   1      -0.007   7.765  14.972  0.00  0.00     0.209 HD
ENDBRANCH  24  27
ENDBRANCH  15  24
BRANCH  16  29
ATOM     29  O4  SGA d   1      -1.540   8.843  12.634  0.00  0.00    -0.390 OA
ATOM     30  H9  SGA d   1      -1.823   8.634  13.517  0.00  0.00     0.210 HD
ENDBRANCH  16  29
BRANCH  18  31
ATOM     31  O3  SGA d   1       0.301  10.050  10.804  0.00  0.00    -0.246 OA
BRANCH  31  32
ATOM     32  S   SGA d   1       1.596  10.742  11.133  0.00  0.00     0.252 S 
ATOM     33  O3S SGA d   1       1.801  10.778  12.584  0.00  0.00    -0.572 OA
ATOM     34  O2S SGA d   1       1.564  12.127  10.630  0.00  0.00    -0.572 OA
ATOM     35  O1S SGA d   1       2.746  10.046  10.487  0.00  0.00    -0.572 OA
ENDBRANCH  31  32
ENDBRANCH  18  31
BRANCH  20  36
ATOM     36  O2  SGA d   1      -0.340   8.285   8.644  0.00  0.00    -0.388 OA
ATOM     37  H8  SGA d   1       0.514   7.899   8.488  0.00  0.00     0.210 HD
ENDBRANCH  20  36
ENDBRANCH  12  13
ENDBRANCH   8  12
BRANCH   7  38
ATOM     38  N2  MAG d   1      -0.032   4.496   7.553  0.00  0.00    -0.349 N 
ATOM     39  C7  MAG d   1       0.211   5.375   6.571  0.00  0.00     0.214 C 
ATOM     40  O7  MAG d   1      -0.680   5.881   5.826  0.00  0.00    -0.274 OA
ATOM     41  H21 SGA d   1       0.733   4.150   8.097  0.00  0.00     0.163 HD
BRANCH  39  42
ATOM     42  C8  MAG d   1       1.637   5.739   6.382  0.00  0.00    -0.003 C 
ATOM     43  H18 SGA d   1       1.725   6.461   5.557  0.00  0.00     0.040 H 
ATOM     44  H19 SGA d   1       2.217   4.836   6.142  0.00  0.00     0.040 H 
ATOM     45  H20 SGA d   1       2.026   6.190   7.307  0.00  0.00     0.040 H 
ENDBRANCH  39  42
ENDBRANCH   7  38
BRANCH   9  46
ATOM     46  O1  FUC d   1      -3.793   4.409  10.756  0.00  0.00    -0.348 OA
BRANCH  46  47
ATOM     47  C1  FUC d   1      -5.114   4.992  10.781  0.00  0.00     0.159 C 
ATOM     48  O5  FUC d   1      -5.194   6.272  10.069  0.00  0.00    -0.351 OA
ATOM     49  C5  FUC d   1      -4.472   7.411  10.688  0.00  0.00     0.065 C 
ATOM     50  C4  FUC d   1      -4.863   7.591  12.127  0.00  0.00     0.087 C 
ATOM     51  H28 SGA d   1      -3.398   7.171  10.685  0.00  0.00     0.086 H 
ATOM     52  C3  FUC d   1      -4.669   6.279  12.912  0.00  0.00     0.092 C 
ATOM     53  H27 SGA d   1      -4.224   8.369  12.571  0.00  0.00     0.091 H 
ATOM     54  C2  FUC d   1      -5.503   5.167  12.262  0.00  0.00     0.110 C 
ATOM     55  H26 SGA d   1      -3.605   6.000  12.915  0.00  0.00     0.091 H 
ATOM     56  H25 SGA d   1      -6.558   5.475  12.308  0.00  0.00     0.094 H 
ATOM     57  H24 SGA d   1      -5.816   4.293  10.303  0.00  0.00     0.133 H 
BRANCH  49  58
ATOM     58  C6  FUC d   1      -4.655   8.620   9.810  0.00  0.00    -0.050 C 
ATOM     59  H29 SGA d   1      -4.340   8.379   8.784  0.00  0.00     0.031 H 
ATOM     60  H30 SGA d   1      -4.044   9.449  10.196  0.00  0.00     0.031 H 
ATOM     61  H31 SGA d   1      -5.715   8.915   9.809  0.00  0.00     0.031 H 
ENDBRANCH  49  58
BRANCH  50  62
ATOM     62  O4  FUC d   1      -6.250   8.007  12.225  0.00  0.00    -0.390 OA
ATOM     63  H34 SGA d   1      -6.474   8.145  13.138  0.00  0.00     0.210 HD
ENDBRANCH  50  62
BRANCH  52  64
ATOM     64  O3  FUC d   1      -5.133   6.455  14.248  0.00  0.00    -0.390 OA
ATOM     65  H33 SGA d   1      -6.051   6.699  14.234  0.00  0.00     0.210 HD
ENDBRANCH  52  64
BRANCH  54  66
ATOM     66  O2  FUC d   1      -5.386   3.909  12.932  0.00  0.00    -0.388 OA
ATOM     67  H32 SGA d   1      -5.966   3.278  12.522  0.00  0.00     0.210 HD
ENDBRANCH  54  66
ENDBRANCH  46  47
ENDBRANCH   9  46
BRANCH   6  68
ATOM     68  O1  MAG d   1      -1.015   2.050   6.544  0.00  0.00    -0.369 OA
ATOM     69  H22 SGA d   1      -1.019   1.100   6.540  0.00  0.00     0.212 HD
ENDBRANCH   6  68
BRANCH  10  70
ATOM     70  C6  MAG d   1      -4.635   1.804   9.469  0.00  0.00     0.043 C 
ATOM     71  H16 SGA d   1      -5.291   2.202   8.681  0.00  0.00     0.078 H 
ATOM     72  H17 SGA d   1      -5.046   2.066  10.455  0.00  0.00     0.078 H 
BRANCH  70  73
ATOM     73  O6  MAG d   1      -4.576   0.373   9.351  0.00  0.00    -0.398 OA
ATOM     74  H23 SGA d   1      -4.225   0.141   8.499  0.00  0.00     0.209 HD
ENDBRANCH  70  73
ENDBRANCH  10  70
TORSDOF 19
