REMARK  8 active torsions:
REMARK  status: ('A' for Active; 'I' for Inactive)
REMARK    1  A    between atoms: S9_9  and  C1_1 
REMARK    2  A    between atoms: C4_4  and  O7_7 
REMARK    3  A    between atoms: O7_7  and  C8_8 
REMARK    4  A    between atoms: N12_12  and  S9_9 
REMARK    5  A    between atoms: C13_13  and  C_19 
REMARK    6  A    between atoms: C7_23  and  N16_16 
REMARK    7  A    between atoms: NA_20  and  OA_21 
REMARK    8  A    between atoms: C11_26  and  C7_23 
ROOT
ATOM      1  N12 BBH d   1       2.971  50.153  52.698  0.00  0.00    -0.277 N 
ATOM      2  C13 BBH d   1       1.768  49.949  51.860  0.00  0.00     0.097 C 
ATOM      3  C14 BBH d   1       1.727  50.864  50.615  0.00  0.00     0.024 C 
ATOM      4  C15 BBH d   1       2.436  52.212  50.784  0.00  0.00     0.157 C 
ATOM      5  N16 BBH d   1       3.515  52.366  51.740  0.00  0.00    -0.342 N 
ATOM      6  C17 BBH d   1       3.527  51.511  52.958  0.00  0.00     0.068 C 
ATOM      7  O18 BBH d   1       2.095  53.294  50.059  0.00  0.00    -0.177 OA
ATOM      8  H8  BBH d   1       1.801  48.913  51.492  0.00  0.00     0.087 H 
ATOM      9  H9  BBH d   1       0.673  51.060  50.369  0.00  0.00     0.049 H 
ATOM     10  H10 BBH d   1       2.204  50.329  49.781  0.00  0.00     0.049 H 
ATOM     11  H11 BBH d   1       4.565  51.408  53.308  0.00  0.00     0.098 H 
ATOM     12  H12 BBH d   1       2.923  51.998  53.738  0.00  0.00     0.098 H 
ENDROOT
BRANCH   1  13
ATOM     13  S9  BBH d   1       3.706  48.796  53.220  0.00  0.00     0.263 S 
ATOM     14  O10 BBH d   1       3.285  47.749  52.261  0.00  0.00    -0.200 OA
ATOM     15  O11 BBH d   1       5.137  48.936  53.396  0.00  0.00    -0.200 OA
BRANCH  13  16
ATOM     16  C1  BBH d   1       3.100  48.359  54.767  0.00  0.00     0.080 A 
ATOM     17  C2  BBH d   1       3.625  48.849  55.994  0.00  0.00    -0.058 A 
ATOM     18  C3  BBH d   1       3.083  48.438  57.239  0.00  0.00    -0.049 A 
ATOM     19  H1  BBH d   1       4.453  49.548  55.978  0.00  0.00     0.086 H 
ATOM     20  C4  BBH d   1       2.033  47.517  57.208  0.00  0.00     0.068 A 
ATOM     21  H2  BBH d   1       3.468  48.823  58.176  0.00  0.00     0.087 H 
ATOM     22  C5  BBH d   1       1.524  47.043  55.993  0.00  0.00    -0.049 A 
ATOM     23  C6  BBH d   1       2.035  47.454  54.757  0.00  0.00    -0.058 A 
ATOM     24  H3  BBH d   1       0.705  46.333  56.010  0.00  0.00     0.087 H 
ATOM     25  H4  BBH d   1       1.620  47.084  53.826  0.00  0.00     0.086 H 
BRANCH  20  26
ATOM     26  O7  BBH d   1       1.514  47.089  58.261  0.00  0.00    -0.356 OA
BRANCH  26  27
ATOM     27  C8  BBH d   1       2.044  47.436  59.553  0.00  0.00     0.010 C 
ATOM     28  H5  BBH d   1       1.441  46.956  60.338  0.00  0.00     0.066 H 
ATOM     29  H6  BBH d   1       2.010  48.528  59.682  0.00  0.00     0.066 H 
ATOM     30  H7  BBH d   1       3.085  47.090  59.627  0.00  0.00     0.066 H 
ENDBRANCH  26  27
ENDBRANCH  20  26
ENDBRANCH  13  16
ENDBRANCH   1  13
BRANCH   2  31
ATOM     31  C   BBH d   1       0.518  50.092  52.701  0.00  0.00     0.199 C 
ATOM     32  NA  BBH d   1      -0.334  49.063  52.769  0.00  0.00    -0.247 N 
ATOM     33  H13 BBH d   1      -0.112  48.194  52.328  0.00  0.00     0.196 HD
ATOM     34  OB  BBH d   1       0.262  51.221  53.351  0.00  0.00    -0.173 OA
BRANCH  32  35
ATOM     35  OA  BBH d   1      -1.539  49.214  53.463  0.00  0.00    -0.288 OA
ATOM     36  H14 BBH d   1      -1.356  49.428  54.370  0.00  0.00     0.244 HD
ENDBRANCH  32  35
ENDBRANCH   2  31
BRANCH   5  37
ATOM     37  C7  BBH d   1       4.544  53.407  51.459  0.00  0.00     0.022 C 
ATOM     38  H15 BBH d   1       4.439  54.228  52.183  0.00  0.00     0.071 H 
ATOM     39  H16 BBH d   1       4.401  53.796  50.440  0.00  0.00     0.071 H 
BRANCH  37  40
ATOM     40  C11 BBH d   1       5.942  52.803  51.578  0.00  0.00    -0.040 A 
ATOM     41  C10 BBH d   1       6.356  51.821  50.675  0.00  0.00    -0.075 A 
ATOM     42  C9  BBH d   1       7.617  51.256  50.768  0.00  0.00    -0.082 A 
ATOM     43  H18 BBH d   1       5.681  51.497  49.891  0.00  0.00     0.084 H 
ATOM     44  C18 BBH d   1       8.478  51.676  51.794  0.00  0.00    -0.083 A 
ATOM     45  H17 BBH d   1       7.934  50.500  50.059  0.00  0.00     0.083 H 
ATOM     46  C16 BBH d   1       8.087  52.648  52.727  0.00  0.00    -0.082 A 
ATOM     47  H21 BBH d   1       9.467  51.239  51.867  0.00  0.00     0.083 H 
ATOM     48  C12 BBH d   1       6.811  53.218  52.595  0.00  0.00    -0.075 A 
ATOM     49  H20 BBH d   1       8.752  52.951  53.528  0.00  0.00     0.083 H 
ATOM     50  H19 BBH d   1       6.494  53.989  53.288  0.00  0.00     0.084 H 
ENDBRANCH  37  40
ENDBRANCH   5  37
TORSDOF 8
