REMARK  16 active torsions:
REMARK  status: ('A' for Active; 'I' for Inactive)
REMARK    1  A    between atoms: C2_1  and  N1_11 
REMARK    2  A    between atoms: C2_1  and  C3_2 
REMARK    3  A    between atoms: C3_2  and  C7_7 
REMARK    4  A    between atoms: C3_2  and  C4_3 
REMARK       I    between atoms: C4_3  and  N2_5 
REMARK    5  A    between atoms: N2_5  and  C5_6 
REMARK    6  A    between atoms: C5_6  and  C11_20 
REMARK    7  A    between atoms: C5_6  and  C6_15 
REMARK    8  A    between atoms: C7_7  and  C8_8 
REMARK    9  A    between atoms: C8_8  and  C9_9 
REMARK   10  A    between atoms: C9_9  and  C10_10 
REMARK   11  A    between atoms: N1_11  and  O2_14 
REMARK       I    between atoms: N1_11  and  C1_12 
REMARK       I    between atoms: C6_15  and  N3_16 
REMARK   12  A    between atoms: N3_16  and  C15_18 
REMARK   13  A    between atoms: N3_16  and  C16_17 
REMARK   14  A    between atoms: C11_20  and  C14_23 
REMARK   15  A    between atoms: C11_20  and  C13_22 
REMARK   16  A    between atoms: C11_20  and  C12_21 
ROOT
ATOM      1  C4  BB1 d   1      44.094   5.888  12.789  0.00  0.00     0.224 C 
ATOM      2  O3  BB1 d   1      44.053   5.276  11.721  0.00  0.00    -0.273 OA
ATOM      3  N2  BB1 d   1      44.284   7.215  12.889  0.00  0.00    -0.347 N 
ATOM      4  H4  BB1 d   1      44.306   7.625  13.801  0.00  0.00     0.163 HD
ENDROOT
BRANCH   3   5
ATOM      5  C5  BB1 d   1      44.456   8.071  11.752  0.00  0.00     0.095 C 
ATOM      6  H5  BB1 d   1      44.696   7.437  10.886  0.00  0.00     0.088 H 
BRANCH   5   7
ATOM      7  C11 BB1 d   1      43.234   8.899  11.348  0.00  0.00    -0.022 C 
BRANCH   7   8
ATOM      8  C14 BB1 d   1      42.082   7.960  10.992  0.00  0.00    -0.067 C 
ATOM      9  H29 BB1 d   1      41.827   7.345  11.867  0.00  0.00     0.028 H 
ATOM     10  H30 BB1 d   1      42.385   7.307  10.161  0.00  0.00     0.028 H 
ATOM     11  H31 BB1 d   1      41.205   8.553  10.692  0.00  0.00     0.028 H 
ENDBRANCH   7   8
BRANCH   7  12
ATOM     12  C13 BB1 d   1      42.777   9.830  12.493  0.00  0.00    -0.067 C 
ATOM     13  H26 BB1 d   1      42.519   9.226  13.376  0.00  0.00     0.028 H 
ATOM     14  H27 BB1 d   1      41.895  10.403  12.170  0.00  0.00     0.028 H 
ATOM     15  H28 BB1 d   1      43.591  10.524  12.749  0.00  0.00     0.028 H 
ENDBRANCH   7  12
BRANCH   7  16
ATOM     16  C12 BB1 d   1      43.590   9.758  10.125  0.00  0.00    -0.067 C 
ATOM     17  H23 BB1 d   1      42.715  10.356   9.830  0.00  0.00     0.028 H 
ATOM     18  H24 BB1 d   1      43.886   9.104   9.291  0.00  0.00     0.028 H 
ATOM     19  H25 BB1 d   1      44.424  10.429  10.378  0.00  0.00     0.028 H 
ENDBRANCH   7  16
ENDBRANCH   5   7
BRANCH   5  20
ATOM     20  C6  BB1 d   1      45.678   8.908  12.084  0.00  0.00     0.242 C 
ATOM     21  O4  BB1 d   1      45.630   9.456  13.187  0.00  0.00    -0.271 OA
ATOM     22  N3  BB1 d   1      46.786   9.054  11.333  0.00  0.00    -0.359 N 
BRANCH  22  23
ATOM     23  C15 BB1 d   1      46.930   8.425  10.029  0.00  0.00    -0.017 C 
ATOM     24  H20 BB1 d   1      46.032   7.829   9.808  0.00  0.00     0.056 H 
ATOM     25  H21 BB1 d   1      47.813   7.769  10.034  0.00  0.00     0.056 H 
ATOM     26  H22 BB1 d   1      47.053   9.201   9.259  0.00  0.00     0.056 H 
ENDBRANCH  22  23
BRANCH  22  27
ATOM     27  C16 BB1 d   1      47.847   9.905  11.865  0.00  0.00    -0.017 C 
ATOM     28  H17 BB1 d   1      48.685   9.934  11.153  0.00  0.00     0.056 H 
ATOM     29  H18 BB1 d   1      48.196   9.499  12.826  0.00  0.00     0.056 H 
ATOM     30  H19 BB1 d   1      47.459  10.923  12.016  0.00  0.00     0.056 H 
ENDBRANCH  22  27
ENDBRANCH   5  20
ENDBRANCH   3   5
BRANCH   1  31
ATOM     31  C3  BB1 d   1      44.092   5.125  14.077  0.00  0.00     0.041 C 
ATOM     32  H3  BB1 d   1      43.833   5.850  14.863  0.00  0.00     0.057 H 
BRANCH  31  33
ATOM     33  C2  BB1 d   1      42.986   4.080  14.101  0.00  0.00     0.034 C 
ATOM     34  H1  BB1 d   1      42.054   4.531  13.729  0.00  0.00     0.069 H 
ATOM     35  H2  BB1 d   1      43.270   3.238  13.452  0.00  0.00     0.069 H 
BRANCH  33  36
ATOM     36  N1  BB1 d   1      42.773   3.591  15.450  0.00  0.00    -0.235 N 
ATOM     37  C1  BB1 d   1      43.405   2.501  15.873  0.00  0.00     0.193 C 
ATOM     38  O1  BB1 d   1      43.333   2.139  17.050  0.00  0.00    -0.281 OA
ATOM     39  H15 BB1 d   1      43.996   1.918  15.169  0.00  0.00     0.183 H 
BRANCH  36  40
ATOM     40  O2  BB1 d   1      42.144   4.246  16.429  0.00  0.00    -0.285 OA
ATOM     41  H16 BB1 d   1      42.138   3.711  17.214  0.00  0.00     0.245 HD
ENDBRANCH  36  40
ENDBRANCH  33  36
ENDBRANCH  31  33
BRANCH  31  42
ATOM     42  C7  BB1 d   1      45.503   4.593  14.452  0.00  0.00    -0.052 C 
ATOM     43  H6  BB1 d   1      45.855   3.915  13.661  0.00  0.00     0.034 H 
ATOM     44  H7  BB1 d   1      45.441   4.045  15.404  0.00  0.00     0.034 H 
BRANCH  42  45
ATOM     45  C8  BB1 d   1      46.522   5.779  14.606  0.00  0.00    -0.065 C 
ATOM     46  H8  BB1 d   1      46.368   6.265  15.581  0.00  0.00     0.033 H 
ATOM     47  H9  BB1 d   1      46.353   6.509  13.801  0.00  0.00     0.033 H 
BRANCH  45  48
ATOM     48  C9  BB1 d   1      47.974   5.255  14.522  0.00  0.00    -0.069 C 
ATOM     49  H10 BB1 d   1      48.250   5.135  13.464  0.00  0.00     0.032 H 
ATOM     50  H11 BB1 d   1      48.032   4.281  15.029  0.00  0.00     0.032 H 
BRANCH  48  51
ATOM     51  C10 BB1 d   1      48.955   6.216  15.183  0.00  0.00    -0.077 C 
ATOM     52  H12 BB1 d   1      49.975   5.811  15.104  0.00  0.00     0.027 H 
ATOM     53  H13 BB1 d   1      48.690   6.338  16.244  0.00  0.00     0.027 H 
ATOM     54  H14 BB1 d   1      48.908   7.192  14.679  0.00  0.00     0.027 H 
ENDBRANCH  48  51
ENDBRANCH  45  48
ENDBRANCH  42  45
ENDBRANCH  31  42
ENDBRANCH   1  31
TORSDOF 16
