REMARK  16 active torsions:
REMARK  status: ('A' for Active; 'I' for Inactive)
REMARK    1  A    between atoms: C5_1  and  C6_6 
REMARK    2  A    between atoms: C5_1  and  C3_2 
REMARK       I    between atoms: C3_2  and  N1_4 
REMARK    3  A    between atoms: N1_4  and  O2_5 
REMARK    4  A    between atoms: C6_6  and  C7_9 
REMARK    5  A    between atoms: C6_6  and  C12_7 
REMARK       I    between atoms: C12_7  and  N14_14 
REMARK    6  A    between atoms: C7_9  and  C8_10 
REMARK    7  A    between atoms: C8_10  and  C9_11 
REMARK    8  A    between atoms: C9_11  and  C10_12 
REMARK    9  A    between atoms: C10_12  and  C11_13 
REMARK   10  A    between atoms: N14_14  and  C15_15 
REMARK   11  A    between atoms: C15_15  and  C19_19 
REMARK   12  A    between atoms: C15_15  and  C16_16 
REMARK   13  A    between atoms: C16_16  and  C17_18 
REMARK   14  A    between atoms: C16_16  and  C18_17 
REMARK       I    between atoms: C19_19  and  N21_21 
REMARK   15  A    between atoms: C22_22  and  C26_26 
REMARK   16  A    between atoms: C26_26  and  O27_27 
ROOT
ATOM      1  C12 BB2 d   1      43.407   5.693  13.366  0.00  0.00     0.223 C 
ATOM      2  O13 BB2 d   1      43.294   5.169  12.266  0.00  0.00    -0.273 OA
ATOM      3  N14 BB2 d   1      43.367   7.001  13.505  0.00  0.00    -0.347 N 
ATOM      4  H17 BB2 d   1      43.109   7.374  14.396  0.00  0.00     0.163 HD
ENDROOT
BRANCH   3   5
ATOM      5  C15 BB2 d   1      43.677   7.933  12.436  0.00  0.00     0.092 C 
ATOM      6  H18 BB2 d   1      43.983   7.362  11.547  0.00  0.00     0.088 H 
BRANCH   5   7
ATOM      7  C19 BB2 d   1      44.849   8.794  12.912  0.00  0.00     0.243 C 
ATOM      8  N21 BB2 d   1      45.712   9.178  11.997  0.00  0.00    -0.344 N 
ATOM      9  C23 BB2 d   1      45.662   8.770  10.566  0.00  0.00    -0.002 C 
ATOM     10  C22 BB2 d   1      46.891   9.970  12.309  0.00  0.00     0.035 C 
ATOM     11  C24 BB2 d   1      46.865   9.469   9.980  0.00  0.00    -0.048 C 
ATOM     12  H27 BB2 d   1      44.732   9.112  10.088  0.00  0.00     0.064 H 
ATOM     13  H28 BB2 d   1      45.748   7.678  10.461  0.00  0.00     0.064 H 
ATOM     14  C25 BB2 d   1      47.808   9.648  11.128  0.00  0.00    -0.043 C 
ATOM     15  H29 BB2 d   1      47.325   8.852   9.194  0.00  0.00     0.035 H 
ATOM     16  H30 BB2 d   1      46.578  10.444   9.560  0.00  0.00     0.035 H 
ATOM     17  H31 BB2 d   1      48.377   8.726  11.315  0.00  0.00     0.036 H 
ATOM     18  H32 BB2 d   1      48.505  10.477  10.936  0.00  0.00     0.036 H 
ATOM     19  H26 BB2 d   1      47.338   9.624  13.253  0.00  0.00     0.076 H 
ATOM     20  O20 BB2 d   1      44.940   9.116  14.091  0.00  0.00    -0.271 OA
BRANCH  10  21
ATOM     21  C26 BB2 d   1      46.635  11.465  12.426  0.00  0.00     0.036 C 
ATOM     22  H33 BB2 d   1      45.752  11.600  13.068  0.00  0.00     0.077 H 
ATOM     23  H34 BB2 d   1      46.416  11.843  11.417  0.00  0.00     0.077 H 
BRANCH  21  24
ATOM     24  O27 BB2 d   1      47.567  12.176  12.905  0.00  0.00    -0.399 OA
ATOM     25  H35 BB2 d   1      47.767  11.883  13.786  0.00  0.00     0.209 HD
ENDBRANCH  21  24
ENDBRANCH  10  21
ENDBRANCH   5   7
BRANCH   5  26
ATOM     26  C16 BB2 d   1      42.491   8.818  12.047  0.00  0.00    -0.033 C 
ATOM     27  H19 BB2 d   1      42.831   9.622  11.378  0.00  0.00     0.042 H 
BRANCH  26  28
ATOM     28  C17 BB2 d   1      41.497   7.919  11.311  0.00  0.00    -0.071 C 
ATOM     29  H23 BB2 d   1      41.983   7.482  10.427  0.00  0.00     0.028 H 
ATOM     30  H24 BB2 d   1      40.628   8.515  10.995  0.00  0.00     0.028 H 
ATOM     31  H25 BB2 d   1      41.164   7.114  11.982  0.00  0.00     0.028 H 
ENDBRANCH  26  28
BRANCH  26  32
ATOM     32  C18 BB2 d   1      41.852   9.437  13.272  0.00  0.00    -0.071 C 
ATOM     33  H20 BB2 d   1      41.004  10.067  12.965  0.00  0.00     0.028 H 
ATOM     34  H21 BB2 d   1      42.594  10.053  13.801  0.00  0.00     0.028 H 
ATOM     35  H22 BB2 d   1      41.494   8.640  13.941  0.00  0.00     0.028 H 
ENDBRANCH  26  32
ENDBRANCH   5  26
ENDBRANCH   3   5
BRANCH   1  36
ATOM     36  C6  BB2 d   1      43.306   4.897  14.674  0.00  0.00     0.032 C 
ATOM     37  H5  BB2 d   1      42.946   5.541  15.490  0.00  0.00     0.055 H 
BRANCH  36  38
ATOM     38  C5  BB2 d   1      42.464   3.563  14.593  0.00  0.00     0.022 C 
ATOM     39  H1  BB2 d   1      43.015   2.814  14.005  0.00  0.00     0.048 H 
ATOM     40  H2  BB2 d   1      41.496   3.766  14.112  0.00  0.00     0.048 H 
BRANCH  38  41
ATOM     41  C3  BB2 d   1      42.232   3.033  16.014  0.00  0.00     0.241 C 
ATOM     42  N1  BB2 d   1      42.850   1.935  16.426  0.00  0.00    -0.237 N 
ATOM     43  H3  BB2 d   1      43.415   1.439  15.767  0.00  0.00     0.197 HD
ATOM     44  O4  BB2 d   1      41.258   3.517  16.618  0.00  0.00    -0.271 OA
BRANCH  42  45
ATOM     45  O2  BB2 d   1      42.770   1.490  17.570  0.00  0.00    -0.287 OA
ATOM     46  H4  BB2 d   1      41.863   1.290  17.768  0.00  0.00     0.244 HD
ENDBRANCH  42  45
ENDBRANCH  38  41
ENDBRANCH  36  38
BRANCH  36  47
ATOM     47  C7  BB2 d   1      44.756   4.351  14.907  0.00  0.00    -0.053 C 
ATOM     48  H6  BB2 d   1      45.081   3.788  14.019  0.00  0.00     0.034 H 
ATOM     49  H7  BB2 d   1      44.759   3.687  15.784  0.00  0.00     0.034 H 
BRANCH  47  50
ATOM     50  C8  BB2 d   1      45.725   5.521  15.151  0.00  0.00    -0.064 C 
ATOM     51  H8  BB2 d   1      45.383   6.092  16.027  0.00  0.00     0.033 H 
ATOM     52  H9  BB2 d   1      45.727   6.174  14.266  0.00  0.00     0.033 H 
BRANCH  50  53
ATOM     53  C9  BB2 d   1      47.144   5.027  15.405  0.00  0.00    -0.065 C 
ATOM     54  H10 BB2 d   1      47.565   4.667  14.455  0.00  0.00     0.033 H 
ATOM     55  H11 BB2 d   1      47.102   4.197  16.126  0.00  0.00     0.033 H 
BRANCH  53  56
ATOM     56  C10 BB2 d   1      48.063   6.112  15.964  0.00  0.00    -0.069 C 
ATOM     57  H12 BB2 d   1      49.048   5.665  16.165  0.00  0.00     0.032 H 
ATOM     58  H13 BB2 d   1      47.630   6.484  16.904  0.00  0.00     0.032 H 
BRANCH  56  59
ATOM     59  C11 BB2 d   1      48.249   7.267  15.041  0.00  0.00    -0.077 C 
ATOM     60  H14 BB2 d   1      48.919   8.005  15.507  0.00  0.00     0.027 H 
ATOM     61  H15 BB2 d   1      47.274   7.734  14.837  0.00  0.00     0.027 H 
ATOM     62  H16 BB2 d   1      48.691   6.915  14.098  0.00  0.00     0.027 H 
ENDBRANCH  56  59
ENDBRANCH  53  56
ENDBRANCH  50  53
ENDBRANCH  47  50
ENDBRANCH  36  47
ENDBRANCH   1  36
TORSDOF 16
