REMARK  9 active torsions:
REMARK  status: ('A' for Active; 'I' for Inactive)
REMARK    1  A    between atoms: N1_1  and  C1_3 
REMARK    2  A    between atoms: C1_3  and  C2_4 
REMARK    3  A    between atoms: C5_7  and  N_10 
REMARK    4  A    between atoms: N_10  and  C_11 
REMARK    5  A    between atoms: C_11  and  C8_13 
REMARK    6  A    between atoms: N9_14  and  C14_21 
REMARK    7  A    between atoms: C12_19  and  C9_22 
REMARK    8  A    between atoms: C9_22  and  N4_23 
REMARK    9  A    between atoms: C15_24  and  C23_32 
ROOT
ATOM      1  N3  R11 d   1       7.315   7.409  22.008  0.00  0.00    -0.231 NA
ATOM      2  C8  R11 d   1       8.112   8.443  21.504  0.00  0.00     0.124 A 
ATOM      3  N9  R11 d   1       8.909   8.231  20.366  0.00  0.00    -0.336 N 
ATOM      4  C3A R11 d   1       8.571   6.907  20.123  0.00  0.00     0.064 A 
ATOM      5  C7A R11 d   1       7.624   6.422  21.101  0.00  0.00     0.086 A 
ATOM      6  C10 R11 d   1       9.034   6.038  19.083  0.00  0.00    -0.054 A 
ATOM      7  C11 R11 d   1       8.551   4.725  19.027  0.00  0.00    -0.073 A 
ATOM      8  C12 R11 d   1       7.617   4.235  19.984  0.00  0.00    -0.037 A 
ATOM      9  C13 R11 d   1       7.145   5.077  21.030  0.00  0.00    -0.045 A 
ATOM     10  H12 R11 d   1       9.749   6.392  18.349  0.00  0.00     0.087 H 
ATOM     11  H13 R11 d   1       8.896   4.067  18.238  0.00  0.00     0.084 H 
ATOM     12  H14 R11 d   1       6.435   4.705  21.760  0.00  0.00     0.088 H 
ENDROOT
BRANCH   2  13
ATOM     13  C   R11 d   1       8.096   9.808  22.217  0.00  0.00     0.047 C 
ATOM     14  H10 R11 d   1       8.102  10.590  21.443  0.00  0.00     0.075 H 
ATOM     15  H11 R11 d   1       7.163   9.872  22.796  0.00  0.00     0.075 H 
BRANCH  13  16
ATOM     16  N   R11 d   1       9.219  10.080  23.141  0.00  0.00    -0.383 N 
ATOM     17  H9  R11 d   1       9.836  10.865  22.890  0.00  0.00     0.160 HD
BRANCH  16  18
ATOM     18  C5  R11 d   1       9.548   9.374  24.350  0.00  0.00     0.028 A 
ATOM     19  C4  R11 d   1       8.624   8.505  24.970  0.00  0.00    -0.057 A 
ATOM     20  C3  R11 d   1       8.964   7.823  26.149  0.00  0.00    -0.067 A 
ATOM     21  H6  R11 d   1       7.643   8.363  24.532  0.00  0.00     0.086 H 
ATOM     22  C2  R11 d   1      10.251   7.984  26.762  0.00  0.00     0.007 A 
ATOM     23  H5  R11 d   1       8.238   7.160  26.606  0.00  0.00     0.085 H 
ATOM     24  C7  R11 d   1      11.176   8.878  26.108  0.00  0.00    -0.067 A 
ATOM     25  C6  R11 d   1      10.824   9.561  24.919  0.00  0.00    -0.057 A 
ATOM     26  H8  R11 d   1      12.160   9.030  26.536  0.00  0.00     0.085 H 
ATOM     27  H7  R11 d   1      11.536  10.228  24.446  0.00  0.00     0.086 H 
BRANCH  22  28
ATOM     28  C1  R11 d   1      10.582   7.301  27.935  0.00  0.00     0.102 C 
ATOM     29  N2  R11 d   1      11.808   7.025  28.325  0.00  0.00    -0.385 N 
ATOM     30  H3  R11 d   1      12.611   7.354  27.771  0.00  0.00     0.157 HD
ATOM     31  H4  R11 d   1      11.964   6.480  29.185  0.00  0.00     0.157 HD
BRANCH  28  32
ATOM     32  N1  R11 d   1       9.700   6.798  28.768  0.00  0.00    -0.385 N 
ATOM     33  H1  R11 d   1       8.694   6.932  28.595  0.00  0.00     0.157 HD
ATOM     34  H2  R11 d   1      10.015   6.270  29.594  0.00  0.00     0.157 HD
ENDBRANCH  28  32
ENDBRANCH  22  28
ENDBRANCH  16  18
ENDBRANCH  13  16
ENDBRANCH   2  13
BRANCH   3  35
ATOM     35  C14 R11 d   1       9.834   9.141  19.634  0.00  0.00    -0.012 C 
ATOM     36  H15 R11 d   1       9.845  10.125  20.126  0.00  0.00     0.057 H 
ATOM     37  H16 R11 d   1       9.491   9.254  18.595  0.00  0.00     0.057 H 
ATOM     38  H17 R11 d   1      10.848   8.716  19.641  0.00  0.00     0.057 H 
ENDBRANCH   3  35
BRANCH   8  39
ATOM     39  C9  R11 d   1       7.121   2.782  19.862  0.00  0.00     0.025 C 
ATOM     40  H18 R11 d   1       6.032   2.774  20.016  0.00  0.00     0.072 H 
ATOM     41  H19 R11 d   1       7.607   2.184  20.647  0.00  0.00     0.072 H 
BRANCH  39  42
ATOM     42  N4  R11 d   1       7.416   2.143  18.528  0.00  0.00    -0.329 N 
ATOM     43  C15 R11 d   1       6.635   1.976  17.360  0.00  0.00     0.103 A 
ATOM     44  N16 R11 d   1       7.138   1.340  16.226  0.00  0.00    -0.234 NA
ATOM     45  C17 R11 d   1       8.402   1.054  16.701  0.00  0.00     0.085 A 
ATOM     46  C18 R11 d   1       8.573   1.522  18.061  0.00  0.00     0.065 A 
ATOM     47  C19 R11 d   1       9.475   0.387  16.026  0.00  0.00    -0.053 A 
ATOM     48  C22 R11 d   1       9.832   1.318  18.723  0.00  0.00    -0.055 A 
ATOM     49  C21 R11 d   1      10.873   0.656  18.035  0.00  0.00    -0.081 A 
ATOM     50  H23 R11 d   1       9.981   1.668  19.738  0.00  0.00     0.087 H 
ATOM     51  C20 R11 d   1      10.698   0.200  16.706  0.00  0.00    -0.081 A 
ATOM     52  H22 R11 d   1      11.822   0.494  18.533  0.00  0.00     0.083 H 
ATOM     53  H21 R11 d   1      11.517  -0.301  16.202  0.00  0.00     0.083 H 
ATOM     54  H20 R11 d   1       9.350   0.032  15.010  0.00  0.00     0.087 H 
BRANCH  43  55
ATOM     55  C23 R11 d   1       5.204   2.489  17.288  0.00  0.00    -0.021 C 
ATOM     56  H24 R11 d   1       4.781   2.258  16.299  0.00  0.00     0.037 H 
ATOM     57  H25 R11 d   1       5.197   3.578  17.444  0.00  0.00     0.037 H 
ATOM     58  H26 R11 d   1       4.600   2.002  18.068  0.00  0.00     0.037 H 
ENDBRANCH  43  55
ENDBRANCH  39  42
ENDBRANCH   8  39
TORSDOF 9
