REMARK  15 active torsions:
REMARK  status: ('A' for Active; 'I' for Inactive)
REMARK    1  A    between atoms: N1_1  and  C1_2 
REMARK       I    between atoms: C14_8  and  N1_1 
REMARK    2  A    between atoms: C1_2  and  C2_32 
REMARK    3  A    between atoms: C1_2  and  C3_39 
REMARK    4  A    between atoms: O3_3  and  C10_4 
REMARK    5  A    between atoms: C9_6  and  O3_3 
REMARK    6  A    between atoms: C10_4  and  C11_5 
REMARK    7  A    between atoms: C11_5  and  C12_30 
REMARK    8  A    between atoms: C3_39  and  C9_6 
REMARK    9  A    between atoms: C15_13  and  C14_8 
REMARK   10  A    between atoms: C22_22  and  S1_17 
REMARK   11  A    between atoms: S1_17  and  N4_29 
REMARK   12  A    between atoms: C23_21  and  C22_22 
REMARK   13  A    between atoms: C12_30  and  C13_31 
REMARK   14  A    between atoms: C6_35  and  N2_36 
REMARK   15  A    between atoms: C3_39  and  O1_40 
ROOT
ATOM      1  C1  110 d   1      14.758  18.360  19.209  0.00  0.00     0.049 C 
ATOM      2  H2  110 d   1      14.815  17.437  18.613  0.00  0.00     0.077 H 
ENDROOT
BRANCH   1   3
ATOM      3  N1  110 d   1      16.021  18.431  20.015  0.00  0.00    -0.351 N 
ATOM      4  C14 110 d   1      16.881  17.363  20.120  0.00  0.00     0.241 C 
ATOM      5  O4  110 d   1      16.754  16.305  19.507  0.00  0.00    -0.271 OA
ATOM      6  H1  110 d   1      16.245  19.282  20.491  0.00  0.00     0.163 HD
BRANCH   4   7
ATOM      7  C15 110 d   1      18.041  17.510  21.087  0.00  0.00     0.092 C 
ATOM      8  N3  110 d   1      18.172  16.291  21.898  0.00  0.00    -0.331 N 
ATOM      9  C18 110 d   1      19.397  15.482  21.628  0.00  0.00     0.032 C 
ATOM     10  C20 110 d   1      17.225  15.960  22.788  0.00  0.00     0.239 C 
ATOM     11  C17 110 d   1      20.298  16.530  21.011  0.00  0.00    -0.042 C 
ATOM     12  C19 110 d   1      19.811  14.991  22.991  0.00  0.00     0.024 C 
ATOM     13  H9  110 d   1      19.233  14.639  20.941  0.00  0.00     0.075 H 
ATOM     14  C16 110 d   1      19.398  17.554  20.379  0.00  0.00    -0.036 C 
ATOM     15  H7  110 d   1      20.946  16.072  20.249  0.00  0.00     0.036 H 
ATOM     16  H8  110 d   1      20.920  17.000  21.787  0.00  0.00     0.036 H 
ATOM     17  H11 110 d   1      19.267  17.325  19.311  0.00  0.00     0.036 H 
ATOM     18  H12 110 d   1      19.841  18.555  20.488  0.00  0.00     0.036 H 
ATOM     19  N4  110 d   1      18.718  14.157  23.483  0.00  0.00    -0.300 N 
ATOM     20  H22 110 d   1      19.973  15.842  23.668  0.00  0.00     0.068 H 
ATOM     21  H23 110 d   1      20.736  14.400  22.917  0.00  0.00     0.068 H 
ATOM     22  C21 110 d   1      17.382  14.716  23.632  0.00  0.00     0.079 C 
ATOM     23  H13 110 d   1      16.640  13.968  23.314  0.00  0.00     0.080 H 
ATOM     24  H14 110 d   1      17.214  14.973  24.688  0.00  0.00     0.080 H 
ATOM     25  O5  110 d   1      16.228  16.652  22.948  0.00  0.00    -0.271 OA
ATOM     26  H10 110 d   1      17.889  18.402  21.712  0.00  0.00     0.087 H 
BRANCH  19  27
ATOM     27  S1  110 d   1      19.040  12.685  24.236  0.00  0.00     0.233 S 
ATOM     28  O6  110 d   1      17.802  11.951  24.341  0.00  0.00    -0.205 OA
ATOM     29  O7  110 d   1      20.180  12.108  23.545  0.00  0.00    -0.205 OA
BRANCH  27  30
ATOM     30  C22 110 d   1      19.498  13.174  25.954  0.00  0.00     0.070 C 
ATOM     31  H16 110 d   1      19.834  12.275  26.491  0.00  0.00     0.066 H 
ATOM     32  H17 110 d   1      18.604  13.582  26.447  0.00  0.00     0.066 H 
BRANCH  30  33
ATOM     33  C23 110 d   1      20.583  14.198  26.028  0.00  0.00    -0.043 A 
ATOM     34  C24 110 d   1      21.875  13.886  25.603  0.00  0.00    -0.076 A 
ATOM     35  C29 110 d   1      22.857  14.849  25.578  0.00  0.00    -0.082 A 
ATOM     36  H15 110 d   1      22.107  12.875  25.289  0.00  0.00     0.084 H 
ATOM     37  C28 110 d   1      22.564  16.141  25.979  0.00  0.00    -0.083 A 
ATOM     38  H21 110 d   1      23.857  14.597  25.245  0.00  0.00     0.083 H 
ATOM     39  C27 110 d   1      21.285  16.462  26.411  0.00  0.00    -0.082 A 
ATOM     40  H20 110 d   1      23.335  16.903  25.956  0.00  0.00     0.083 H 
ATOM     41  C26 110 d   1      20.299  15.491  26.436  0.00  0.00    -0.076 A 
ATOM     42  H19 110 d   1      21.058  17.473  26.729  0.00  0.00     0.083 H 
ATOM     43  H18 110 d   1      19.301  15.743  26.776  0.00  0.00     0.084 H 
ENDBRANCH  30  33
ENDBRANCH  27  30
ENDBRANCH  19  27
ENDBRANCH   4   7
ENDBRANCH   1   3
BRANCH   1  44
ATOM     44  C2  110 d   1      13.496  18.250  20.095  0.00  0.00    -0.032 C 
ATOM     45  C4  110 d   1      13.330  16.798  20.655  0.00  0.00    -0.058 C 
ATOM     46  C5  110 d   1      11.969  16.681  21.377  0.00  0.00    -0.038 C 
ATOM     47  H30 110 d   1      14.142  16.583  21.365  0.00  0.00     0.033 H 
ATOM     48  H31 110 d   1      13.368  16.077  19.825  0.00  0.00     0.033 H 
ATOM     49  C6  110 d   1      11.917  17.722  22.536  0.00  0.00     0.100 C 
ATOM     50  H32 110 d   1      11.855  15.667  21.787  0.00  0.00     0.036 H 
ATOM     51  H33 110 d   1      11.155  16.882  20.665  0.00  0.00     0.036 H 
ATOM     52  C7  110 d   1      12.112  19.171  21.975  0.00  0.00    -0.038 C 
ATOM     53  H34 110 d   1      12.747  17.510  23.226  0.00  0.00     0.083 H 
ATOM     54  C8  110 d   1      13.474  19.280  21.253  0.00  0.00    -0.058 C 
ATOM     55  H38 110 d   1      12.082  19.890  22.806  0.00  0.00     0.036 H 
ATOM     56  H39 110 d   1      11.304  19.398  21.264  0.00  0.00     0.036 H 
ATOM     57  H40 110 d   1      13.601  20.296  20.850  0.00  0.00     0.033 H 
ATOM     58  H41 110 d   1      14.288  19.062  21.960  0.00  0.00     0.033 H 
ATOM     59  H29 110 d   1      12.629  18.462  19.453  0.00  0.00     0.043 H 
BRANCH  49  60
ATOM     60  N2  110 d   1      10.656  17.597  23.290  0.00  0.00    -0.075 N 
ATOM     61  H35 110 d   1      10.641  18.277  24.034  0.00  0.00     0.274 HD
ATOM     62  H36 110 d   1      10.588  16.670  23.680  0.00  0.00     0.274 HD
ATOM     63  H37 110 d   1       9.877  17.759  22.671  0.00  0.00     0.274 HD
ENDBRANCH  49  60
ENDBRANCH   1  44
BRANCH   1  64
ATOM     64  C3  110 d   1      14.625  19.552  18.200  0.00  0.00     0.138 C 
ATOM     65  H42 110 d   1      14.869  20.497  18.708  0.00  0.00     0.102 H 
BRANCH  64  66
ATOM     66  C9  110 d   1      15.588  19.247  17.107  0.00  0.00     0.289 C 
ATOM     67  O2  110 d   1      16.720  19.694  17.211  0.00  0.00    -0.262 OA
BRANCH  66  68
ATOM     68  O3  110 d   1      15.176  18.444  16.087  0.00  0.00    -0.319 OA
BRANCH  68  69
ATOM     69  C10 110 d   1      14.486  19.073  14.961  0.00  0.00     0.029 C 
ATOM     70  H3  110 d   1      15.107  19.915  14.621  0.00  0.00     0.075 H 
ATOM     71  H4  110 d   1      13.524  19.454  15.334  0.00  0.00     0.075 H 
BRANCH  69  72
ATOM     72  C11 110 d   1      14.190  18.193  13.736  0.00  0.00    -0.045 C 
ATOM     73  H5  110 d   1      13.520  17.377  14.042  0.00  0.00     0.036 H 
ATOM     74  H6  110 d   1      15.137  17.771  13.368  0.00  0.00     0.036 H 
BRANCH  72  75
ATOM     75  C12 110 d   1      13.525  18.973  12.598  0.00  0.00    -0.067 C 
ATOM     76  H24 110 d   1      14.277  19.152  11.816  0.00  0.00     0.032 H 
ATOM     77  H25 110 d   1      13.174  19.936  12.997  0.00  0.00     0.032 H 
BRANCH  75  78
ATOM     78  C13 110 d   1      12.337  18.254  11.966  0.00  0.00    -0.076 C 
ATOM     79  H26 110 d   1      11.917  18.876  11.162  0.00  0.00     0.027 H 
ATOM     80  H27 110 d   1      11.567  18.076  12.731  0.00  0.00     0.027 H 
ATOM     81  H28 110 d   1      12.670  17.292  11.549  0.00  0.00     0.027 H 
ENDBRANCH  75  78
ENDBRANCH  72  75
ENDBRANCH  69  72
ENDBRANCH  68  69
ENDBRANCH  66  68
ENDBRANCH  64  66
BRANCH  64  82
ATOM     82  O1  110 d   1      13.310  19.669  17.531  0.00  0.00    -0.383 OA
ATOM     83  H43 110 d   1      13.102  18.849  17.099  0.00  0.00     0.210 HD
ENDBRANCH  64  82
ENDBRANCH   1  64
TORSDOF 15
