REMARK  7 active torsions:
REMARK  status: ('A' for Active; 'I' for Inactive)
REMARK    1  A    between atoms: C1_1  and  C8_8 
REMARK    2  A    between atoms: C3_3  and  C7_7 
REMARK    3  A    between atoms: C4_4  and  O1_9 
REMARK    4  A    between atoms: C8_8  and  N1_10 
REMARK    5  A    between atoms: N_12  and  CA_13 
REMARK    6  A    between atoms: CA_13  and  C_15 
REMARK    7  A    between atoms: CA_13  and  CB_14 
ROOT
ATOM      1  C1  108 d   1      44.109  -2.993  26.076  0.00  0.00     0.008 A 
ATOM      2  C2  108 d   1      43.266  -3.542  27.031  0.00  0.00    -0.056 A 
ATOM      3  C3  108 d   1      43.060  -2.909  28.260  0.00  0.00     0.015 A 
ATOM      4  C4  108 d   1      43.719  -1.702  28.517  0.00  0.00     0.077 A 
ATOM      5  C5  108 d   1      44.559  -1.166  27.549  0.00  0.00    -0.049 A 
ATOM      6  C6  108 d   1      44.750  -1.800  26.349  0.00  0.00    -0.067 A 
ATOM      7  H1  108 d   1      42.759  -4.477  26.821  0.00  0.00     0.086 H 
ATOM      8  H2  108 d   1      45.072  -0.231  27.746  0.00  0.00     0.087 H 
ATOM      9  H3  108 d   1      45.409  -1.362  25.608  0.00  0.00     0.085 H 
ENDROOT
BRANCH   3  10
ATOM     10  C7  108 d   1      42.162  -3.528  29.217  0.00  0.00     0.010 C 
ATOM     11  N   108 d   1      41.878  -3.052  30.393  0.00  0.00    -0.285 NA
ATOM     12  H4  108 d   1      41.689  -4.465  28.927  0.00  0.00     0.115 H 
BRANCH  11  13
ATOM     13  CA  108 d   1      40.948  -3.809  31.219  0.00  0.00     0.112 C 
ATOM     14  H10 108 d   1      40.112  -4.149  30.590  0.00  0.00     0.092 H 
BRANCH  13  15
ATOM     15  C   108 d   1      40.398  -2.930  32.331  0.00  0.00     0.198 C 
ATOM     16  OXT 108 d   1      41.105  -1.902  32.652  0.00  0.00    -0.646 OA
ATOM     17  O   108 d   1      39.327  -3.239  32.858  0.00  0.00    -0.646 OA
ENDBRANCH  13  15
BRANCH  13  18
ATOM     18  CB  108 d   1      41.645  -5.031  31.812  0.00  0.00    -0.046 C 
ATOM     19  H11 108 d   1      40.933  -5.594  32.433  0.00  0.00     0.031 H 
ATOM     20  H12 108 d   1      42.493  -4.705  32.431  0.00  0.00     0.031 H 
ATOM     21  H13 108 d   1      42.011  -5.675  30.999  0.00  0.00     0.031 H 
ENDBRANCH  13  18
ENDBRANCH  11  13
ENDBRANCH   3  10
BRANCH   4  22
ATOM     22  O1  108 d   1      43.611  -0.989  29.654  0.00  0.00    -0.360 OA
ATOM     23  H5  108 d   1      42.704  -0.737  29.783  0.00  0.00     0.217 HD
ENDBRANCH   4  22
BRANCH   1  24
ATOM     24  C8  108 d   1      44.343  -3.671  24.826  0.00  0.00     0.102 C 
ATOM     25  N2  108 d   1      44.102  -4.970  24.720  0.00  0.00    -0.385 N 
ATOM     26  H8  108 d   1      43.747  -5.496  25.531  0.00  0.00     0.157 HD
ATOM     27  H9  108 d   1      44.270  -5.454  23.826  0.00  0.00     0.157 HD
BRANCH  24  28
ATOM     28  N1  108 d   1      44.800  -2.990  23.784  0.00  0.00    -0.385 N 
ATOM     29  H6  108 d   1      44.969  -3.470  22.889  0.00  0.00     0.157 HD
ATOM     30  H7  108 d   1      44.986  -1.981  23.870  0.00  0.00     0.157 HD
ENDBRANCH  24  28
ENDBRANCH   1  24
TORSDOF 7
