REMARK  7 active torsions:
REMARK  status: ('A' for Active; 'I' for Inactive)
REMARK    1  A    between atoms: C1_1  and  C8_8 
REMARK    2  A    between atoms: C3_3  and  O1_9 
REMARK    3  A    between atoms: C4_4  and  C7_7 
REMARK    4  A    between atoms: C8_8  and  N1_10 
REMARK    5  A    between atoms: N_12  and  CA_13 
REMARK    6  A    between atoms: CA_13  and  CB_14 
REMARK    7  A    between atoms: CA_13  and  C_15 
ROOT
ATOM      1  C1  109 d   1      43.776  -2.984  26.334  0.00  0.00     0.010 A 
ATOM      2  C2  109 d   1      42.687  -3.491  27.025  0.00  0.00    -0.037 A 
ATOM      3  C3  109 d   1      42.147  -2.812  28.119  0.00  0.00     0.078 A 
ATOM      4  C4  109 d   1      42.705  -1.593  28.521  0.00  0.00     0.014 A 
ATOM      5  C5  109 d   1      43.802  -1.098  27.823  0.00  0.00    -0.068 A 
ATOM      6  C6  109 d   1      44.330  -1.781  26.742  0.00  0.00    -0.068 A 
ATOM      7  H1  109 d   1      42.247  -4.431  26.711  0.00  0.00     0.089 H 
ATOM      8  H2  109 d   1      44.251  -0.161  28.132  0.00  0.00     0.085 H 
ATOM      9  H3  109 d   1      45.182  -1.373  26.211  0.00  0.00     0.085 H 
ENDROOT
BRANCH   4  10
ATOM     10  C7  109 d   1      42.172  -0.823  29.630  0.00  0.00     0.010 C 
ATOM     11  N   109 d   1      41.149  -1.179  30.354  0.00  0.00    -0.285 NA
ATOM     12  H4  109 d   1      42.662   0.119  29.874  0.00  0.00     0.115 H 
BRANCH  11  13
ATOM     13  CA  109 d   1      40.715  -0.272  31.414  0.00  0.00     0.112 C 
ATOM     14  H10 109 d   1      41.603   0.177  31.882  0.00  0.00     0.092 H 
BRANCH  13  15
ATOM     15  CB  109 d   1      39.855   0.836  30.814  0.00  0.00    -0.046 C 
ATOM     16  H11 109 d   1      39.528   1.519  31.612  0.00  0.00     0.031 H 
ATOM     17  H12 109 d   1      38.974   0.393  30.327  0.00  0.00     0.031 H 
ATOM     18  H13 109 d   1      40.443   1.395  30.071  0.00  0.00     0.031 H 
ENDBRANCH  13  15
BRANCH  13  19
ATOM     19  C   109 d   1      39.925  -1.020  32.483  0.00  0.00     0.198 C 
ATOM     20  O   109 d   1      39.913  -0.567  33.635  0.00  0.00    -0.646 OA
ATOM     21  OXT 109 d   1      39.310  -2.087  32.103  0.00  0.00    -0.646 OA
ENDBRANCH  13  19
ENDBRANCH  11  13
ENDBRANCH   4  10
BRANCH   3  22
ATOM     22  O1  109 d   1      41.091  -3.408  28.709  0.00  0.00    -0.360 OA
ATOM     23  H5  109 d   1      40.337  -2.832  28.662  0.00  0.00     0.217 HD
ENDBRANCH   3  22
BRANCH   1  24
ATOM     24  C8  109 d   1      44.323  -3.695  25.195  0.00  0.00     0.102 C 
ATOM     25  N2  109 d   1      44.776  -3.012  24.151  0.00  0.00    -0.385 N 
ATOM     26  H8  109 d   1      44.744  -1.982  24.156  0.00  0.00     0.157 HD
ATOM     27  H9  109 d   1      45.160  -3.511  23.336  0.00  0.00     0.157 HD
BRANCH  24  28
ATOM     28  N1  109 d   1      44.366  -5.021  25.185  0.00  0.00    -0.385 N 
ATOM     29  H6  109 d   1      44.756  -5.518  24.371  0.00  0.00     0.157 HD
ATOM     30  H7  109 d   1      44.009  -5.554  25.991  0.00  0.00     0.157 HD
ENDBRANCH  24  28
ENDBRANCH   1  24
TORSDOF 7
