REMARK WARNING: 32 MAX_TORS EXCEEDED!!!
REMARK  39 active torsions:
REMARK  status: ('A' for Active; 'I' for Inactive)
REMARK    1  A    between atoms: N_1  and  CA_2 
REMARK    2  A    between atoms: CA_2  and  C_3 
REMARK    3  A    between atoms: CA_2  and  CB_5 
REMARK       I    between atoms: C_3  and  N_13 
REMARK    4  A    between atoms: N_13  and  CA_14 
REMARK    5  A    between atoms: CA_14  and  C_15 
REMARK    6  A    between atoms: CA_14  and  CB_17 
REMARK       I    between atoms: C_15  and  N_29 
REMARK    7  A    between atoms: CB_17  and  CG1_18 
REMARK    8  A    between atoms: CB_17  and  CG2_19 
REMARK    9  A    between atoms: CA_30  and  C_31 
REMARK       I    between atoms: C_31  and  N_43 
REMARK   10  A    between atoms: N_43  and  CA_44 
REMARK   11  A    between atoms: CA_44  and  C_45 
REMARK   12  A    between atoms: CA_44  and  CB_47 
REMARK       I    between atoms: C_45  and  N_62 
REMARK   13  A    between atoms: CB_47  and  CG1_48 
REMARK   14  A    between atoms: CB_47  and  CG2_49 
REMARK   15  A    between atoms: CG1_48  and  CD1_50 
REMARK   16  A    between atoms: N_62  and  CA_63 
REMARK   17  A    between atoms: CA_63  and  C_64 
REMARK   18  A    between atoms: CA_63  and  CB_66 
REMARK       I    between atoms: C_64  and  N_72 
REMARK   19  A    between atoms: N_72  and  CA_73 
REMARK   20  A    between atoms: CA_73  and  C_74 
REMARK   21  A    between atoms: CA_73  and  CB_76 
REMARK       I    between atoms: C_74  and  N_89 
REMARK   22  A    between atoms: CB_76  and  CG_77 
REMARK   23  A    between atoms: CG_77  and  CD_78 
REMARK       I    between atoms: CD_78  and  NE2_80 
REMARK   24  A    between atoms: N_89  and  CA_90 
REMARK   25  A    between atoms: CA_90  and  C_91 
REMARK   26  A    between atoms: CA_90  and  CB_93 
REMARK       I    between atoms: C_91  and  N_111 
REMARK   27  A    between atoms: CB_93  and  CG_94 
REMARK   28  A    between atoms: CG_94  and  CD_95 
REMARK   29  A    between atoms: CD_95  and  CE_96 
REMARK   30  A    between atoms: CE_96  and  NZ_97 
REMARK   31  A    between atoms: N_111  and  CA_112 
REMARK   32  A    between atoms: CA_112  and  C_113 
REMARK   33  A    between atoms: CA_112  and  CB_115 
REMARK       I    between atoms: C_113  and  N_122 
REMARK   34  A    between atoms: CB_115  and  OG_116 
REMARK   35  A    between atoms: N_122  and  CA_123 
REMARK   36  A    between atoms: CA_123  and  C_124 
REMARK   37  A    between atoms: CA_123  and  CB_126 
REMARK   38  A    between atoms: CB_126  and  CG_127 
REMARK   39  A    between atoms: CG_127  and  CD_128 
ROOT
ATOM      1  CA  ALA d   1       1.142 -11.541  12.435  0.00  0.00     0.086 C 
ATOM      2  H36 ALA d   1       1.639 -10.658  12.862  0.00  0.00     0.086 H 
ENDROOT
BRANCH   1   3
ATOM      3  N   ALA d   1       0.990 -11.325  10.999  0.00  0.00    -0.346 N 
ATOM      4  C   ILE d   1       0.442 -12.243  10.204  0.00  0.00     0.241 C 
ATOM      5  O   ILE d   1       0.028 -13.325  10.616  0.00  0.00    -0.271 OA
ATOM      6  H35 ALA d   1       1.306 -10.464  10.601  0.00  0.00     0.163 HD
BRANCH   4   7
ATOM      7  CA  ILE d   1       0.341 -11.885   8.724  0.00  0.00     0.092 C 
ATOM      8  H25 ILE d   1       0.205 -12.813   8.149  0.00  0.00     0.088 H 
BRANCH   7   9
ATOM      9  N   ILE d   1      -0.808 -11.022   8.471  0.00  0.00    -0.346 N 
ATOM     10  C   PRO d   1      -2.013 -11.304   8.959  0.00  0.00     0.241 C 
ATOM     11  O   PRO d   1      -2.241 -12.298   9.649  0.00  0.00    -0.271 OA
ATOM     12  H24 ILE d   1      -0.687 -10.198   7.917  0.00  0.00     0.163 HD
BRANCH  10  13
ATOM     13  CA  PRO d   1      -3.125 -10.318   8.620  0.00  0.00     0.091 C 
ATOM     14  N   PRO d   1      -4.211 -10.940   7.855  0.00  0.00    -0.337 N 
ATOM     15  C   VAL d   1      -4.083 -11.282   6.564  0.00  0.00     0.243 C 
ATOM     16  CD  PRO d   1      -5.425 -11.131   8.669  0.00  0.00    -0.001 C 
ATOM     17  O   VAL d   1      -3.038 -11.092   5.940  0.00  0.00    -0.271 OA
ATOM     18  CG  PRO d   1      -4.980 -10.764  10.059  0.00  0.00    -0.048 C 
ATOM     19  H22 PRO d   1      -5.765 -12.177   8.629  0.00  0.00     0.064 H 
ATOM     20  H23 PRO d   1      -6.235 -10.469   8.328  0.00  0.00     0.064 H 
ATOM     21  CB  PRO d   1      -3.823  -9.840   9.894  0.00  0.00    -0.036 C 
ATOM     22  H20 PRO d   1      -5.795 -10.262  10.600  0.00  0.00     0.035 H 
ATOM     23  H21 PRO d   1      -4.673 -11.664  10.611  0.00  0.00     0.035 H 
ATOM     24  H18 PRO d   1      -4.168  -8.802   9.781  0.00  0.00     0.036 H 
ATOM     25  H19 PRO d   1      -3.145  -9.909  10.757  0.00  0.00     0.036 H 
ATOM     26  H17 PRO d   1      -2.698  -9.470   8.064  0.00  0.00     0.087 H 
BRANCH  15  27
ATOM     27  CA  VAL d   1      -5.292 -11.920   5.885  0.00  0.00     0.092 C 
ATOM     28  H9  VAL d   1      -6.204 -11.521   6.353  0.00  0.00     0.088 H 
BRANCH  27  29
ATOM     29  N   VAL d   1      -5.332 -11.590   4.467  0.00  0.00    -0.346 N 
ATOM     30  C   ALA d   1      -5.963 -10.509   4.022  0.00  0.00     0.248 C 
ATOM     31  O   ALA d   1      -6.550  -9.721   4.765  0.00  0.00    -0.271 OA
ATOM     32  H8  VAL d   1      -4.873 -12.191   3.813  0.00  0.00     0.163 HD
BRANCH  30  33
ATOM     33  CA  ALA d   1      -5.927 -10.282   2.515  0.00  0.00     0.172 C 
ATOM     34  H4  ALA d   1      -5.648 -11.228   2.029  0.00  0.00     0.098 H 
BRANCH  33  35
ATOM     35  N   ALA d   1      -7.260  -9.871   2.005  0.00  0.00    -0.067 N 
ATOM     36  H1  ALA d   1      -7.209  -9.728   1.008  0.00  0.00     0.275 HD
ATOM     37  H2  ALA d   1      -7.542  -9.014   2.454  0.00  0.00     0.275 HD
ATOM     38  H3  ALA d   1      -7.934 -10.593   2.207  0.00  0.00     0.275 HD
ENDBRANCH  33  35
BRANCH  33  39
ATOM     39  CB  ALA d   1      -4.882  -9.234   2.166  0.00  0.00    -0.042 C 
ATOM     40  H5  ALA d   1      -3.901  -9.552   2.550  0.00  0.00     0.030 H 
ATOM     41  H6  ALA d   1      -5.160  -8.273   2.623  0.00  0.00     0.030 H 
ATOM     42  H7  ALA d   1      -4.828  -9.119   1.073  0.00  0.00     0.030 H 
ENDBRANCH  33  39
ENDBRANCH  30  33
ENDBRANCH  27  29
BRANCH  27  43
ATOM     43  CB  VAL d   1      -5.260 -13.447   6.108  0.00  0.00    -0.033 C 
ATOM     44  H10 VAL d   1      -5.291 -13.637   7.191  0.00  0.00     0.042 H 
BRANCH  43  45
ATOM     45  CG1 VAL d   1      -6.477 -14.101   5.472  0.00  0.00    -0.071 C 
ATOM     46  H11 VAL d   1      -6.439 -15.188   5.640  0.00  0.00     0.028 H 
ATOM     47  H12 VAL d   1      -6.480 -13.897   4.391  0.00  0.00     0.028 H 
ATOM     48  H13 VAL d   1      -7.392 -13.692   5.925  0.00  0.00     0.028 H 
ENDBRANCH  43  45
BRANCH  43  49
ATOM     49  CG2 VAL d   1      -3.979 -14.058   5.555  0.00  0.00    -0.071 C 
ATOM     50  H14 VAL d   1      -3.110 -13.575   6.025  0.00  0.00     0.028 H 
ATOM     51  H15 VAL d   1      -3.940 -13.905   4.466  0.00  0.00     0.028 H 
ATOM     52  H16 VAL d   1      -3.962 -15.136   5.775  0.00  0.00     0.028 H 
ENDBRANCH  43  49
ENDBRANCH  27  43
ENDBRANCH  15  27
ENDBRANCH  10  13
ENDBRANCH   7   9
BRANCH   7  53
ATOM     53  CB  ILE d   1       1.655 -11.219   8.271  0.00  0.00    -0.030 C 
ATOM     54  H26 ILE d   1       1.649 -10.171   8.607  0.00  0.00     0.043 H 
BRANCH  53  55
ATOM     55  CG1 ILE d   1       1.763 -11.238   6.745  0.00  0.00    -0.063 C 
ATOM     56  H27 ILE d   1       0.880 -10.733   6.327  0.00  0.00     0.033 H 
ATOM     57  H28 ILE d   1       1.779 -12.286   6.410  0.00  0.00     0.033 H 
BRANCH  55  58
ATOM     58  CD1 ILE d   1       3.003 -10.548   6.218  0.00  0.00    -0.076 C 
ATOM     59  H32 ILE d   1       3.013 -10.601   5.119  0.00  0.00     0.027 H 
ATOM     60  H33 ILE d   1       3.898 -11.047   6.617  0.00  0.00     0.027 H 
ATOM     61  H34 ILE d   1       2.999  -9.495   6.534  0.00  0.00     0.027 H 
ENDBRANCH  55  58
ENDBRANCH  53  55
BRANCH  53  62
ATOM     62  CG2 ILE d   1       2.849 -11.920   8.902  0.00  0.00    -0.071 C 
ATOM     63  H29 ILE d   1       2.752 -11.895   9.997  0.00  0.00     0.028 H 
ATOM     64  H30 ILE d   1       3.775 -11.406   8.604  0.00  0.00     0.028 H 
ATOM     65  H31 ILE d   1       2.883 -12.965   8.561  0.00  0.00     0.028 H 
ENDBRANCH  53  62
ENDBRANCH   7  53
ENDBRANCH   4   7
ENDBRANCH   1   3
BRANCH   1  66
ATOM     66  C   ALA d   1       2.014 -12.761  12.727  0.00  0.00     0.240 C 
ATOM     67  O   ALA d   1       3.212 -12.629  12.976  0.00  0.00    -0.271 OA
ATOM     68  N   GLN d   1       1.407 -13.946  12.694  0.00  0.00    -0.346 N 
ATOM     69  H40 GLN d   1       0.430 -13.986  12.485  0.00  0.00     0.163 HD
BRANCH  68  70
ATOM     70  CA  GLN d   1       2.128 -15.187  12.955  0.00  0.00     0.090 C 
ATOM     71  H41 GLN d   1       1.421 -16.023  12.855  0.00  0.00     0.087 H 
BRANCH  70  72
ATOM     72  C   GLN d   1       2.691 -15.204  14.376  0.00  0.00     0.241 C 
ATOM     73  O   GLN d   1       2.078 -15.772  15.277  0.00  0.00    -0.271 OA
ATOM     74  N   LYS d   1       3.854 -14.570  14.562  0.00  0.00    -0.346 N 
ATOM     75  H48 LYS d   1       4.290 -14.129  13.777  0.00  0.00     0.163 HD
BRANCH  74  76
ATOM     76  CA  LYS d   1       4.517 -14.494  15.868  0.00  0.00     0.089 C 
ATOM     77  H49 LYS d   1       5.581 -14.280  15.690  0.00  0.00     0.087 H 
BRANCH  76  78
ATOM     78  C   LYS d   1       4.432 -15.819  16.636  0.00  0.00     0.241 C 
ATOM     79  O   LYS d   1       5.303 -16.676  16.492  0.00  0.00    -0.271 OA
ATOM     80  N   SER d   1       3.387 -15.989  17.449  0.00  0.00    -0.344 N 
ATOM     81  H61 SER d   1       2.707 -15.261  17.530  0.00  0.00     0.163 HD
BRANCH  80  82
ATOM     82  CA  SER d   1       3.216 -17.214  18.222  0.00  0.00     0.109 C 
ATOM     83  H62 SER d   1       3.519 -18.067  17.596  0.00  0.00     0.090 H 
BRANCH  82  84
ATOM     84  C   SER d   1       1.757 -17.403  18.626  0.00  0.00     0.243 C 
ATOM     85  O   SER d   1       1.300 -16.835  19.618  0.00  0.00    -0.271 OA
ATOM     86  N   GLU d   1       1.032 -18.204  17.852  0.00  0.00    -0.345 N 
ATOM     87  H66 GLU d   1       1.461 -18.637  17.059  0.00  0.00     0.163 HD
BRANCH  86  88
ATOM     88  CA  GLU d   1      -0.376 -18.467  18.132  0.00  0.00     0.097 C 
ATOM     89  H67 GLU d   1      -0.558 -18.285  19.201  0.00  0.00     0.089 H 
BRANCH  88  90
ATOM     90  C   GLU d   1      -0.731 -19.918  17.820  0.00  0.00     0.196 C 
ATOM     91  O   GLU d   1      -1.413 -20.551  18.653  0.00  0.00    -0.646 OA
ATOM     92  OXT GLU d   1      -0.324 -20.408  16.746  0.00  0.00    -0.646 OA
ENDBRANCH  88  90
BRANCH  88  93
ATOM     93  CB  GLU d   1      -1.265 -17.526  17.317  0.00  0.00    -0.028 C 
ATOM     94  H68 GLU d   1      -2.004 -18.131  16.771  0.00  0.00     0.037 H 
ATOM     95  H69 GLU d   1      -0.632 -16.984  16.599  0.00  0.00     0.037 H 
BRANCH  93  96
ATOM     96  CG  GLU d   1      -2.010 -16.508  18.164  0.00  0.00     0.018 C 
ATOM     97  H70 GLU d   1      -1.302 -16.052  18.872  0.00  0.00     0.049 H 
ATOM     98  H71 GLU d   1      -2.803 -17.027  18.722  0.00  0.00     0.049 H 
BRANCH  96  99
ATOM     99  CD  GLU d   1      -2.641 -15.408  17.332  0.00  0.00     0.172 C 
ATOM    100  OE1 GLU d   1      -3.369 -15.734  16.371  0.00  0.00    -0.648 OA
ATOM    101  OE2 GLU d   1      -2.408 -14.221  17.643  0.00  0.00    -0.648 OA
ENDBRANCH  96  99
ENDBRANCH  93  96
ENDBRANCH  88  93
ENDBRANCH  86  88
ENDBRANCH  82  84
BRANCH  82 102
ATOM    102  CB  SER d   1       4.103 -17.181  19.468  0.00  0.00     0.044 C 
ATOM    103  H63 SER d   1       4.336 -18.213  19.770  0.00  0.00     0.077 H 
ATOM    104  H64 SER d   1       3.562 -16.674  20.280  0.00  0.00     0.077 H 
BRANCH 102 105
ATOM    105  OG  SER d   1       5.313 -16.489  19.216  0.00  0.00    -0.398 OA
ATOM    106  H65 SER d   1       5.786 -16.925  18.517  0.00  0.00     0.209 HD
ENDBRANCH 102 105
ENDBRANCH  82 102
ENDBRANCH  80  82
ENDBRANCH  76  78
BRANCH  76 107
ATOM    107  CB  LYS d   1       3.937 -13.344  16.702  0.00  0.00    -0.038 C 
ATOM    108  H50 LYS d   1       4.629 -12.491  16.644  0.00  0.00     0.036 H 
ATOM    109  H51 LYS d   1       3.855 -13.680  17.746  0.00  0.00     0.036 H 
BRANCH 107 110
ATOM    110  CG  LYS d   1       2.565 -12.881  16.239  0.00  0.00    -0.061 C 
ATOM    111  H52 LYS d   1       1.866 -13.729  16.290  0.00  0.00     0.033 H 
ATOM    112  H53 LYS d   1       2.639 -12.529  15.200  0.00  0.00     0.033 H 
BRANCH 110 113
ATOM    113  CD  LYS d   1       2.035 -11.751  17.106  0.00  0.00    -0.043 C 
ATOM    114  H54 LYS d   1       2.118 -10.805  16.551  0.00  0.00     0.035 H 
ATOM    115  H55 LYS d   1       2.638 -11.691  18.024  0.00  0.00     0.035 H 
BRANCH 113 116
ATOM    116  CE  LYS d   1       0.580 -11.977  17.484  0.00  0.00     0.080 C 
ATOM    117  H56 LYS d   1       0.089 -12.550  16.683  0.00  0.00     0.075 H 
ATOM    118  H57 LYS d   1       0.085 -11.001  17.593  0.00  0.00     0.075 H 
BRANCH 116 119
ATOM    119  NZ  LYS d   1       0.448 -12.728  18.762  0.00  0.00    -0.079 N 
ATOM    120  H58 LYS d   1      -0.528 -12.857  18.977  0.00  0.00     0.274 HD
ATOM    121  H59 LYS d   1       0.889 -12.208  19.504  0.00  0.00     0.274 HD
ATOM    122  H60 LYS d   1       0.893 -13.628  18.671  0.00  0.00     0.274 HD
ENDBRANCH 116 119
ENDBRANCH 113 116
ENDBRANCH 110 113
ENDBRANCH 107 110
ENDBRANCH  76 107
ENDBRANCH  74  76
ENDBRANCH  70  72
BRANCH  70 123
ATOM    123  CB  GLN d   1       3.250 -15.381  11.931  0.00  0.00    -0.030 C 
ATOM    124  H42 GLN d   1       3.848 -14.458  11.891  0.00  0.00     0.037 H 
ATOM    125  H43 GLN d   1       2.795 -15.566  10.947  0.00  0.00     0.037 H 
BRANCH 123 126
ATOM    126  CG  GLN d   1       4.177 -16.540  12.257  0.00  0.00     0.011 C 
ATOM    127  H44 GLN d   1       4.205 -17.222  11.394  0.00  0.00     0.047 H 
ATOM    128  H45 GLN d   1       3.779 -17.073  13.133  0.00  0.00     0.047 H 
BRANCH 126 129
ATOM    129  CD  GLN d   1       5.591 -16.088  12.565  0.00  0.00     0.215 C 
ATOM    130  OE1 GLN d   1       6.199 -15.345  11.794  0.00  0.00    -0.274 OA
ATOM    131  NE2 GLN d   1       6.121 -16.535  13.697  0.00  0.00    -0.370 N 
ATOM    132  H46 GLN d   1       7.051 -16.270  13.953  0.00  0.00     0.159 HD
ATOM    133  H47 GLN d   1       5.590 -17.137  14.294  0.00  0.00     0.159 HD
ENDBRANCH 126 129
ENDBRANCH 123 126
ENDBRANCH  70 123
ENDBRANCH  68  70
ENDBRANCH   1  66
BRANCH   1 134
ATOM    134  CB  ALA d   1      -0.222 -11.685  13.095  0.00  0.00    -0.049 C 
ATOM    135  H37 ALA d   1      -0.091 -11.847  14.175  0.00  0.00     0.030 H 
ATOM    136  H38 ALA d   1      -0.752 -12.543  12.657  0.00  0.00     0.030 H 
ATOM    137  H39 ALA d   1      -0.808 -10.769  12.930  0.00  0.00     0.030 H 
ENDBRANCH   1 134
TORSDOF 39
