REMARK  3 active torsions:
REMARK  status: ('A' for Active; 'I' for Inactive)
REMARK    1  A    between atoms: C4_7  and  O1_3 
REMARK    2  A    between atoms: C1'_13  and  C1_4 
REMARK    3  A    between atoms: C4'_16  and  O1'_12 
ROOT
ATOM      1 CL1  PCQ d   1      31.824   2.903   8.628  0.00  0.00    -0.081 Cl
ATOM      2 CL2  PCQ d   1      29.628   5.752   4.452  0.00  0.00    -0.081 Cl
ATOM      3  C1  PCQ d   1      30.226   1.754   4.994  0.00  0.00    -0.022 A 
ATOM      4  C2  PCQ d   1      30.876   1.761   6.387  0.00  0.00    -0.048 A 
ATOM      5  C3  PCQ d   1      31.095   2.984   7.064  0.00  0.00     0.069 A 
ATOM      6  C4  PCQ d   1      30.728   4.269   6.493  0.00  0.00     0.109 A 
ATOM      7  C5  PCQ d   1      30.106   4.253   5.178  0.00  0.00     0.069 A 
ATOM      8  C6  PCQ d   1      29.867   3.051   4.461  0.00  0.00    -0.048 A 
ATOM      9  H2  PCQ d   1      31.168   0.826   6.852  0.00  0.00     0.087 H 
ATOM     10  H3  PCQ d   1      29.401   3.106   3.484  0.00  0.00     0.087 H 
ENDROOT
BRANCH   3  11
ATOM     11  C1' PCQ d   1      29.976   0.466   4.237  0.00  0.00    -0.022 A 
ATOM     12  C2' PCQ d   1      28.895   0.363   3.285  0.00  0.00    -0.048 A 
ATOM     13  C3' PCQ d   1      28.650  -0.835   2.572  0.00  0.00     0.069 A 
ATOM     14  H5  PCQ d   1      28.257   1.222   3.113  0.00  0.00     0.087 H 
ATOM     15 CL3  PCQ d   1      27.337  -0.861   1.467  0.00  0.00    -0.081 Cl
ATOM     16  C4' PCQ d   1      29.448  -2.015   2.740  0.00  0.00     0.109 A 
ATOM     17  C5' PCQ d   1      30.534  -1.930   3.690  0.00  0.00     0.069 A 
ATOM     18 CL4  PCQ d   1      31.523  -3.321   3.935  0.00  0.00    -0.081 Cl
ATOM     19  C6' PCQ d   1      30.802  -0.734   4.423  0.00  0.00    -0.048 A 
ATOM     20  H6  PCQ d   1      31.627  -0.712   5.126  0.00  0.00     0.087 H 
BRANCH  16  21
ATOM     21  O1' PCQ d   1      29.227  -3.176   2.064  0.00  0.00    -0.357 OA
ATOM     22  H4  PCQ d   1      29.871  -3.823   2.329  0.00  0.00     0.217 HD
ENDBRANCH  16  21
ENDBRANCH   3  11
BRANCH   6  23
ATOM     23  O1  PCQ d   1      30.928   5.467   7.114  0.00  0.00    -0.357 OA
ATOM     24  H1  PCQ d   1      30.455   5.478   7.938  0.00  0.00     0.217 HD
ENDBRANCH   6  23
TORSDOF 3
