REMARK  3 active torsions:
REMARK  status: ('A' for Active; 'I' for Inactive)
REMARK    1  A    between atoms: C4_4  and  C3_8 
REMARK    2  A    between atoms: CL1_6  and  C2_7 
REMARK    3  A    between atoms: C3_8  and  C4_9 
ROOT
ATOM      1 CL1  NON d   1       7.135  25.844  23.726  0.00  0.00    -0.164 Cl
ATOM      2  C2  NON d   1       7.683  24.376  24.535  0.00  0.00     0.135 A 
ATOM      3 CL1  NON d   1       7.081  25.792  23.570  0.00  0.00    -0.164 Cl
ATOM      4  C2  NON d   1       7.611  24.278  24.309  0.00  0.00     0.135 A 
ATOM      5  C3  NON d   1       7.701  24.431  25.834  0.00  0.00     0.069 A 
ENDROOT
BRANCH   5   6
ATOM      6  C4  NON d   1       7.899  23.324  26.811  0.00  0.00     0.053 A 
ATOM      7  C3  NON d   1       7.803  24.657  26.039  0.00  0.00     0.117 A 
ATOM      8 CL5  NON d   1       9.218  25.667  26.357  0.00  0.00    -0.186 Cl
ATOM      9  C4  NON d   1       9.013  25.159  26.211  0.00  0.00     0.053 A 
ATOM     10 CL5  NON d   1       7.633  22.843  26.599  0.00  0.00    -0.186 Cl
ATOM     11  H2  NON d   1       9.892  24.512  26.347  0.00  0.00     0.069 H 
ATOM     12  H1  NON d   1       8.616  23.125  27.622  0.00  0.00     0.069 H 
ENDBRANCH   5   6
TORSDOF 3
