REMARK  12 active torsions:
REMARK  status: ('A' for Active; 'I' for Inactive)
REMARK    1  A    between atoms: S2_2  and  N2_5 
REMARK    2  A    between atoms: S2_2  and  C13_4 
REMARK    3  A    between atoms: N2_5  and  C17_6 
REMARK    4  A    between atoms: C8_9  and  C20_10 
REMARK    5  A    between atoms: NA_12  and  OA_13 
REMARK    6  A    between atoms: N1_14  and  S1_15 
REMARK    7  A    between atoms: S1_15  and  C1_18 
REMARK    8  A    between atoms: C4_21  and  O3_24 
REMARK    9  A    between atoms: O3_24  and  C7_25 
REMARK   10  A    between atoms: C7_25  and  C10_26 
REMARK   11  A    between atoms: C10_26  and  C12_27 
REMARK   12  A    between atoms: C12_27  and  C14_28 
ROOT
ATOM      1  S1  111 d   1       4.184  47.817  53.031  0.00  0.00     0.261 S 
ATOM      2  O1  111 d   1       3.730  46.532  52.267  0.00  0.00    -0.200 OA
ATOM      3  O2  111 d   1       5.744  47.837  52.997  0.00  0.00    -0.200 OA
ENDROOT
BRANCH   1   4
ATOM      4  N1  111 d   1       3.609  49.219  52.192  0.00  0.00    -0.292 N 
ATOM      5  C11 111 d   1       3.919  50.583  52.664  0.00  0.00     0.026 C 
ATOM      6  C17 111 d   1       2.963  51.497  51.873  0.00  0.00     0.038 C 
ATOM      7  H6  111 d   1       3.734  50.671  53.745  0.00  0.00     0.068 H 
ATOM      8  H7  111 d   1       4.967  50.839  52.449  0.00  0.00     0.068 H 
ATOM      9  C9  111 d   1       2.191  50.561  50.940  0.00  0.00    -0.017 C 
ATOM     10  H5  111 d   1       2.265  51.982  52.572  0.00  0.00     0.076 H 
ATOM     11  C8  111 d   1       2.267  49.197  51.605  0.00  0.00     0.090 C 
ATOM     12  H8  111 d   1       2.659  50.533  49.945  0.00  0.00     0.039 H 
ATOM     13  H9  111 d   1       1.145  50.887  50.844  0.00  0.00     0.039 H 
ATOM     14  H10 111 d   1       2.151  48.358  50.904  0.00  0.00     0.087 H 
BRANCH   6  15
ATOM     15  N2  111 d   1       3.654  52.550  51.116  0.00  0.00    -0.313 N 
ATOM     16  H4  111 d   1       4.409  52.328  50.499  0.00  0.00     0.172 HD
BRANCH  15  17
ATOM     17  S2  111 d   1       3.125  54.181  51.322  0.00  0.00     0.223 S 
ATOM     18  O5  111 d   1       4.395  55.084  51.531  0.00  0.00    -0.206 OA
ATOM     19  O4  111 d   1       2.190  54.218  52.589  0.00  0.00    -0.206 OA
BRANCH  17  20
ATOM     20  C13 111 d   1       2.173  54.718  49.918  0.00  0.00     0.032 C 
ATOM     21  H1  111 d   1       1.294  54.067  49.800  0.00  0.00     0.051 H 
ATOM     22  H2  111 d   1       2.794  54.663  49.011  0.00  0.00     0.051 H 
ATOM     23  H3  111 d   1       1.842  55.755  50.074  0.00  0.00     0.051 H 
ENDBRANCH  17  20
ENDBRANCH  15  17
ENDBRANCH   6  15
BRANCH  11  24
ATOM     24  C20 111 d   1       1.134  49.223  52.610  0.00  0.00     0.198 C 
ATOM     25  NA  111 d   1       0.545  48.091  52.957  0.00  0.00    -0.247 N 
ATOM     26  H11 111 d   1       0.951  47.185  52.839  0.00  0.00     0.196 HD
ATOM     27  OB  111 d   1       0.697  50.408  53.083  0.00  0.00    -0.173 OA
BRANCH  25  28
ATOM     28  OA  111 d   1      -0.696  48.318  53.501  0.00  0.00    -0.288 OA
ATOM     29  H12 111 d   1      -1.093  47.488  53.739  0.00  0.00     0.244 HD
ENDBRANCH  25  28
ENDBRANCH  11  24
ENDBRANCH   1   4
BRANCH   1  30
ATOM     30  C1  111 d   1       3.623  47.715  54.672  0.00  0.00     0.079 A 
ATOM     31  C6  111 d   1       2.889  46.628  55.158  0.00  0.00    -0.058 A 
ATOM     32  C5  111 d   1       2.514  46.577  56.502  0.00  0.00    -0.049 A 
ATOM     33  H16 111 d   1       2.610  45.822  54.489  0.00  0.00     0.086 H 
ATOM     34  C4  111 d   1       2.860  47.607  57.361  0.00  0.00     0.068 A 
ATOM     35  H15 111 d   1       1.951  45.729  56.874  0.00  0.00     0.087 H 
ATOM     36  C3  111 d   1       3.610  48.678  56.891  0.00  0.00    -0.049 A 
ATOM     37  C2  111 d   1       3.982  48.731  55.553  0.00  0.00    -0.058 A 
ATOM     38  H14 111 d   1       3.905  49.472  57.568  0.00  0.00     0.087 H 
ATOM     39  H13 111 d   1       4.559  49.574  55.191  0.00  0.00     0.086 H 
BRANCH  34  40
ATOM     40  O3  111 d   1       2.521  47.568  58.557  0.00  0.00    -0.351 OA
BRANCH  40  41
ATOM     41  C7  111 d   1       3.323  48.277  59.505  0.00  0.00     0.026 C 
ATOM     42  H17 111 d   1       3.191  49.357  59.343  0.00  0.00     0.075 H 
ATOM     43  H18 111 d   1       4.378  48.009  59.347  0.00  0.00     0.075 H 
BRANCH  41  44
ATOM     44  C10 111 d   1       2.947  47.950  60.927  0.00  0.00    -0.045 C 
ATOM     45  H19 111 d   1       1.871  48.137  61.055  0.00  0.00     0.036 H 
ATOM     46  H20 111 d   1       3.516  48.610  61.599  0.00  0.00     0.036 H 
BRANCH  44  47
ATOM     47  C12 111 d   1       3.237  46.496  61.315  0.00  0.00    -0.067 C 
ATOM     48  H21 111 d   1       2.509  46.186  62.080  0.00  0.00     0.032 H 
ATOM     49  H22 111 d   1       4.253  46.441  61.733  0.00  0.00     0.032 H 
BRANCH  47  50
ATOM     50  C14 111 d   1       3.145  45.540  60.149  0.00  0.00    -0.076 C 
ATOM     51  H23 111 d   1       3.363  44.519  60.494  0.00  0.00     0.027 H 
ATOM     52  H24 111 d   1       3.874  45.830  59.378  0.00  0.00     0.027 H 
ATOM     53  H25 111 d   1       2.131  45.575  59.725  0.00  0.00     0.027 H 
ENDBRANCH  47  50
ENDBRANCH  44  47
ENDBRANCH  41  44
ENDBRANCH  40  41
ENDBRANCH  34  40
ENDBRANCH   1  30
TORSDOF 12
