REMARK  5 active torsions:
REMARK  status: ('A' for Active; 'I' for Inactive)
REMARK    1  A    between atoms: C03_3  and  S11_11 
REMARK    2  A    between atoms: C06_6  and  C07_7 
REMARK       I    between atoms: C07_7  and  N09_9 
REMARK    3  A    between atoms: N09_9  and  C10_10 
REMARK    4  A    between atoms: C10_10  and  C15_15 
REMARK    5  A    between atoms: S11_11  and  NP2_12 
ROOT
ATOM      1  C07 FFB d   1      -4.117   5.628  13.728  0.00  0.00     0.251 C 
ATOM      2  O08 FFB d   1      -4.954   6.472  13.423  0.00  0.00    -0.268 OA
ATOM      3  N09 FFB d   1      -2.755   5.862  13.436  0.00  0.00    -0.352 N 
ATOM      4  H5  FFB d   1      -2.044   5.442  14.000  0.00  0.00     0.163 HD
ENDROOT
BRANCH   1   5
ATOM      5  C06 FFB d   1      -4.648   4.426  14.444  0.00  0.00     0.032 A 
ATOM      6  C01 FFB d   1      -3.791   3.414  14.857  0.00  0.00    -0.066 A 
ATOM      7  C02 FFB d   1      -4.260   2.316  15.570  0.00  0.00    -0.059 A 
ATOM      8  H1  FFB d   1      -2.736   3.481  14.619  0.00  0.00     0.085 H 
ATOM      9  C03 FFB d   1      -5.641   2.229  15.885  0.00  0.00     0.079 A 
ATOM     10  H2  FFB d   1      -3.577   1.534  15.882  0.00  0.00     0.085 H 
ATOM     11  C04 FFB d   1      -6.487   3.245  15.446  0.00  0.00    -0.059 A 
ATOM     12  C05 FFB d   1      -5.990   4.327  14.732  0.00  0.00    -0.066 A 
ATOM     13  H3  FFB d   1      -7.547   3.190  15.665  0.00  0.00     0.085 H 
ATOM     14  H4  FFB d   1      -6.668   5.104  14.397  0.00  0.00     0.085 H 
BRANCH   9  15
ATOM     15  S11 FFB d   1      -6.202   0.828  16.839  0.00  0.00     0.256 S 
ATOM     16  O14 FFB d   1      -5.544   1.034  18.135  0.00  0.00    -0.201 OA
ATOM     17  O13 FFB d   1      -7.648   1.077  16.933  0.00  0.00    -0.201 OA
BRANCH  15  18
ATOM     18  NP2 FFB d   1      -5.789  -0.594  16.060  0.00  0.00    -0.324 N 
ATOM     19  H8  FFB d   1      -6.032  -1.475  16.465  0.00  0.00     0.169 HD
ATOM     20  H9  FFB d   1      -5.299  -0.563  15.189  0.00  0.00     0.169 HD
ENDBRANCH  15  18
ENDBRANCH   9  15
ENDBRANCH   1   5
BRANCH   3  21
ATOM     21  C10 FFB d   1      -2.384   6.714  12.315  0.00  0.00     0.025 C 
ATOM     22  H6  FFB d   1      -3.278   7.248  11.961  0.00  0.00     0.071 H 
ATOM     23  H7  FFB d   1      -1.987   6.085  11.504  0.00  0.00     0.071 H 
BRANCH  21  24
ATOM     24  C15 FFB d   1      -1.387   7.674  12.690  0.00  0.00     0.043 A 
ATOM     25  C20 FFB d   1      -0.225   7.923  11.851  0.00  0.00     0.169 A 
ATOM     26  C19 FFB d   1       0.750   8.873  12.265  0.00  0.00     0.197 A 
ATOM     27  F25 FFB d   1      -0.043   7.277  10.691  0.00  0.00    -0.202 F 
ATOM     28  C18 FFB d   1       0.583   9.577  13.504  0.00  0.00     0.199 A 
ATOM     29  F24 FFB d   1       1.820   9.101  11.491  0.00  0.00    -0.199 F 
ATOM     30  C17 FFB d   1      -0.568   9.331  14.339  0.00  0.00     0.197 A 
ATOM     31  F23 FFB d   1       1.503  10.471  13.891  0.00  0.00    -0.199 F 
ATOM     32  C16 FFB d   1      -1.566   8.369  13.931  0.00  0.00     0.169 A 
ATOM     33  F22 FFB d   1      -0.712   9.994  15.495  0.00  0.00    -0.199 F 
ATOM     34  F21 FFB d   1      -2.631   8.141  14.712  0.00  0.00    -0.202 F 
ENDBRANCH  21  24
ENDBRANCH   3  21
TORSDOF 5
