REMARK  4 active torsions:
REMARK  status: ('A' for Active; 'I' for Inactive)
REMARK    1  A    between atoms: C5_7  and  C8_11 
REMARK    2  A    between atoms: C5_7  and  C7_10 
REMARK    3  A    between atoms: C11_14  and  O11_17 
REMARK    4  A    between atoms: O11_17  and  C14_18 
ROOT
ATOM      1  C8  HQQ d   1      19.157  33.355  47.281  0.00  0.00    -0.031 A 
ATOM      2  C9  HQQ d   1      20.506  32.821  47.436  0.00  0.00    -0.072 A 
ATOM      3  C10 HQQ d   1      21.615  33.694  47.497  0.00  0.00    -0.050 A 
ATOM      4  C11 HQQ d   1      21.464  35.091  47.448  0.00  0.00     0.076 A 
ATOM      5  C12 HQQ d   1      20.137  35.646  47.318  0.00  0.00    -0.050 A 
ATOM      6  C13 HQQ d   1      19.012  34.780  47.224  0.00  0.00    -0.072 A 
ATOM      7  H6  HQQ d   1      20.658  31.750  47.505  0.00  0.00     0.084 H 
ATOM      8  H7  HQQ d   1      22.611  33.275  47.584  0.00  0.00     0.087 H 
ATOM      9  H8  HQQ d   1      19.998  36.721  47.292  0.00  0.00     0.087 H 
ATOM     10  H9  HQQ d   1      18.023  35.208  47.107  0.00  0.00     0.084 H 
ENDROOT
BRANCH   1  11
ATOM     11  C5  HQQ d   1      17.888  32.395  47.263  0.00  0.00     0.145 C 
ATOM     12  C4  HQQ d   1      17.432  32.642  48.717  0.00  0.00     0.248 C 
ATOM     13  N3  HQQ d   1      17.700  31.670  49.655  0.00  0.00    -0.278 N 
ATOM     14  O4  HQQ d   1      16.405  33.302  48.993  0.00  0.00    -0.271 OA
ATOM     15  C2  HQQ d   1      18.614  30.680  49.438  0.00  0.00     0.329 C 
ATOM     16  H2  HQQ d   1      17.208  31.690  50.525  0.00  0.00     0.173 HD
ATOM     17  N1  HQQ d   1      18.882  30.315  48.130  0.00  0.00    -0.278 N 
ATOM     18  O2  HQQ d   1      18.942  30.018  50.460  0.00  0.00    -0.247 OA
ATOM     19  C6  HQQ d   1      18.395  30.960  47.032  0.00  0.00     0.248 C 
ATOM     20  H1  HQQ d   1      19.474  29.523  47.980  0.00  0.00     0.173 HD
ATOM     21  O6  HQQ d   1      18.651  30.621  45.862  0.00  0.00    -0.271 OA
BRANCH  11  22
ATOM     22  C7  HQQ d   1      16.722  32.685  46.255  0.00  0.00    -0.048 C 
ATOM     23  H3  HQQ d   1      16.350  33.709  46.409  0.00  0.00     0.030 H 
ATOM     24  H4  HQQ d   1      15.905  31.968  46.424  0.00  0.00     0.030 H 
ATOM     25  H5  HQQ d   1      17.094  32.581  45.225  0.00  0.00     0.030 H 
ENDBRANCH  11  22
ENDBRANCH   1  11
BRANCH   4  26
ATOM     26  O11 HQQ d   1      22.613  35.922  47.488  0.00  0.00    -0.311 OA
BRANCH  26  27
ATOM     27  C14 HQQ d   1      22.402  37.336  47.598  0.00  0.00     0.076 A 
ATOM     28  C19 HQQ d   1      21.476  37.870  48.569  0.00  0.00    -0.050 A 
ATOM     29  C18 HQQ d   1      21.253  39.279  48.634  0.00  0.00    -0.080 A 
ATOM     30  H14 HQQ d   1      20.953  37.204  49.245  0.00  0.00     0.087 H 
ATOM     31  C17 HQQ d   1      21.948  40.106  47.720  0.00  0.00    -0.083 A 
ATOM     32  H13 HQQ d   1      20.571  39.703  49.362  0.00  0.00     0.083 H 
ATOM     33  C16 HQQ d   1      22.854  39.606  46.728  0.00  0.00    -0.080 A 
ATOM     34  H12 HQQ d   1      21.786  41.177  47.773  0.00  0.00     0.083 H 
ATOM     35  C15 HQQ d   1      23.079  38.189  46.669  0.00  0.00    -0.050 A 
ATOM     36  H11 HQQ d   1      23.355  40.279  46.042  0.00  0.00     0.083 H 
ATOM     37  H10 HQQ d   1      23.753  37.771  45.930  0.00  0.00     0.087 H 
ENDBRANCH  26  27
ENDBRANCH   4  26
TORSDOF 4
