REMARK  3 active torsions:
REMARK  status: ('A' for Active; 'I' for Inactive)
REMARK    1  A    between atoms: C3_3  and  O3_4 
REMARK    2  A    between atoms: C13_14  and  C18_20 
REMARK    3  A    between atoms: C17_18  and  O17_19 
ROOT
ATOM      1  C1  EST d   1     104.010  17.378  24.929  0.00  0.00    -0.073 A 
ATOM      2  C2  EST d   1     102.846  17.987  25.511  0.00  0.00    -0.051 A 
ATOM      3  C3  EST d   1     101.529  17.488  25.179  0.00  0.00     0.066 A 
ATOM      4  C4  EST d   1     101.386  16.398  24.275  0.00  0.00    -0.044 A 
ATOM      5  C5  EST d   1     102.517  15.781  23.685  0.00  0.00    -0.049 A 
ATOM      6  C6  EST d   1     102.281  14.627  22.718  0.00  0.00    -0.040 C 
ATOM      7  C7  EST d   1     103.562  13.987  22.072  0.00  0.00    -0.057 C 
ATOM      8  C8  EST d   1     104.812  14.054  22.954  0.00  0.00    -0.042 C 
ATOM      9  C9  EST d   1     105.119  15.565  23.338  0.00  0.00    -0.024 C 
ATOM     10  C10 EST d   1     103.878  16.262  24.008  0.00  0.00    -0.047 A 
ATOM     11  C11 EST d   1     106.409  15.588  24.205  0.00  0.00    -0.057 C 
ATOM     12  C12 EST d   1     107.647  14.914  23.537  0.00  0.00    -0.055 C 
ATOM     13  C13 EST d   1     107.365  13.459  23.130  0.00  0.00    -0.014 C 
ATOM     14  C14 EST d   1     106.061  13.428  22.236  0.00  0.00    -0.041 C 
ATOM     15  C15 EST d   1     106.062  11.982  21.725  0.00  0.00    -0.058 C 
ATOM     16  C16 EST d   1     107.571  11.749  21.341  0.00  0.00    -0.040 C 
ATOM     17  C17 EST d   1     108.352  12.845  22.112  0.00  0.00     0.043 C 
ATOM     18  H1  EST d   1     104.995  17.754  25.179  0.00  0.00     0.084 H 
ATOM     19  H2  EST d   1     102.954  18.819  26.198  0.00  0.00     0.087 H 
ATOM     20  H4  EST d   1     100.394  16.033  24.034  0.00  0.00     0.088 H 
ATOM     21  H5  EST d   1     101.644  14.999  21.902  0.00  0.00     0.040 H 
ATOM     22  H6  EST d   1     101.750  13.834  23.265  0.00  0.00     0.040 H 
ATOM     23  H7  EST d   1     103.775  14.516  21.132  0.00  0.00     0.034 H 
ATOM     24  H8  EST d   1     103.348  12.930  21.857  0.00  0.00     0.034 H 
ATOM     25  H9  EST d   1     104.618  13.486  23.876  0.00  0.00     0.041 H 
ATOM     26  H10 EST d   1     105.332  16.116  22.410  0.00  0.00     0.048 H 
ATOM     27  H11 EST d   1     106.199  15.063  25.148  0.00  0.00     0.034 H 
ATOM     28  H12 EST d   1     106.662  16.637  24.418  0.00  0.00     0.034 H 
ATOM     29  H13 EST d   1     108.485  14.927  24.249  0.00  0.00     0.034 H 
ATOM     30  H14 EST d   1     107.921  15.487  22.639  0.00  0.00     0.034 H 
ATOM     31  H15 EST d   1     106.226  14.070  21.358  0.00  0.00     0.042 H 
ATOM     32  H16 EST d   1     105.408  11.871  20.847  0.00  0.00     0.033 H 
ATOM     33  H17 EST d   1     105.741  11.284  22.512  0.00  0.00     0.033 H 
ATOM     34  H18 EST d   1     107.716  11.861  20.256  0.00  0.00     0.036 H 
ATOM     35  H19 EST d   1     107.900  10.747  21.654  0.00  0.00     0.036 H 
ATOM     36  H20 EST d   1     108.658  13.636  21.412  0.00  0.00     0.084 H 
ENDROOT
BRANCH  13  37
ATOM     37  C18 EST d   1     107.314  12.555  24.426  0.00  0.00    -0.066 C 
ATOM     38  H22 EST d   1     106.611  12.992  25.151  0.00  0.00     0.028 H 
ATOM     39  H23 EST d   1     108.317  12.501  24.875  0.00  0.00     0.028 H 
ATOM     40  H24 EST d   1     106.978  11.543  24.154  0.00  0.00     0.028 H 
ENDBRANCH  13  37
BRANCH  17  41
ATOM     41  O17 EST d   1     109.547  12.275  22.674  0.00  0.00    -0.395 OA
ATOM     42  H21 EST d   1     110.091  11.930  21.976  0.00  0.00     0.210 HD
ENDBRANCH  17  41
BRANCH   3  43
ATOM     43  O3  EST d   1     100.378  18.069  25.729  0.00  0.00    -0.361 OA
ATOM     44  H3  EST d   1     100.410  17.998  26.676  0.00  0.00     0.217 HD
ENDBRANCH   3  43
TORSDOF 3
