REMARK  1 active torsions:
REMARK  status: ('A' for Active; 'I' for Inactive)
REMARK    1  A    between atoms: C1_2  and  C2_3 
ROOT
ATOM      1 CL1  NON d   1       8.979  25.474  26.737  0.00  0.00    -0.129 Cl
ATOM      2  C1  NON d   1       7.441  24.974  26.028  0.00  0.00     0.014 C 
ATOM      3  H   NON d   1       6.612  25.369  26.633  0.00  0.00     0.058 H 
ATOM      4  H   NON d   1       7.387  23.876  26.005  0.00  0.00     0.058 H 
ENDROOT
BRANCH   2   5
ATOM      5  C2  NON d   1       7.338  25.524  24.595  0.00  0.00     0.014 C 
ATOM      6 CL2  NON d   1       7.113  24.188  23.461  0.00  0.00    -0.129 Cl
ATOM      7  H   NON d   1       8.262  26.066  24.344  0.00  0.00     0.058 H 
ATOM      8  H   NON d   1       6.481  26.210  24.527  0.00  0.00     0.058 H 
ENDBRANCH   2   5
TORSDOF 1
