REMARK  7 active torsions:
REMARK  status: ('A' for Active; 'I' for Inactive)
REMARK    1  A    between atoms: N9_2  and  C26_1 
REMARK    2  A    between atoms: N10_19  and  C2_5 
REMARK    3  A    between atoms: C6_6  and  N18_11 
REMARK    4  A    between atoms: N18_11  and  C19_12 
REMARK    5  A    between atoms: C19_12  and  C20_18 
REMARK    6  A    between atoms: C11_20  and  N10_19 
REMARK    7  A    between atoms: C14_21  and  N17_26 
ROOT
ATOM      1  N9  I17 d   1      13.986  -9.646  14.344  0.00  0.00    -0.319 N 
ATOM      2  C4  I17 d   1      13.290  -9.629  13.158  0.00  0.00     0.183 A 
ATOM      3  N3  I17 d   1      13.695  -8.999  12.031  0.00  0.00    -0.042 NA
ATOM      4  C2  I17 d   1      12.880  -9.121  11.026  0.00  0.00     0.726 A 
ATOM      5  C6  I17 d   1      11.242 -10.487  12.237  0.00  0.00     0.176 A 
ATOM      6  N1  I17 d   1      11.676  -9.834  11.071  0.00  0.00    -0.043 NA
ATOM      7  C5  I17 d   1      12.136 -10.378  13.388  0.00  0.00     0.151 A 
ATOM      8  N7  I17 d   1      12.086 -10.850  14.669  0.00  0.00    -0.236 NA
ATOM      9  C8  I17 d   1      13.210 -10.404  15.243  0.00  0.00     0.069 A 
ATOM     10  H2  I17 d   1      13.490 -10.602  16.277  0.00  0.00     0.143 H 
ENDROOT
BRANCH   4  11
ATOM     11  N10 I17 d   1      13.226  -8.396   9.754  0.00  0.00    -0.218 N 
ATOM     12  H11 I17 d   1      12.628  -8.522   8.925  0.00  0.00     0.178 HD
BRANCH  11  13
ATOM     13  C11 I17 d   1      14.479  -7.450   9.659  0.00  0.00     0.026 C 
ATOM     14  C16 I17 d   1      14.246  -6.301  10.588  0.00  0.00    -0.044 C 
ATOM     15  C15 I17 d   1      15.124  -5.089  10.275  0.00  0.00    -0.037 C 
ATOM     16  H16 I17 d   1      14.460  -6.632  11.615  0.00  0.00     0.036 H 
ATOM     17  H17 I17 d   1      13.191  -5.998  10.512  0.00  0.00     0.036 H 
ATOM     18  C14 I17 d   1      14.943  -4.626   8.849  0.00  0.00     0.100 C 
ATOM     19  H14 I17 d   1      14.854  -4.267  10.954  0.00  0.00     0.036 H 
ATOM     20  H15 I17 d   1      16.178  -5.362  10.431  0.00  0.00     0.036 H 
ATOM     21  C13 I17 d   1      15.353  -5.749   7.938  0.00  0.00    -0.037 C 
ATOM     22  H13 I17 d   1      13.890  -4.363   8.672  0.00  0.00     0.083 H 
ATOM     23  C12 I17 d   1      14.538  -7.042   8.096  0.00  0.00    -0.044 C 
ATOM     24  H20 I17 d   1      16.409  -5.984   8.139  0.00  0.00     0.036 H 
ATOM     25  H21 I17 d   1      15.246  -5.403   6.899  0.00  0.00     0.036 H 
ATOM     26  H18 I17 d   1      13.517  -6.881   7.720  0.00  0.00     0.036 H 
ATOM     27  H19 I17 d   1      15.017  -7.850   7.523  0.00  0.00     0.036 H 
ATOM     28  H12 I17 d   1      15.403  -7.973   9.948  0.00  0.00     0.073 H 
BRANCH  18  29
ATOM     29  N17 I17 d   1      15.821  -3.418   8.584  0.00  0.00    -0.075 N 
ATOM     30  H22 I17 d   1      15.548  -2.664   9.194  0.00  0.00     0.274 HD
ATOM     31  H23 I17 d   1      15.714  -3.129   7.624  0.00  0.00     0.274 HD
ATOM     32  H24 I17 d   1      16.784  -3.658   8.758  0.00  0.00     0.274 HD
ENDBRANCH  18  29
ENDBRANCH  11  13
ENDBRANCH   4  11
BRANCH   5  33
ATOM     33  N18 I17 d   1      10.001 -11.198  12.260  0.00  0.00    -0.368 N 
ATOM     34  H3  I17 d   1       9.684 -11.690  13.108  0.00  0.00     0.161 HD
BRANCH  33  35
ATOM     35  C19 I17 d   1       9.199 -11.203  11.040  0.00  0.00     0.018 C 
ATOM     36  H4  I17 d   1       9.759 -10.596  10.313  0.00  0.00     0.071 H 
ATOM     37  H5  I17 d   1       8.260 -10.692  11.299  0.00  0.00     0.071 H 
BRANCH  35  38
ATOM     38  C20 I17 d   1       8.833 -12.330  10.374  0.00  0.00    -0.041 A 
ATOM     39  C25 I17 d   1       7.877 -13.141  10.973  0.00  0.00    -0.075 A 
ATOM     40  C24 I17 d   1       7.460 -14.322  10.333  0.00  0.00    -0.082 A 
ATOM     41  H6  I17 d   1       7.453 -12.864  11.932  0.00  0.00     0.084 H 
ATOM     42  C23 I17 d   1       7.994 -14.688   9.109  0.00  0.00    -0.083 A 
ATOM     43  H7  I17 d   1       6.713 -14.952  10.803  0.00  0.00     0.083 H 
ATOM     44  C22 I17 d   1       8.961 -13.868   8.503  0.00  0.00    -0.082 A 
ATOM     45  H8  I17 d   1       7.669 -15.600   8.622  0.00  0.00     0.083 H 
ATOM     46  C21 I17 d   1       9.379 -12.673   9.151  0.00  0.00    -0.075 A 
ATOM     47  H9  I17 d   1       9.387 -14.145   7.545  0.00  0.00     0.083 H 
ATOM     48  H10 I17 d   1      10.122 -12.034   8.688  0.00  0.00     0.084 H 
ENDBRANCH  35  38
ENDBRANCH  33  35
ENDBRANCH   5  33
BRANCH   1  49
ATOM     49  C26 I17 d   1      15.292  -8.972  14.573  0.00  0.00     0.019 C 
ATOM     50  C30 I17 d   1      16.592  -8.984  13.829  0.00  0.00    -0.046 C 
ATOM     51  C29 I17 d   1      17.064  -7.607  13.780  0.00  0.00    -0.063 C 
ATOM     52  H25 I17 d   1      16.441  -9.369  12.810  0.00  0.00     0.036 H 
ATOM     53  H26 I17 d   1      17.323  -9.616  14.355  0.00  0.00     0.036 H 
ATOM     54  C28 I17 d   1      16.504  -6.993  14.945  0.00  0.00    -0.063 C 
ATOM     55  H27 I17 d   1      16.708  -7.106  12.868  0.00  0.00     0.033 H 
ATOM     56  H28 I17 d   1      18.163  -7.572  13.812  0.00  0.00     0.033 H 
ATOM     57  C27 I17 d   1      15.100  -7.471  14.851  0.00  0.00    -0.046 C 
ATOM     58  H31 I17 d   1      16.564  -5.896  14.895  0.00  0.00     0.033 H 
ATOM     59  H32 I17 d   1      16.993  -7.346  15.865  0.00  0.00     0.033 H 
ATOM     60  H29 I17 d   1      14.557  -7.305  15.793  0.00  0.00     0.036 H 
ATOM     61  H30 I17 d   1      14.564  -6.977  14.027  0.00  0.00     0.036 H 
ATOM     62  H1  I17 d   1      15.579  -9.428  15.532  0.00  0.00     0.073 H 
ENDBRANCH   1  49
TORSDOF 7
