REMARK WARNING: 32 MAX_TORS EXCEEDED!!!
REMARK  38 active torsions:
REMARK  status: ('A' for Active; 'I' for Inactive)
REMARK    1  A    between atoms: CA_2  and  N_1 
REMARK    2  A    between atoms: CA_2  and  CB_5 
REMARK    3  A    between atoms: C_3  and  CA_2 
REMARK       I    between atoms: N_7  and  C_3 
REMARK    4  A    between atoms: CB_5  and  OG_6 
REMARK    5  A    between atoms: CA_8  and  N_7 
REMARK    6  A    between atoms: CA_8  and  CB_11 
REMARK    7  A    between atoms: C_9  and  CA_8 
REMARK       I    between atoms: N_15  and  C_9 
REMARK    8  A    between atoms: CB_11  and  CG_12 
REMARK    9  A    between atoms: CG_12  and  CD1_13 
REMARK   10  A    between atoms: CG_12  and  CD2_14 
REMARK   11  A    between atoms: CA_16  and  N_15 
REMARK   12  A    between atoms: CA_16  and  CB_19 
REMARK   13  A    between atoms: C_17  and  CA_16 
REMARK       I    between atoms: C_17  and  N_24 
REMARK   14  A    between atoms: CB_19  and  CG_20 
REMARK   15  A    between atoms: CG_20  and  CD_21 
REMARK   16  A    between atoms: N_24  and  CA_25 
REMARK   17  A    between atoms: CA_25  and  CB_28 
REMARK   18  A    between atoms: CA_25  and  C_26 
REMARK       I    between atoms: N_31  and  C_26 
REMARK   19  A    between atoms: CB_28  and  CG2_30 
REMARK   20  A    between atoms: CB_28  and  CG1_29 
REMARK   21  A    between atoms: N_31  and  CA_32 
REMARK   22  A    between atoms: CA_32  and  CB_33 
REMARK   23  A    between atoms: CA_32  and  C_40 
REMARK   24  A    between atoms: CB_33  and  CG2_34 
REMARK   25  A    between atoms: CB_33  and  OG1_35 
REMARK   26  A    between atoms: OG1_35  and  P_36 
REMARK   27  A    between atoms: CA_43  and  N_42 
REMARK   28  A    between atoms: CA_43  and  CB_46 
REMARK   29  A    between atoms: C_44  and  CA_43 
REMARK       I    between atoms: N_51  and  C_44 
REMARK   30  A    between atoms: CB_46  and  CG_47 
REMARK   31  A    between atoms: CG_47  and  CD_48 
REMARK   32  A    between atoms: CA_52  and  N_51 
REMARK   33  A    between atoms: CA_52  and  CB_55 
REMARK   34  A    between atoms: C_53  and  CA_52 
REMARK       I    between atoms: C_53  and  N_56 
REMARK   35  A    between atoms: N_56  and  CA_57 
REMARK   36  A    between atoms: CA_57  and  CB_60 
REMARK   37  A    between atoms: CA_57  and  C_58 
REMARK   38  A    between atoms: CB_60  and  CG_61 
ROOT
ATOM      1  CA  SER d   1       0.907  24.909  -0.986  0.00  0.00     0.092 C 
ATOM      2  H26 SER d   1       1.827  24.306  -1.000  0.00  0.00     0.088 H 
ENDROOT
BRANCH   1   3
ATOM      3  N   SER d   1      -0.199  24.088  -1.521  0.00  0.00    -0.346 N 
ATOM      4  C   SER d   1      -0.663  23.054  -0.849  0.00  0.00     0.241 C 
ATOM      5  O   SER d   1      -0.145  22.621   0.185  0.00  0.00    -0.271 OA
ATOM      6  H25 SER d   1      -0.601  24.321  -2.406  0.00  0.00     0.163 HD
BRANCH   4   7
ATOM      7  CA  SER d   1      -1.909  22.381  -1.431  0.00  0.00     0.090 C 
ATOM      8  H20 SER d   1      -1.805  22.345  -2.526  0.00  0.00     0.087 H 
BRANCH   7   9
ATOM      9  N   SER d   1      -2.057  21.015  -0.942  0.00  0.00    -0.346 N 
ATOM     10  C   SER d   1      -1.152  20.089  -1.245  0.00  0.00     0.241 C 
ATOM     11  O   SER d   1      -0.140  20.361  -1.903  0.00  0.00    -0.271 OA
ATOM     12  H19 SER d   1      -2.844  20.773  -0.375  0.00  0.00     0.163 HD
BRANCH  10  13
ATOM     13  CA  SER d   1      -1.396  18.652  -0.768  0.00  0.00     0.089 C 
ATOM     14  H9  SER d   1      -0.800  18.513   0.146  0.00  0.00     0.087 H 
BRANCH  13  15
ATOM     15  N   SER d   1      -2.797  18.313  -0.433  0.00  0.00    -0.346 N 
ATOM     16  C   SER d   1      -3.165  18.153   0.835  0.00  0.00     0.251 C 
ATOM     17  O   SER d   1      -2.472  18.496   1.783  0.00  0.00    -0.271 OA
ATOM     18  H8  SER d   1      -3.471  18.204  -1.164  0.00  0.00     0.163 HD
BRANCH  16  19
ATOM     19  CA  SER d   1      -4.561  17.559   1.086  0.00  0.00     0.195 C 
ATOM     20  H4  SER d   1      -4.636  16.653   0.467  0.00  0.00     0.102 H 
BRANCH  19  21
ATOM     21  N   SER d   1      -4.692  17.133   2.516  0.00  0.00    -0.064 N 
ATOM     22  H1  SER d   1      -5.610  16.746   2.668  0.00  0.00     0.275 HD
ATOM     23  H2  SER d   1      -4.560  17.931   3.118  0.00  0.00     0.275 HD
ATOM     24  H3  SER d   1      -3.994  16.436   2.724  0.00  0.00     0.275 HD
ENDBRANCH  19  21
BRANCH  19  25
ATOM     25  CB  SER d   1      -5.729  18.479   0.661  0.00  0.00     0.051 C 
ATOM     26  H5  SER d   1      -6.640  17.872   0.554  0.00  0.00     0.077 H 
ATOM     27  H6  SER d   1      -5.483  18.945  -0.305  0.00  0.00     0.077 H 
BRANCH  25  28
ATOM     28  OG  SER d   1      -5.967  19.499   1.615  0.00  0.00    -0.398 OA
ATOM     29  H7  SER d   1      -6.689  20.044   1.323  0.00  0.00     0.209 HD
ENDBRANCH  25  28
ENDBRANCH  19  25
ENDBRANCH  16  19
ENDBRANCH  13  15
BRANCH  13  30
ATOM     30  CB  SER d   1      -0.904  17.668  -1.815  0.00  0.00    -0.035 C 
ATOM     31  H10 SER d   1       0.151  17.899  -2.025  0.00  0.00     0.037 H 
ATOM     32  H11 SER d   1      -1.501  17.820  -2.726  0.00  0.00     0.037 H 
BRANCH  30  33
ATOM     33  CG  SER d   1      -0.993  16.182  -1.438  0.00  0.00    -0.059 C 
ATOM     34  H12 SER d   1      -2.050  15.945  -1.249  0.00  0.00     0.038 H 
BRANCH  33  35
ATOM     35  CD1 SER d   1      -0.513  15.279  -2.586  0.00  0.00    -0.073 C 
ATOM     36  H13 SER d   1      -0.591  14.225  -2.281  0.00  0.00     0.028 H 
ATOM     37  H14 SER d   1       0.534  15.515  -2.825  0.00  0.00     0.028 H 
ATOM     38  H15 SER d   1      -1.139  15.451  -3.474  0.00  0.00     0.028 H 
ENDBRANCH  33  35
BRANCH  33  39
ATOM     39  CD2 SER d   1      -0.226  15.920  -0.166  0.00  0.00    -0.073 C 
ATOM     40  H16 SER d   1      -0.597  16.583   0.629  0.00  0.00     0.028 H 
ATOM     41  H17 SER d   1       0.843  16.114  -0.336  0.00  0.00     0.028 H 
ATOM     42  H18 SER d   1      -0.365  14.872   0.137  0.00  0.00     0.028 H 
ENDBRANCH  33  39
ENDBRANCH  30  33
ENDBRANCH  13  30
ENDBRANCH  10  13
ENDBRANCH   7   9
BRANCH   7  43
ATOM     43  CB  SER d   1      -3.166  23.227  -1.079  0.00  0.00    -0.029 C 
ATOM     44  H21 SER d   1      -4.051  22.715  -1.485  0.00  0.00     0.037 H 
ATOM     45  H22 SER d   1      -3.062  24.213  -1.556  0.00  0.00     0.037 H 
BRANCH  43  46
ATOM     46  CG  SER d   1      -3.381  23.440   0.416  0.00  0.00     0.018 C 
ATOM     47  H23 SER d   1      -3.863  24.418   0.562  0.00  0.00     0.049 H 
ATOM     48  H24 SER d   1      -2.400  23.437   0.913  0.00  0.00     0.049 H 
BRANCH  46  49
ATOM     49  CD  SER d   1      -4.247  22.378   1.060  0.00  0.00     0.172 C 
ATOM     50  OE2 SER d   1      -4.923  22.696   2.071  0.00  0.00    -0.648 OA
ATOM     51  OE1 SER d   1      -4.368  21.249   0.535  0.00  0.00    -0.648 OA
ENDBRANCH  46  49
ENDBRANCH  43  46
ENDBRANCH   7  43
ENDBRANCH   4   7
ENDBRANCH   1   3
BRANCH   1  52
ATOM     52  CB  SER d   1       1.115  26.150  -1.848  0.00  0.00    -0.033 C 
ATOM     53  H27 SER d   1       0.176  26.721  -1.891  0.00  0.00     0.042 H 
BRANCH  52  54
ATOM     54  CG2 SER d   1       1.498  25.716  -3.250  0.00  0.00    -0.071 C 
ATOM     55  H31 SER d   1       0.704  25.078  -3.666  0.00  0.00     0.028 H 
ATOM     56  H32 SER d   1       2.441  25.151  -3.214  0.00  0.00     0.028 H 
ATOM     57  H33 SER d   1       1.626  26.604  -3.887  0.00  0.00     0.028 H 
ENDBRANCH  52  54
BRANCH  52  58
ATOM     58  CG1 SER d   1       2.212  27.043  -1.249  0.00  0.00    -0.071 C 
ATOM     59  H28 SER d   1       2.348  27.932  -1.883  0.00  0.00     0.028 H 
ATOM     60  H29 SER d   1       3.156  26.480  -1.199  0.00  0.00     0.028 H 
ATOM     61  H30 SER d   1       1.917  27.356  -0.237  0.00  0.00     0.028 H 
ENDBRANCH  52  58
ENDBRANCH   1  52
BRANCH   1  62
ATOM     62  C   SER d   1       0.633  25.345   0.438  0.00  0.00     0.241 C 
ATOM     63  O   SER d   1      -0.544  25.614   0.795  0.00  0.00    -0.271 OA
ATOM     64  N   TPO d   2       1.570  25.226   1.374  0.00  0.00    -0.345 N 
ATOM     65  H34 TPO d   2       2.453  24.853   1.089  0.00  0.00     0.163 HD
BRANCH  64  66
ATOM     66  CA  TPO d   2       1.425  25.590   2.774  0.00  0.00     0.102 C 
ATOM     67  H35 TPO d   2       0.682  24.948   3.270  0.00  0.00     0.089 H 
BRANCH  66  68
ATOM     68  CB  TPO d   2       2.831  25.369   3.353  0.00  0.00     0.075 C 
ATOM     69  H36 TPO d   2       3.541  26.096   2.931  0.00  0.00     0.087 H 
BRANCH  68  70
ATOM     70  CG2 TPO d   2       2.787  25.469   4.866  0.00  0.00    -0.049 C 
ATOM     71  H37 TPO d   2       3.796  25.310   5.274  0.00  0.00     0.031 H 
ATOM     72  H38 TPO d   2       2.106  24.703   5.264  0.00  0.00     0.031 H 
ATOM     73  H39 TPO d   2       2.427  26.467   5.157  0.00  0.00     0.031 H 
ENDBRANCH  68  70
BRANCH  68  74
ATOM     74  OG1 TPO d   2       3.221  24.042   3.065  0.00  0.00    -0.275 OA
BRANCH  74  75
ATOM     75  P   TPO d   2       4.526  23.814   2.125  0.00  0.00     0.422 P 
ATOM     76  O1P TPO d   2       5.757  24.376   2.939  0.00  0.00    -0.617 OA
ATOM     77  O2P TPO d   2       4.301  24.635   0.771  0.00  0.00    -0.617 OA
ATOM     78  O3P TPO d   2       4.637  22.222   1.909  0.00  0.00    -0.617 OA
ENDBRANCH  74  75
ENDBRANCH  68  74
ENDBRANCH  66  68
BRANCH  66  79
ATOM     79  C   TPO d   2       1.030  27.063   2.942  0.00  0.00     0.177 C 
ATOM     80  O   TPO d   2       1.551  28.015   2.175  0.00  0.00    -0.175 OA
ATOM     81  N   GLU d   3       0.122  27.228   3.912  0.00  0.00    -0.357 N 
ATOM     82  H40 GLU d   3      -0.314  26.414   4.296  0.00  0.00     0.162 HD
BRANCH  81  83
ATOM     83  CA  GLU d   3      -0.272  28.560   4.449  0.00  0.00     0.089 C 
ATOM     84  H41 GLU d   3      -0.491  29.241   3.613  0.00  0.00     0.087 H 
BRANCH  83  85
ATOM     85  CB  GLU d   3      -1.535  28.411   5.312  0.00  0.00    -0.029 C 
ATOM     86  H42 GLU d   3      -1.312  27.700   6.121  0.00  0.00     0.037 H 
ATOM     87  H43 GLU d   3      -2.335  28.004   4.676  0.00  0.00     0.037 H 
BRANCH  85  88
ATOM     88  CG  GLU d   3      -2.044  29.697   5.943  0.00  0.00     0.018 C 
ATOM     89  H44 GLU d   3      -2.444  30.346   5.150  0.00  0.00     0.049 H 
ATOM     90  H45 GLU d   3      -1.204  30.203   6.442  0.00  0.00     0.049 H 
BRANCH  88  91
ATOM     91  CD  GLU d   3      -3.142  29.443   6.969  0.00  0.00     0.172 C 
ATOM     92  OE2 GLU d   3      -3.377  30.318   7.828  0.00  0.00    -0.648 OA
ATOM     93  OE1 GLU d   3      -3.745  28.368   6.935  0.00  0.00    -0.648 OA
ENDBRANCH  88  91
ENDBRANCH  85  88
ENDBRANCH  83  85
BRANCH  83  94
ATOM     94  C   GLU d   3       0.887  29.123   5.255  0.00  0.00     0.241 C 
ATOM     95  O   GLU d   3       1.261  28.552   6.277  0.00  0.00    -0.271 OA
ATOM     96  N   GLU d   3       1.456  30.220   4.767  0.00  0.00    -0.346 N 
ATOM     97  H46 GLU d   3       1.076  30.631   3.938  0.00  0.00     0.163 HD
BRANCH  96  98
ATOM     98  CA  GLU d   3       2.618  30.851   5.396  0.00  0.00     0.086 C 
ATOM     99  H47 GLU d   3       3.162  30.051   5.920  0.00  0.00     0.086 H 
BRANCH  98 100
ATOM    100  CB  GLU d   3       3.555  31.431   4.348  0.00  0.00    -0.049 C 
ATOM    101  H48 GLU d   3       4.418  31.898   4.846  0.00  0.00     0.030 H 
ATOM    102  H49 GLU d   3       3.019  32.188   3.756  0.00  0.00     0.030 H 
ATOM    103  H50 GLU d   3       3.906  30.627   3.684  0.00  0.00     0.030 H 
ENDBRANCH  98 100
BRANCH  98 104
ATOM    104  C   GLU d   3       2.292  31.908   6.433  0.00  0.00     0.240 C 
ATOM    105  O   GLU d   3       1.555  32.870   6.168  0.00  0.00    -0.271 OA
ATOM    106  N   GLU d   3       2.895  31.762   7.603  0.00  0.00    -0.344 N 
ATOM    107  H51 GLU d   3       3.470  30.960   7.766  0.00  0.00     0.163 HD
BRANCH 106 108
ATOM    108  CA  GLU d   3       2.732  32.755   8.656  0.00  0.00     0.105 C 
ATOM    109  H52 GLU d   3       1.658  32.873   8.860  0.00  0.00     0.090 H 
BRANCH 108 110
ATOM    110  CB  GLU d   3       3.425  32.289   9.935  0.00  0.00     0.044 C 
ATOM    111  H53 GLU d   3       3.465  33.132  10.640  0.00  0.00     0.053 H 
ATOM    112  H54 GLU d   3       4.448  31.971   9.685  0.00  0.00     0.053 H 
BRANCH 110 113
ATOM    113  CG  GLU d   3       2.714  31.141  10.598  0.00  0.00     0.175 C 
ATOM    114  OD1 GLU d   3       1.511  30.894  10.328  0.00  0.00    -0.648 OA
ATOM    115  OD2 GLU d   3       3.325  30.410  11.400  0.00  0.00    -0.648 OA
ENDBRANCH 110 113
ENDBRANCH 108 110
BRANCH 108 116
ATOM    116  C   GLU d   3       3.296  34.108   8.224  0.00  0.00     0.197 C 
ATOM    117  O   GLU d   3       2.748  35.156   8.623  0.00  0.00    -0.646 OA
ATOM    118  O1  GLU d   3       4.361  34.168   7.430  0.00  0.00    -0.646 OA
ENDBRANCH 108 116
ENDBRANCH 106 108
ENDBRANCH  98 104
ENDBRANCH  96  98
ENDBRANCH  83  94
ENDBRANCH  81  83
ENDBRANCH  66  79
ENDBRANCH  64  66
ENDBRANCH   1  62
TORSDOF 38
