REMARK WARNING: 32 MAX_TORS EXCEEDED!!!
REMARK  39 active torsions:
REMARK  status: ('A' for Active; 'I' for Inactive)
REMARK    1  A    between atoms: N_1  and  CA_2 
REMARK    2  A    between atoms: CA_2  and  C_3 
REMARK    3  A    between atoms: CA_2  and  CB_5 
REMARK       I    between atoms: C_3  and  N_7 
REMARK    4  A    between atoms: CB_5  and  OG_6 
REMARK    5  A    between atoms: N_7  and  CA_8 
REMARK    6  A    between atoms: CA_8  and  C_9 
REMARK    7  A    between atoms: CA_8  and  CB_11 
REMARK       I    between atoms: C_9  and  N_15 
REMARK    8  A    between atoms: CB_11  and  CG1_12 
REMARK    9  A    between atoms: CB_11  and  CG2_13 
REMARK   10  A    between atoms: CG1_12  and  CD1_14 
REMARK   11  A    between atoms: N_15  and  CA_16 
REMARK   12  A    between atoms: CA_16  and  C_17 
REMARK   13  A    between atoms: CA_16  and  CB_19 
REMARK       I    between atoms: C_17  and  N_27 
REMARK   14  A    between atoms: CB_19  and  CG_20 
REMARK   15  A    between atoms: CZ_25  and  OH_26 
REMARK   16  A    between atoms: N_27  and  CA_28 
REMARK   17  A    between atoms: CA_28  and  C_29 
REMARK   18  A    between atoms: CA_28  and  CB_31 
REMARK       I    between atoms: C_29  and  N_38 
REMARK   19  A    between atoms: CB_31  and  CG_32 
REMARK   20  A    between atoms: CG_32  and  CD_33 
REMARK   21  A    between atoms: CD_33  and  NE_34 
REMARK       I    between atoms: NE_34  and  CZ_35 
REMARK       I    between atoms: CZ_35  and  NH1_36 
REMARK   22  A    between atoms: N_38  and  CA_39 
REMARK   23  A    between atoms: CA_39  and  C_40 
REMARK   24  A    between atoms: CA_39  and  CB_42 
REMARK       I    between atoms: C_40  and  N_50 
REMARK   25  A    between atoms: CB_42  and  CG_43 
REMARK   26  A    between atoms: CZ_48  and  OH_49 
REMARK   27  A    between atoms: N_50  and  CA_51 
REMARK   28  A    between atoms: CA_51  and  C_52 
REMARK   29  A    between atoms: CA_51  and  CB_54 
REMARK       I    between atoms: C_52  and  N_62 
REMARK   30  A    between atoms: CB_54  and  CG_55 
REMARK   31  A    between atoms: CZ_60  and  OH_61 
REMARK   32  A    between atoms: N_62  and  CA_63 
REMARK   33  A    between atoms: CA_63  and  C_64 
REMARK       I    between atoms: C_64  and  N_66 
REMARK   34  A    between atoms: N_66  and  CA_67 
REMARK   35  A    between atoms: CA_67  and  C_68 
REMARK   36  A    between atoms: CA_67  and  CB_70 
REMARK   37  A    between atoms: CB_70  and  CG_71 
REMARK   38  A    between atoms: CG_71  and  CD1_72 
REMARK   39  A    between atoms: CG_71  and  CD2_73 
ROOT
ATOM      1  CA  ARG d   1      94.077  30.907  25.072  0.00  0.00     0.089 C 
ATOM      2  H29 ARG d   1      93.731  30.480  24.119  0.00  0.00     0.087 H 
ENDROOT
BRANCH   1   3
ATOM      3  N   ARG d   1      95.471  30.528  25.253  0.00  0.00    -0.346 N 
ATOM      4  C   TYR d   1      95.960  29.411  24.702  0.00  0.00     0.241 C 
ATOM      5  O   TYR d   1      95.254  28.609  24.110  0.00  0.00    -0.271 OA
ATOM      6  H28 ARG d   1      96.073  31.112  25.798  0.00  0.00     0.163 HD
BRANCH   4   7
ATOM      7  CA  TYR d   1      97.458  29.127  24.852  0.00  0.00     0.093 C 
ATOM      8  H20 TYR d   1      97.641  28.698  25.848  0.00  0.00     0.088 H 
BRANCH   7   9
ATOM      9  N   TYR d   1      97.915  28.187  23.822  0.00  0.00    -0.346 N 
ATOM     10  C   ILE d   1      97.455  26.942  23.719  0.00  0.00     0.241 C 
ATOM     11  O   ILE d   1      96.639  26.470  24.485  0.00  0.00    -0.271 OA
ATOM     12  H19 TYR d   1      98.604  28.496  23.167  0.00  0.00     0.163 HD
BRANCH  10  13
ATOM     13  CA  ILE d   1      98.005  26.061  22.627  0.00  0.00     0.092 C 
ATOM     14  H9  ILE d   1      99.105  26.083  22.653  0.00  0.00     0.088 H 
BRANCH  13  15
ATOM     15  N   ILE d   1      97.530  24.724  22.911  0.00  0.00    -0.346 N 
ATOM     16  C   SER d   1      98.234  23.880  23.641  0.00  0.00     0.251 C 
ATOM     17  O   SER d   1      99.316  24.163  24.136  0.00  0.00    -0.271 OA
ATOM     18  H8  ILE d   1      96.646  24.433  22.545  0.00  0.00     0.163 HD
BRANCH  16  19
ATOM     19  CA  SER d   1      97.636  22.511  23.842  0.00  0.00     0.195 C 
ATOM     20  H4  SER d   1      96.884  22.324  23.062  0.00  0.00     0.102 H 
BRANCH  19  21
ATOM     21  N   SER d   1      98.714  21.466  23.743  0.00  0.00    -0.064 N 
ATOM     22  H1  SER d   1      98.310  20.552  23.878  0.00  0.00     0.275 HD
ATOM     23  H2  SER d   1      99.410  21.633  24.452  0.00  0.00     0.275 HD
ATOM     24  H3  SER d   1      99.144  21.512  22.832  0.00  0.00     0.275 HD
ENDBRANCH  19  21
BRANCH  19  25
ATOM     25  CB  SER d   1      96.961  22.465  25.209  0.00  0.00     0.051 C 
ATOM     26  H5  SER d   1      96.276  23.321  25.301  0.00  0.00     0.077 H 
ATOM     27  H6  SER d   1      97.730  22.525  25.993  0.00  0.00     0.077 H 
BRANCH  25  28
ATOM     28  OG  SER d   1      96.229  21.267  25.370  0.00  0.00    -0.398 OA
ATOM     29  H7  SER d   1      95.561  21.213  24.697  0.00  0.00     0.209 HD
ENDBRANCH  25  28
ENDBRANCH  19  25
ENDBRANCH  16  19
ENDBRANCH  13  15
BRANCH  13  30
ATOM     30  CB  ILE d   1      97.528  26.512  21.222  0.00  0.00    -0.030 C 
ATOM     31  H10 ILE d   1      98.143  25.998  20.469  0.00  0.00     0.043 H 
BRANCH  30  32
ATOM     32  CG1 ILE d   1      97.704  28.020  21.031  0.00  0.00    -0.063 C 
ATOM     33  H11 ILE d   1      98.758  28.280  21.208  0.00  0.00     0.033 H 
ATOM     34  H12 ILE d   1      97.069  28.547  21.759  0.00  0.00     0.033 H 
BRANCH  32  35
ATOM     35  CD1 ILE d   1      97.315  28.468  19.622  0.00  0.00    -0.076 C 
ATOM     36  H16 ILE d   1      97.457  29.555  19.531  0.00  0.00     0.027 H 
ATOM     37  H17 ILE d   1      96.260  28.219  19.436  0.00  0.00     0.027 H 
ATOM     38  H18 ILE d   1      97.948  27.952  18.885  0.00  0.00     0.027 H 
ENDBRANCH  32  35
ENDBRANCH  30  32
BRANCH  30  39
ATOM     39  CG2 ILE d   1      96.081  26.114  21.008  0.00  0.00    -0.071 C 
ATOM     40  H13 ILE d   1      95.975  25.028  21.149  0.00  0.00     0.028 H 
ATOM     41  H14 ILE d   1      95.774  26.383  19.986  0.00  0.00     0.028 H 
ATOM     42  H15 ILE d   1      95.444  26.642  21.733  0.00  0.00     0.028 H 
ENDBRANCH  30  39
ENDBRANCH  13  30
ENDBRANCH  10  13
ENDBRANCH   7   9
BRANCH   7  43
ATOM     43  CB  TYR d   1      98.267  30.418  24.694  0.00  0.00    -0.014 C 
ATOM     44  H21 TYR d   1      98.064  30.814  23.688  0.00  0.00     0.043 H 
ATOM     45  H22 TYR d   1      99.332  30.153  24.776  0.00  0.00     0.043 H 
BRANCH  43  46
ATOM     46  CG  TYR d   1      97.996  31.537  25.690  0.00  0.00    -0.056 A 
ATOM     47  CD1 TYR d   1      98.005  31.306  27.075  0.00  0.00    -0.074 A 
ATOM     48  CE1 TYR d   1      97.922  32.369  27.993  0.00  0.00    -0.051 A 
ATOM     49  H23 TYR d   1      98.077  30.289  27.444  0.00  0.00     0.084 H 
ATOM     50  CZ  TYR d   1      97.831  33.673  27.527  0.00  0.00     0.065 A 
ATOM     51  H25 TYR d   1      97.929  32.170  29.059  0.00  0.00     0.087 H 
ATOM     52  CE2 TYR d   1      97.800  33.931  26.172  0.00  0.00    -0.051 A 
ATOM     53  CD2 TYR d   1      97.878  32.861  25.254  0.00  0.00    -0.074 A 
ATOM     54  H26 TYR d   1      97.716  34.951  25.814  0.00  0.00     0.087 H 
ATOM     55  H24 TYR d   1      97.846  33.069  24.191  0.00  0.00     0.084 H 
BRANCH  50  56
ATOM     56  OH  TYR d   1      97.852  34.714  28.419  0.00  0.00    -0.361 OA
ATOM     57  H27 TYR d   1      98.625  35.245  28.266  0.00  0.00     0.217 HD
ENDBRANCH  50  56
ENDBRANCH  43  46
ENDBRANCH   7  43
ENDBRANCH   4   7
ENDBRANCH   1   3
BRANCH   1  58
ATOM     58  C   ARG d   1      93.950  32.420  24.996  0.00  0.00     0.241 C 
ATOM     59  O   ARG d   1      93.235  33.037  25.747  0.00  0.00    -0.271 OA
ATOM     60  N   TYR d   1      94.639  32.999  24.037  0.00  0.00    -0.346 N 
ATOM     61  H41 TYR d   1      95.167  32.407  23.429  0.00  0.00     0.163 HD
BRANCH  60  62
ATOM     62  CA  TYR d   1      94.695  34.431  23.789  0.00  0.00     0.093 C 
ATOM     63  H42 TYR d   1      95.615  34.784  24.277  0.00  0.00     0.088 H 
BRANCH  62  64
ATOM     64  C   TYR d   1      93.587  35.322  24.337  0.00  0.00     0.241 C 
ATOM     65  O   TYR d   1      92.441  34.911  24.491  0.00  0.00    -0.271 OA
ATOM     66  N   TYR d   1      93.965  36.558  24.641  0.00  0.00    -0.346 N 
ATOM     67  H50 TYR d   1      94.921  36.807  24.485  0.00  0.00     0.163 HD
BRANCH  66  68
ATOM     68  CA  TYR d   1      93.075  37.575  25.187  0.00  0.00     0.093 C 
ATOM     69  H51 TYR d   1      92.059  37.174  25.317  0.00  0.00     0.088 H 
BRANCH  68  70
ATOM     70  C   TYR d   1      93.070  38.704  24.180  0.00  0.00     0.241 C 
ATOM     71  O   TYR d   1      94.079  38.930  23.525  0.00  0.00    -0.271 OA
ATOM     72  N   GLY d   1      91.949  39.404  24.069  0.00  0.00    -0.351 N 
ATOM     73  H59 GLY d   1      91.175  39.172  24.659  0.00  0.00     0.163 HD
BRANCH  72  74
ATOM     74  CA  GLY d   1      91.804  40.499  23.119  0.00  0.00     0.069 C 
ATOM     75  H60 GLY d   1      90.868  41.015  23.379  0.00  0.00     0.078 H 
ATOM     76  H61 GLY d   1      91.704  40.038  22.125  0.00  0.00     0.078 H 
BRANCH  74  77
ATOM     77  C   GLY d   1      92.871  41.579  22.989  0.00  0.00     0.236 C 
ATOM     78  O   GLY d   1      93.678  41.810  23.891  0.00  0.00    -0.272 OA
ATOM     79  N   LEU d   1      92.869  42.249  21.841  0.00  0.00    -0.345 N 
ATOM     80  H62 LEU d   1      92.197  42.006  21.142  0.00  0.00     0.163 HD
BRANCH  79  81
ATOM     81  CA  LEU d   1      93.815  43.329  21.565  0.00  0.00     0.096 C 
ATOM     82  H63 LEU d   1      94.783  43.074  22.021  0.00  0.00     0.089 H 
BRANCH  81  83
ATOM     83  C   LEU d   1      93.312  44.628  22.174  0.00  0.00     0.196 C 
ATOM     84  O   LEU d   1      94.130  45.249  22.876  0.00  0.00    -0.646 OA
ATOM     85  OXT LEU d   1      92.127  44.996  21.950  0.00  0.00    -0.646 OA
ENDBRANCH  81  83
BRANCH  81  86
ATOM     86  CB  LEU d   1      94.016  43.507  20.042  0.00  0.00    -0.034 C 
ATOM     87  H64 LEU d   1      94.588  44.435  19.896  0.00  0.00     0.037 H 
ATOM     88  H65 LEU d   1      93.018  43.617  19.593  0.00  0.00     0.037 H 
BRANCH  86  89
ATOM     89  CG  LEU d   1      94.743  42.400  19.265  0.00  0.00    -0.059 C 
ATOM     90  H66 LEU d   1      94.394  41.423  19.630  0.00  0.00     0.038 H 
BRANCH  89  91
ATOM     91  CD1 LEU d   1      94.444  42.505  17.786  0.00  0.00    -0.073 C 
ATOM     92  H67 LEU d   1      94.973  41.705  17.247  0.00  0.00     0.028 H 
ATOM     93  H68 LEU d   1      94.781  43.483  17.412  0.00  0.00     0.028 H 
ATOM     94  H69 LEU d   1      93.361  42.403  17.623  0.00  0.00     0.028 H 
ENDBRANCH  89  91
BRANCH  89  95
ATOM     95  CD2 LEU d   1      96.240  42.507  19.493  0.00  0.00    -0.073 C 
ATOM     96  H70 LEU d   1      96.453  42.430  20.569  0.00  0.00     0.028 H 
ATOM     97  H71 LEU d   1      96.600  43.476  19.116  0.00  0.00     0.028 H 
ATOM     98  H72 LEU d   1      96.751  41.693  18.959  0.00  0.00     0.028 H 
ENDBRANCH  89  95
ENDBRANCH  86  89
ENDBRANCH  81  86
ENDBRANCH  79  81
ENDBRANCH  74  77
ENDBRANCH  72  74
ENDBRANCH  68  70
BRANCH  68  99
ATOM     99  CB  TYR d   1      93.622  38.052  26.546  0.00  0.00    -0.014 C 
ATOM    100  H52 TYR d   1      94.691  38.277  26.418  0.00  0.00     0.043 H 
ATOM    101  H53 TYR d   1      93.504  37.227  27.264  0.00  0.00     0.043 H 
BRANCH  99 102
ATOM    102  CG  TYR d   1      92.954  39.288  27.142  0.00  0.00    -0.056 A 
ATOM    103  CD1 TYR d   1      91.609  39.262  27.539  0.00  0.00    -0.074 A 
ATOM    104  CE1 TYR d   1      90.980  40.397  28.033  0.00  0.00    -0.051 A 
ATOM    105  H54 TYR d   1      91.049  38.337  27.459  0.00  0.00     0.084 H 
ATOM    106  CZ  TYR d   1      91.693  41.575  28.144  0.00  0.00     0.065 A 
ATOM    107  H56 TYR d   1      89.938  40.359  28.329  0.00  0.00     0.087 H 
ATOM    108  CE2 TYR d   1      93.037  41.635  27.772  0.00  0.00    -0.051 A 
ATOM    109  CD2 TYR d   1      93.658  40.493  27.273  0.00  0.00    -0.074 A 
ATOM    110  H57 TYR d   1      93.592  42.561  27.871  0.00  0.00     0.087 H 
ATOM    111  H55 TYR d   1      94.701  40.536  26.982  0.00  0.00     0.084 H 
BRANCH 106 112
ATOM    112  OH  TYR d   1      91.043  42.688  28.611  0.00  0.00    -0.361 OA
ATOM    113  H58 TYR d   1      91.060  43.366  27.946  0.00  0.00     0.217 HD
ENDBRANCH 106 112
ENDBRANCH  99 102
ENDBRANCH  68  99
ENDBRANCH  66  68
ENDBRANCH  62  64
BRANCH  62 114
ATOM    114  CB  TYR d   1      94.869  34.631  22.287  0.00  0.00    -0.014 C 
ATOM    115  H43 TYR d   1      95.201  35.663  22.101  0.00  0.00     0.043 H 
ATOM    116  H44 TYR d   1      93.902  34.462  21.791  0.00  0.00     0.043 H 
BRANCH 114 117
ATOM    117  CG  TYR d   1      95.901  33.666  21.703  0.00  0.00    -0.056 A 
ATOM    118  CD1 TYR d   1      95.620  32.301  21.594  0.00  0.00    -0.074 A 
ATOM    119  CE1 TYR d   1      96.561  31.410  21.111  0.00  0.00    -0.051 A 
ATOM    120  H45 TYR d   1      94.645  31.934  21.894  0.00  0.00     0.084 H 
ATOM    121  CZ  TYR d   1      97.812  31.881  20.723  0.00  0.00     0.065 A 
ATOM    122  H47 TYR d   1      96.326  30.354  21.035  0.00  0.00     0.087 H 
ATOM    123  CE2 TYR d   1      98.115  33.241  20.828  0.00  0.00    -0.051 A 
ATOM    124  CD2 TYR d   1      97.164  34.115  21.311  0.00  0.00    -0.074 A 
ATOM    125  H48 TYR d   1      99.091  33.607  20.532  0.00  0.00     0.087 H 
ATOM    126  H46 TYR d   1      97.401  35.170  21.388  0.00  0.00     0.084 H 
BRANCH 121 127
ATOM    127  OH  TYR d   1      98.752  31.012  20.190  0.00  0.00    -0.361 OA
ATOM    128  H49 TYR d   1      99.540  31.037  20.719  0.00  0.00     0.217 HD
ENDBRANCH 121 127
ENDBRANCH 114 117
ENDBRANCH  62 114
ENDBRANCH  60  62
ENDBRANCH   1  58
BRANCH   1 129
ATOM    129  CB  ARG d   1      93.183  30.373  26.180  0.00  0.00    -0.036 C 
ATOM    130  H30 ARG d   1      93.502  30.803  27.141  0.00  0.00     0.036 H 
ATOM    131  H31 ARG d   1      93.273  29.277  26.221  0.00  0.00     0.036 H 
BRANCH 129 132
ATOM    132  CG  ARG d   1      91.729  30.746  25.923  0.00  0.00    -0.048 C 
ATOM    133  H32 ARG d   1      91.421  30.318  24.957  0.00  0.00     0.035 H 
ATOM    134  H33 ARG d   1      91.649  31.842  25.880  0.00  0.00     0.035 H 
BRANCH 132 135
ATOM    135  CD  ARG d   1      90.803  30.239  26.989  0.00  0.00     0.009 C 
ATOM    136  H34 ARG d   1      90.962  29.157  27.110  0.00  0.00     0.064 H 
ATOM    137  H35 ARG d   1      89.766  30.424  26.674  0.00  0.00     0.064 H 
BRANCH 135 138
ATOM    138  NE  ARG d   1      91.027  30.894  28.275  0.00  0.00    -0.227 N 
ATOM    139  CZ  ARG d   1      90.603  30.407  29.442  0.00  0.00     0.665 C 
ATOM    140  NH1 ARG d   1      89.935  29.257  29.510  0.00  0.00    -0.235 N 
ATOM    141  NH2 ARG d   1      90.823  31.082  30.557  0.00  0.00    -0.235 N 
ATOM    142  H37 ARG d   1      89.617  28.899  30.422  0.00  0.00     0.174 HD
ATOM    143  H38 ARG d   1      89.737  28.725  28.651  0.00  0.00     0.174 HD
ATOM    144  H39 ARG d   1      91.338  31.974  30.526  0.00  0.00     0.174 HD
ATOM    145  H40 ARG d   1      90.480  30.716  31.457  0.00  0.00     0.174 HD
ATOM    146  H36 ARG d   1      91.543  31.785  28.281  0.00  0.00     0.177 HD
ENDBRANCH 135 138
ENDBRANCH 132 135
ENDBRANCH 129 132
ENDBRANCH   1 129
TORSDOF 39
