REMARK WARNING: 32 MAX_TORS EXCEEDED!!!
REMARK  40 active torsions:
REMARK  status: ('A' for Active; 'I' for Inactive)
REMARK    1  A    between atoms: N_1  and  CA_2 
REMARK    2  A    between atoms: CA_2  and  C_3 
REMARK    3  A    between atoms: CA_2  and  CB_5 
REMARK       I    between atoms: C_3  and  N_7 
REMARK    4  A    between atoms: CB_5  and  OG_6 
REMARK    5  A    between atoms: N_7  and  CA_8 
REMARK    6  A    between atoms: CA_8  and  C_9 
REMARK    7  A    between atoms: CA_8  and  CB_11 
REMARK       I    between atoms: C_9  and  N_18 
REMARK    8  A    between atoms: CB_11  and  CG_12 
REMARK    9  A    between atoms: CG_12  and  CD_13 
REMARK   10  A    between atoms: CD_13  and  NE_14 
REMARK       I    between atoms: NE_14  and  CZ_15 
REMARK       I    between atoms: CZ_15  and  NH1_16 
REMARK       I    between atoms: CZ_15  and  NH2_17 
REMARK   11  A    between atoms: N_18  and  CA_19 
REMARK   12  A    between atoms: CA_19  and  C_20 
REMARK   13  A    between atoms: CA_19  and  CB_22 
REMARK       I    between atoms: C_20  and  N_26 
REMARK   14  A    between atoms: CB_22  and  CG_23 
REMARK   15  A    between atoms: N_26  and  CA_27 
REMARK   16  A    between atoms: CA_27  and  C_28 
REMARK   17  A    between atoms: CA_27  and  CB_30 
REMARK       I    between atoms: C_28  and  N_36 
REMARK   18  A    between atoms: CB_30  and  CG_31 
REMARK   19  A    between atoms: N_36  and  CA_37 
REMARK   20  A    between atoms: CA_37  and  C_38 
REMARK   21  A    between atoms: CA_37  and  CB_40 
REMARK       I    between atoms: C_38  and  N_42 
REMARK   22  A    between atoms: CB_40  and  OG_41 
REMARK   23  A    between atoms: N_42  and  CA_43 
REMARK   24  A    between atoms: CA_43  and  C_44 
REMARK   25  A    between atoms: CA_43  and  CB_46 
REMARK       I    between atoms: C_44  and  N_53 
REMARK   26  A    between atoms: CB_46  and  CG_47 
REMARK   27  A    between atoms: CG_47  and  CD_48 
REMARK   28  A    between atoms: CD_48  and  NE_49 
REMARK       I    between atoms: NE_49  and  CZ_50 
REMARK       I    between atoms: CZ_50  and  NH1_51 
REMARK       I    between atoms: CZ_50  and  NH2_52 
REMARK   29  A    between atoms: N_53  and  CA_54 
REMARK   30  A    between atoms: CA_54  and  C_55 
REMARK   31  A    between atoms: CA_54  and  CB_57 
REMARK       I    between atoms: C_55  and  N_60 
REMARK   32  A    between atoms: CB_57  and  OG1_58 
REMARK   33  A    between atoms: CB_57  and  CG2_59 
REMARK   34  A    between atoms: CA_61  and  C_62 
REMARK       I    between atoms: C_62  and  N_67 
REMARK   35  A    between atoms: N_67  and  CA_68 
REMARK   36  A    between atoms: CA_68  and  C_69 
REMARK   37  A    between atoms: CA_68  and  CB_71 
REMARK   38  A    between atoms: CB_71  and  CG_72 
REMARK   39  A    between atoms: CG_72  and  SD_73 
REMARK   40  A    between atoms: SD_73  and  CE_74 
ROOT
ATOM      1  CA  SER d   1      41.563  64.063  -5.180  0.00  0.00     0.109 C 
ATOM      2  H33 SER d   1      40.477  64.210  -5.279  0.00  0.00     0.090 H 
ENDROOT
BRANCH   1   3
ATOM      3  N   SER d   1      41.802  63.102  -4.103  0.00  0.00    -0.344 N 
ATOM      4  C   HIS d   1      43.026  62.707  -3.756  0.00  0.00     0.241 C 
ATOM      5  O   HIS d   1      44.047  63.125  -4.302  0.00  0.00    -0.271 OA
ATOM      6  H32 SER d   1      41.017  62.728  -3.609  0.00  0.00     0.163 HD
BRANCH   4   7
ATOM      7  CA  HIS d   1      43.111  61.695  -2.616  0.00  0.00     0.094 C 
ATOM      8  H26 HIS d   1      42.410  60.874  -2.827  0.00  0.00     0.088 H 
BRANCH   7   9
ATOM      9  N   HIS d   1      44.455  61.128  -2.498  0.00  0.00    -0.346 N 
ATOM     10  C   ASP d   1      44.673  60.004  -1.820  0.00  0.00     0.241 C 
ATOM     11  O   ASP d   1      43.772  59.393  -1.243  0.00  0.00    -0.271 OA
ATOM     12  H25 HIS d   1      45.224  61.594  -2.935  0.00  0.00     0.163 HD
BRANCH  10  13
ATOM     13  CA  ASP d   1      46.112  59.481  -1.764  0.00  0.00     0.098 C 
ATOM     14  H22 ASP d   1      46.810  60.294  -1.514  0.00  0.00     0.088 H 
BRANCH  13  15
ATOM     15  N   ASP d   1      46.131  58.452  -0.732  0.00  0.00    -0.346 N 
ATOM     16  C   ARG d   1      46.208  58.742   0.562  0.00  0.00     0.241 C 
ATOM     17  O   ARG d   1      46.295  59.890   0.992  0.00  0.00    -0.271 OA
ATOM     18  H21 ASP d   1      46.084  57.492  -1.008  0.00  0.00     0.163 HD
BRANCH  16  19
ATOM     19  CA  ARG d   1      46.170  57.543   1.501  0.00  0.00     0.089 C 
ATOM     20  H9  ARG d   1      46.701  56.721   0.999  0.00  0.00     0.087 H 
BRANCH  19  21
ATOM     21  N   ARG d   1      46.803  57.729   2.801  0.00  0.00    -0.346 N 
ATOM     22  C   SER d   1      48.122  57.736   2.969  0.00  0.00     0.251 C 
ATOM     23  O   SER d   1      48.924  57.613   2.045  0.00  0.00    -0.271 OA
ATOM     24  H8  ARG d   1      46.219  57.857   3.603  0.00  0.00     0.163 HD
BRANCH  22  25
ATOM     25  CA  SER d   1      48.605  57.923   4.400  0.00  0.00     0.195 C 
ATOM     26  H4  SER d   1      47.773  57.717   5.090  0.00  0.00     0.102 H 
BRANCH  25  27
ATOM     27  N   SER d   1      49.720  56.976   4.687  0.00  0.00    -0.064 N 
ATOM     28  H1  SER d   1      50.035  57.105   5.636  0.00  0.00     0.275 HD
ATOM     29  H2  SER d   1      50.483  57.153   4.053  0.00  0.00     0.275 HD
ATOM     30  H3  SER d   1      49.396  56.029   4.567  0.00  0.00     0.275 HD
ENDBRANCH  25  27
BRANCH  25  31
ATOM     31  CB  SER d   1      49.077  59.366   4.605  0.00  0.00     0.051 C 
ATOM     32  H5  SER d   1      49.909  59.573   3.916  0.00  0.00     0.077 H 
ATOM     33  H6  SER d   1      49.422  59.487   5.643  0.00  0.00     0.077 H 
BRANCH  31  34
ATOM     34  OG  SER d   1      48.031  60.286   4.356  0.00  0.00    -0.398 OA
ATOM     35  H7  SER d   1      47.311  60.114   4.952  0.00  0.00     0.209 HD
ENDBRANCH  31  34
ENDBRANCH  25  31
ENDBRANCH  22  25
ENDBRANCH  19  21
BRANCH  19  36
ATOM     36  CB  ARG d   1      44.712  57.125   1.706  0.00  0.00    -0.036 C 
ATOM     37  H10 ARG d   1      44.148  57.376   0.796  0.00  0.00     0.036 H 
ATOM     38  H11 ARG d   1      44.305  57.690   2.557  0.00  0.00     0.036 H 
BRANCH  36  39
ATOM     39  CG  ARG d   1      44.537  55.651   1.985  0.00  0.00    -0.048 C 
ATOM     40  H12 ARG d   1      43.544  55.480   2.426  0.00  0.00     0.035 H 
ATOM     41  H13 ARG d   1      45.314  55.319   2.690  0.00  0.00     0.035 H 
BRANCH  39  42
ATOM     42  CD  ARG d   1      44.657  54.858   0.697  0.00  0.00     0.009 C 
ATOM     43  H14 ARG d   1      44.799  53.796   0.944  0.00  0.00     0.064 H 
ATOM     44  H15 ARG d   1      45.528  55.223   0.134  0.00  0.00     0.064 H 
BRANCH  42  45
ATOM     45  NE  ARG d   1      43.464  54.995  -0.135  0.00  0.00    -0.227 N 
ATOM     46  CZ  ARG d   1      43.479  55.125  -1.457  0.00  0.00     0.665 C 
ATOM     47  NH1 ARG d   1      44.632  55.145  -2.113  0.00  0.00    -0.235 N 
ATOM     48  NH2 ARG d   1      42.339  55.223  -2.126  0.00  0.00    -0.235 N 
ATOM     49  H17 ARG d   1      44.640  55.246  -3.138  0.00  0.00     0.174 HD
ATOM     50  H18 ARG d   1      45.520  55.060  -1.597  0.00  0.00     0.174 HD
ATOM     51  H19 ARG d   1      41.442  55.208  -1.620  0.00  0.00     0.174 HD
ATOM     52  H20 ARG d   1      42.350  55.314  -3.152  0.00  0.00     0.174 HD
ATOM     53  H16 ARG d   1      42.548  54.990   0.336  0.00  0.00     0.177 HD
ENDBRANCH  42  45
ENDBRANCH  39  42
ENDBRANCH  36  39
ENDBRANCH  19  36
ENDBRANCH  16  19
ENDBRANCH  13  15
BRANCH  13  54
ATOM     54  CB  ASP d   1      46.491  58.865  -3.111  0.00  0.00     0.043 C 
ATOM     55  H23 ASP d   1      45.735  58.112  -3.378  0.00  0.00     0.052 H 
ATOM     56  H24 ASP d   1      47.473  58.380  -3.012  0.00  0.00     0.052 H 
BRANCH  54  57
ATOM     57  CG  ASP d   1      46.568  59.890  -4.225  0.00  0.00     0.175 C 
ATOM     58  OD1 ASP d   1      46.468  59.484  -5.402  0.00  0.00    -0.648 OA
ATOM     59  OD2 ASP d   1      46.738  61.094  -3.931  0.00  0.00    -0.648 OA
ENDBRANCH  54  57
ENDBRANCH  13  54
ENDBRANCH  10  13
ENDBRANCH   7   9
BRANCH   7  60
ATOM     60  CB  HIS d   1      42.692  62.371  -1.304  0.00  0.00     0.002 C 
ATOM     61  H27 HIS d   1      42.820  61.648  -0.485  0.00  0.00     0.046 H 
ATOM     62  H28 HIS d   1      41.631  62.652  -1.383  0.00  0.00     0.046 H 
BRANCH  60  63
ATOM     63  CG  HIS d   1      43.482  63.600  -0.975  0.00  0.00     0.030 A 
ATOM     64  ND1 HIS d   1      44.805  63.557  -0.593  0.00  0.00    -0.353 N 
ATOM     65  CE1 HIS d   1      45.243  64.786  -0.384  0.00  0.00     0.063 A 
ATOM     66  H29 HIS d   1      45.366  62.700  -0.487  0.00  0.00     0.166 HD
ATOM     67  NE2 HIS d   1      44.250  65.626  -0.617  0.00  0.00    -0.254 NA
ATOM     68  H31 HIS d   1      46.250  65.060  -0.073  0.00  0.00     0.143 H 
ATOM     69  CD2 HIS d   1      43.138  64.910  -0.988  0.00  0.00     0.025 A 
ATOM     70  H30 HIS d   1      42.162  65.319  -1.245  0.00  0.00     0.117 H 
ENDBRANCH  60  63
ENDBRANCH   7  60
ENDBRANCH   4   7
ENDBRANCH   1   3
BRANCH   1  71
ATOM     71  C   SER d   1      42.103  63.540  -6.508  0.00  0.00     0.243 C 
ATOM     72  O   SER d   1      42.723  64.274  -7.276  0.00  0.00    -0.271 OA
ATOM     73  N   ARG d   1      41.852  62.263  -6.771  0.00  0.00    -0.346 N 
ATOM     74  H37 ARG d   1      41.334  61.727  -6.105  0.00  0.00     0.163 HD
BRANCH  73  75
ATOM     75  CA  ARG d   1      42.304  61.614  -7.996  0.00  0.00     0.089 C 
ATOM     76  H38 ARG d   1      43.330  61.944  -8.215  0.00  0.00     0.087 H 
BRANCH  75  77
ATOM     77  C   ARG d   1      41.408  61.993  -9.179  0.00  0.00     0.241 C 
ATOM     78  O   ARG d   1      40.264  62.412  -8.995  0.00  0.00    -0.271 OA
ATOM     79  N   THR d   1      41.939  61.865 -10.391  0.00  0.00    -0.344 N 
ATOM     80  H50 THR d   1      42.882  61.544 -10.481  0.00  0.00     0.163 HD
BRANCH  79  81
ATOM     81  CA  THR d   1      41.175  62.183 -11.593  0.00  0.00     0.114 C 
ATOM     82  H51 THR d   1      40.592  63.101 -11.428  0.00  0.00     0.091 H 
BRANCH  81  83
ATOM     83  C   THR d   1      40.235  61.010 -11.869  0.00  0.00     0.245 C 
ATOM     84  O   THR d   1      40.652  59.858 -11.836  0.00  0.00    -0.271 OA
ATOM     85  N   PRO d   1      38.950  61.287 -12.142  0.00  0.00    -0.337 N 
ATOM     86  CA  PRO d   1      38.010  60.194 -12.410  0.00  0.00     0.091 C 
ATOM     87  CD  PRO d   1      38.303  62.598 -12.335  0.00  0.00    -0.001 C 
ATOM     88  CB  PRO d   1      36.671  60.918 -12.530  0.00  0.00    -0.036 C 
ATOM     89  H57 PRO d   1      37.991  59.494 -11.562  0.00  0.00     0.087 H 
ATOM     90  CG  PRO d   1      37.071  62.229 -13.139  0.00  0.00    -0.048 C 
ATOM     91  H58 PRO d   1      36.206  61.062 -11.544  0.00  0.00     0.036 H 
ATOM     92  H59 PRO d   1      35.978  60.369 -13.185  0.00  0.00     0.036 H 
ATOM     93  H60 PRO d   1      36.278  62.982 -13.020  0.00  0.00     0.035 H 
ATOM     94  H61 PRO d   1      37.312  62.115 -14.206  0.00  0.00     0.035 H 
ATOM     95  H62 PRO d   1      38.954  63.286 -12.895  0.00  0.00     0.064 H 
ATOM     96  H63 PRO d   1      38.029  63.054 -11.372  0.00  0.00     0.064 H 
BRANCH  86  97
ATOM     97  C   PRO d   1      38.354  59.408 -13.674  0.00  0.00     0.241 C 
ATOM     98  O   PRO d   1      39.046  59.912 -14.556  0.00  0.00    -0.271 OA
ATOM     99  N   MET d   1      37.863  58.177 -13.755  0.00  0.00    -0.345 N 
ATOM    100  H64 MET d   1      37.313  57.822 -12.999  0.00  0.00     0.163 HD
BRANCH  99 101
ATOM    101  CA  MET d   1      38.105  57.327 -14.918  0.00  0.00     0.097 C 
ATOM    102  H65 MET d   1      39.174  57.392 -15.170  0.00  0.00     0.089 H 
BRANCH 101 103
ATOM    103  C   MET d   1      37.299  57.776 -16.135  0.00  0.00     0.196 C 
ATOM    104  O   MET d   1      37.684  57.399 -17.265  0.00  0.00    -0.646 OA
ATOM    105  OXT MET d   1      36.281  58.479 -15.951  0.00  0.00    -0.646 OA
ENDBRANCH 101 103
BRANCH 101 106
ATOM    106  CB  MET d   1      37.770  55.870 -14.595  0.00  0.00    -0.029 C 
ATOM    107  H66 MET d   1      37.697  55.315 -15.542  0.00  0.00     0.037 H 
ATOM    108  H67 MET d   1      36.799  55.846 -14.079  0.00  0.00     0.037 H 
BRANCH 106 109
ATOM    109  CG  MET d   1      38.791  55.178 -13.717  0.00  0.00    -0.021 C 
ATOM    110  H68 MET d   1      38.860  55.712 -12.758  0.00  0.00     0.049 H 
ATOM    111  H69 MET d   1      39.769  55.199 -14.219  0.00  0.00     0.049 H 
BRANCH 109 112
ATOM    112  SD  MET d   1      38.329  53.467 -13.405  0.00  0.00    -0.173 SA
BRANCH 112 113
ATOM    113  CE  MET d   1      38.516  53.384 -11.641  0.00  0.00    -0.035 C 
ATOM    114  H70 MET d   1      38.262  52.372 -11.293  0.00  0.00     0.041 H 
ATOM    115  H71 MET d   1      37.844  54.114 -11.166  0.00  0.00     0.041 H 
ATOM    116  H72 MET d   1      39.557  53.614 -11.371  0.00  0.00     0.041 H 
ENDBRANCH 112 113
ENDBRANCH 109 112
ENDBRANCH 106 109
ENDBRANCH 101 106
ENDBRANCH  99 101
ENDBRANCH  86  97
ENDBRANCH  81  83
BRANCH  81 117
ATOM    117  CB  THR d   1      42.112  62.382 -12.811  0.00  0.00     0.060 C 
ATOM    118  H52 THR d   1      42.605  61.427 -13.045  0.00  0.00     0.086 H 
BRANCH 117 119
ATOM    119  OG1 THR d   1      43.106  63.368 -12.497  0.00  0.00    -0.393 OA
ATOM    120  H53 THR d   1      43.679  63.488 -13.245  0.00  0.00     0.210 HD
ENDBRANCH 117 119
BRANCH 117 121
ATOM    121  CG2 THR d   1      41.320  62.848 -14.027  0.00  0.00    -0.050 C 
ATOM    122  H54 THR d   1      42.002  62.983 -14.879  0.00  0.00     0.031 H 
ATOM    123  H55 THR d   1      40.825  63.803 -13.798  0.00  0.00     0.031 H 
ATOM    124  H56 THR d   1      40.561  62.094 -14.281  0.00  0.00     0.031 H 
ENDBRANCH 117 121
ENDBRANCH  81 117
ENDBRANCH  79  81
ENDBRANCH  75  77
BRANCH  75 125
ATOM    125  CB  ARG d   1      42.304  60.094  -7.783  0.00  0.00    -0.036 C 
ATOM    126  H39 ARG d   1      41.263  59.775  -7.625  0.00  0.00     0.036 H 
ATOM    127  H40 ARG d   1      42.894  59.880  -6.880  0.00  0.00     0.036 H 
BRANCH 125 128
ATOM    128  CG  ARG d   1      42.878  59.267  -8.922  0.00  0.00    -0.048 C 
ATOM    129  H41 ARG d   1      43.571  58.521  -8.507  0.00  0.00     0.035 H 
ATOM    130  H42 ARG d   1      43.423  59.933  -9.607  0.00  0.00     0.035 H 
BRANCH 128 131
ATOM    131  CD  ARG d   1      41.786  58.547  -9.699  0.00  0.00     0.009 C 
ATOM    132  H43 ARG d   1      42.258  57.882 -10.437  0.00  0.00     0.064 H 
ATOM    133  H44 ARG d   1      41.171  59.296 -10.220  0.00  0.00     0.064 H 
BRANCH 131 134
ATOM    134  NE  ARG d   1      40.919  57.748  -8.835  0.00  0.00    -0.227 N 
ATOM    135  CZ  ARG d   1      39.932  56.975  -9.280  0.00  0.00     0.665 C 
ATOM    136  NH1 ARG d   1      39.190  56.283  -8.425  0.00  0.00    -0.235 N 
ATOM    137  NH2 ARG d   1      39.688  56.893 -10.581  0.00  0.00    -0.235 N 
ATOM    138  H46 ARG d   1      38.426  55.685  -8.772  0.00  0.00     0.174 HD
ATOM    139  H47 ARG d   1      39.378  56.343  -7.414  0.00  0.00     0.174 HD
ATOM    140  H48 ARG d   1      40.262  57.429 -11.247  0.00  0.00     0.174 HD
ATOM    141  H49 ARG d   1      38.924  56.293 -10.925  0.00  0.00     0.174 HD
ATOM    142  H45 ARG d   1      41.082  57.786  -7.819  0.00  0.00     0.177 HD
ENDBRANCH 131 134
ENDBRANCH 128 131
ENDBRANCH 125 128
ENDBRANCH  75 125
ENDBRANCH  73  75
ENDBRANCH   1  71
BRANCH   1 143
ATOM    143  CB  SER d   1      42.210  65.413  -4.848  0.00  0.00     0.044 C 
ATOM    144  H34 SER d   1      42.080  66.093  -5.703  0.00  0.00     0.077 H 
ATOM    145  H35 SER d   1      43.283  65.260  -4.661  0.00  0.00     0.077 H 
BRANCH 143 146
ATOM    146  OG  SER d   1      41.618  65.997  -3.697  0.00  0.00    -0.398 OA
ATOM    147  H36 SER d   1      40.691  66.135  -3.854  0.00  0.00     0.209 HD
ENDBRANCH 143 146
ENDBRANCH   1 143
TORSDOF 40
