REMARK  8 active torsions:
REMARK  status: ('A' for Active; 'I' for Inactive)
REMARK    1  A    between atoms: C1_1  and  C7_7 
REMARK    2  A    between atoms: C7_7  and  N1_10 
REMARK    3  A    between atoms: C7_7  and  N2_11 
REMARK    4  A    between atoms: C9_9  and  C8_8 
REMARK    5  A    between atoms: C8'_21  and  C9_9 
REMARK    6  A    between atoms: C1'_14  and  C7'_20 
REMARK    7  A    between atoms: C7'_20  and  N1'_22 
REMARK    8  A    between atoms: C7'_20  and  N2'_23 
ROOT
ATOM      1  C9  BAB d   1      28.588   0.538  25.495  0.00  0.00     0.045 C 
ATOM      2  H4  BAB d   1      29.650   0.549  25.781  0.00  0.00     0.056 H 
ATOM      3  H5  BAB d   1      28.181   1.558  25.558  0.00  0.00     0.056 H 
ENDROOT
BRANCH   1   4
ATOM      4  C8  BAB d   1      27.807  -0.401  26.391  0.00  0.00     0.112 A 
ATOM      5  N3  BAB d   1      27.851  -1.887  26.351  0.00  0.00    -0.342 N 
ATOM      6  C4  BAB d   1      26.904  -2.356  27.392  0.00  0.00     0.062 A 
ATOM      7  H10 BAB d   1      28.424  -2.473  25.726  0.00  0.00     0.167 HD
ATOM      8  C3  BAB d   1      26.594  -3.662  27.732  0.00  0.00    -0.054 A 
ATOM      9  C5  BAB d   1      26.329  -1.294  28.010  0.00  0.00     0.086 A 
ATOM     10  C2  BAB d   1      25.640  -3.864  28.756  0.00  0.00    -0.067 A 
ATOM     11  H2  BAB d   1      27.066  -4.500  27.231  0.00  0.00     0.087 H 
ATOM     12  C1  BAB d   1      25.041  -2.753  29.391  0.00  0.00     0.009 A 
ATOM     13  H1  BAB d   1      25.368  -4.870  29.054  0.00  0.00     0.085 H 
ATOM     14  C6  BAB d   1      25.400  -1.449  29.009  0.00  0.00    -0.039 A 
ATOM     15  H3  BAB d   1      24.954  -0.587  29.491  0.00  0.00     0.088 H 
ATOM     16  N4  BAB d   1      26.844  -0.018  27.446  0.00  0.00    -0.233 NA
BRANCH  12  17
ATOM     17  C7  BAB d   1      24.000  -2.964  30.471  0.00  0.00     0.102 C 
BRANCH  17  18
ATOM     18  N1  BAB d   1      24.028  -2.162  31.745  0.00  0.00    -0.385 N 
ATOM     19  H6  BAB d   1      23.312  -2.319  32.468  0.00  0.00     0.157 HD
ATOM     20  H7  BAB d   1      24.763  -1.456  31.893  0.00  0.00     0.157 HD
ENDBRANCH  17  18
BRANCH  17  21
ATOM     21  N2  BAB d   1      22.886  -3.948  30.237  0.00  0.00    -0.385 N 
ATOM     22  H8  BAB d   1      22.861  -4.500  29.368  0.00  0.00     0.157 HD
ATOM     23  H9  BAB d   1      22.149  -4.070  30.946  0.00  0.00     0.157 HD
ENDBRANCH  17  21
ENDBRANCH  12  17
ENDBRANCH   1   4
BRANCH   1  24
ATOM     24  C8' BAB d   1      28.421  -0.018  24.084  0.00  0.00     0.112 A 
ATOM     25  N3' BAB d   1      27.179  -0.596  23.496  0.00  0.00    -0.233 NA
ATOM     26  C4' BAB d   1      27.535  -1.017  22.125  0.00  0.00     0.085 A 
ATOM     27  C3' BAB d   1      26.725  -1.628  21.178  0.00  0.00    -0.052 A 
ATOM     28  C5' BAB d   1      28.842  -0.741  21.890  0.00  0.00     0.063 A 
ATOM     29  C2' BAB d   1      27.312  -1.959  19.940  0.00  0.00    -0.067 A 
ATOM     30  H12 BAB d   1      25.682  -1.842  21.382  0.00  0.00     0.087 H 
ATOM     31  C1' BAB d   1      28.690  -1.657  19.725  0.00  0.00     0.009 A 
ATOM     32  H11 BAB d   1      26.726  -2.436  19.163  0.00  0.00     0.085 H 
ATOM     33  C6' BAB d   1      29.444  -1.036  20.715  0.00  0.00    -0.041 A 
ATOM     34  H13 BAB d   1      30.488  -0.794  20.549  0.00  0.00     0.088 H 
ATOM     35  N4' BAB d   1      29.463  -0.105  23.061  0.00  0.00    -0.342 N 
ATOM     36  H18 BAB d   1      30.438   0.216  23.145  0.00  0.00     0.167 HD
BRANCH  31  37
ATOM     37  C7' BAB d   1      29.368  -1.999  18.471  0.00  0.00     0.102 C 
BRANCH  37  38
ATOM     38  N1' BAB d   1      30.251  -1.018  17.817  0.00  0.00    -0.385 N 
ATOM     39  H14 BAB d   1      30.727  -1.260  16.936  0.00  0.00     0.157 HD
ATOM     40  H15 BAB d   1      30.393  -0.090  18.241  0.00  0.00     0.157 HD
ENDBRANCH  37  38
BRANCH  37  41
ATOM     41  N2' BAB d   1      29.290  -3.373  17.926  0.00  0.00    -0.385 N 
ATOM     42  H16 BAB d   1      28.677  -4.070  18.372  0.00  0.00     0.157 HD
ATOM     43  H17 BAB d   1      29.849  -3.632  17.100  0.00  0.00     0.157 HD
ENDBRANCH  37  41
ENDBRANCH  31  37
ENDBRANCH   1  24
TORSDOF 8
