REMARK  8 active torsions:
REMARK  status: ('A' for Active; 'I' for Inactive)
REMARK    1  A    between atoms: C1_1  and  C7_7 
REMARK    2  A    between atoms: C7_7  and  N1_10 
REMARK    3  A    between atoms: C7_7  and  N2_11 
REMARK    4  A    between atoms: C9_9  and  C8_8 
REMARK    5  A    between atoms: C8'_21  and  C9_9 
REMARK    6  A    between atoms: C1'_14  and  C7'_20 
REMARK    7  A    between atoms: C7'_20  and  N1'_22 
REMARK    8  A    between atoms: C7'_20  and  N2'_23 
ROOT
ATOM      1  C9  BAB d   1       9.267  -1.918  25.366  0.00  0.00     0.045 C 
ATOM      2  H4  BAB d   1       8.190  -2.038  25.551  0.00  0.00     0.056 H 
ATOM      3  H5  BAB d   1       9.764  -2.896  25.445  0.00  0.00     0.056 H 
ENDROOT
BRANCH   1   4
ATOM      4  C8  BAB d   1       9.854  -0.964  26.370  0.00  0.00     0.112 A 
ATOM      5  N3  BAB d   1       9.661   0.507  26.394  0.00  0.00    -0.342 N 
ATOM      6  C4  BAB d   1      10.443   0.998  27.557  0.00  0.00     0.062 A 
ATOM      7  H10 BAB d   1       9.101   1.071  25.739  0.00  0.00     0.167 HD
ATOM      8  C3  BAB d   1      10.582   2.299  28.003  0.00  0.00    -0.054 A 
ATOM      9  C5  BAB d   1      11.056  -0.056  28.186  0.00  0.00     0.086 A 
ATOM     10  C2  BAB d   1      11.387   2.515  29.139  0.00  0.00    -0.067 A 
ATOM     11  H2  BAB d   1      10.090   3.122  27.498  0.00  0.00     0.087 H 
ATOM     12  C1  BAB d   1      12.020   1.417  29.782  0.00  0.00     0.009 A 
ATOM     13  H1  BAB d   1      11.524   3.519  29.523  0.00  0.00     0.085 H 
ATOM     14  C6  BAB d   1      11.846   0.114  29.293  0.00  0.00    -0.039 A 
ATOM     15  H3  BAB d   1      12.322  -0.732  29.776  0.00  0.00     0.088 H 
ATOM     16  N4  BAB d   1      10.732  -1.330  27.496  0.00  0.00    -0.233 NA
BRANCH  12  17
ATOM     17  C7  BAB d   1      12.890   1.638  30.999  0.00  0.00     0.102 C 
BRANCH  17  18
ATOM     18  N1  BAB d   1      12.261   1.860  32.339  0.00  0.00    -0.385 N 
ATOM     19  H6  BAB d   1      12.854   2.010  33.168  0.00  0.00     0.157 HD
ATOM     20  H7  BAB d   1      11.235   1.862  32.432  0.00  0.00     0.157 HD
ENDBRANCH  17  18
BRANCH  17  21
ATOM     21  N2  BAB d   1      14.386   1.625  30.860  0.00  0.00    -0.385 N 
ATOM     22  H8  BAB d   1      14.816   1.472  29.937  0.00  0.00     0.157 HD
ATOM     23  H9  BAB d   1      14.981   1.769  31.688  0.00  0.00     0.157 HD
ENDBRANCH  17  21
ENDBRANCH  12  17
ENDBRANCH   1   4
BRANCH   1  24
ATOM     24  C8' BAB d   1       9.489  -1.339  23.983  0.00  0.00     0.112 A 
ATOM     25  N3' BAB d   1      10.720  -0.680  23.488  0.00  0.00    -0.233 NA
ATOM     26  C4' BAB d   1      10.427  -0.282  22.092  0.00  0.00     0.085 A 
ATOM     27  C3' BAB d   1      11.254   0.369  21.207  0.00  0.00    -0.052 A 
ATOM     28  C5' BAB d   1       9.158  -0.655  21.756  0.00  0.00     0.063 A 
ATOM     29  C2' BAB d   1      10.752   0.647  19.930  0.00  0.00    -0.067 A 
ATOM     30  H12 BAB d   1      12.260   0.657  21.488  0.00  0.00     0.087 H 
ATOM     31  C1' BAB d   1       9.427   0.255  19.591  0.00  0.00     0.009 A 
ATOM     32  H11 BAB d   1      11.371   1.159  19.202  0.00  0.00     0.085 H 
ATOM     33  C6' BAB d   1       8.623  -0.405  20.519  0.00  0.00    -0.041 A 
ATOM     34  H13 BAB d   1       7.612  -0.709  20.272  0.00  0.00     0.088 H 
ATOM     35  N4' BAB d   1       8.505  -1.325  22.887  0.00  0.00    -0.342 N 
ATOM     36  H18 BAB d   1       7.549  -1.709  22.910  0.00  0.00     0.167 HD
BRANCH  31  37
ATOM     37  C7' BAB d   1       8.884   0.552  18.240  0.00  0.00     0.102 C 
BRANCH  37  38
ATOM     38  N1' BAB d   1       8.402  -0.545  17.380  0.00  0.00    -0.385 N 
ATOM     39  H14 BAB d   1       8.026  -0.338  16.444  0.00  0.00     0.157 HD
ATOM     40  H15 BAB d   1       8.442  -1.518  17.716  0.00  0.00     0.157 HD
ENDBRANCH  37  38
BRANCH  37  41
ATOM     41  N2' BAB d   1       8.858   1.946  17.728  0.00  0.00    -0.385 N 
ATOM     42  H16 BAB d   1       9.193   2.719  18.321  0.00  0.00     0.157 HD
ATOM     43  H17 BAB d   1       8.505   2.140  16.780  0.00  0.00     0.157 HD
ENDBRANCH  37  41
ENDBRANCH  31  37
ENDBRANCH   1  24
TORSDOF 8
