REMARK  8 active torsions:
REMARK  status: ('A' for Active; 'I' for Inactive)
REMARK    1  A    between atoms: C1_1  and  C7_7 
REMARK    2  A    between atoms: C7_7  and  N1_10 
REMARK    3  A    between atoms: C7_7  and  N2_11 
REMARK    4  A    between atoms: C9_9  and  C8_8 
REMARK    5  A    between atoms: C8'_21  and  C9_9 
REMARK    6  A    between atoms: C1'_14  and  C7'_20 
REMARK    7  A    between atoms: C7'_20  and  N1'_22 
REMARK    8  A    between atoms: C7'_20  and  N2'_23 
ROOT
ATOM      1  C9  NON d   1       6.877  -7.146  19.409  0.00  0.00     0.045 C 
ATOM      2  H22 NON d   1       7.309  -7.468  18.450  0.00  0.00     0.056 H 
ATOM      3  H23 NON d   1       6.781  -6.050  19.418  0.00  0.00     0.056 H 
ENDROOT
BRANCH   1   4
ATOM      4  C8  NON d   1       7.730  -7.613  20.558  0.00  0.00     0.112 A 
ATOM      5  N3  NON d   1       7.462  -7.361  21.990  0.00  0.00    -0.342 N 
ATOM      6  C4  NON d   1       8.543  -8.041  22.736  0.00  0.00     0.062 A 
ATOM      7  H28 NON d   1       6.680  -6.821  22.388  0.00  0.00     0.167 HD
ATOM      8  C3  NON d   1       8.725  -8.107  24.103  0.00  0.00    -0.054 A 
ATOM      9  C5  NON d   1       9.399  -8.651  21.857  0.00  0.00     0.086 A 
ATOM     10  C2  NON d   1       9.843  -8.833  24.578  0.00  0.00    -0.067 A 
ATOM     11  H20 NON d   1       8.038  -7.621  24.786  0.00  0.00     0.087 H 
ATOM     12  C1  NON d   1      10.730  -9.462  23.658  0.00  0.00     0.009 A 
ATOM     13  H19 NON d   1      10.025  -8.911  25.644  0.00  0.00     0.085 H 
ATOM     14  C6  NON d   1      10.496  -9.363  22.277  0.00  0.00    -0.039 A 
ATOM     15  H21 NON d   1      11.162  -9.835  21.563  0.00  0.00     0.088 H 
ATOM     16  N4  NON d   1       8.952  -8.425  20.465  0.00  0.00    -0.233 NA
BRANCH  12  17
ATOM     17  C7  NON d   1      11.933 -10.241  24.141  0.00  0.00     0.102 C 
BRANCH  17  18
ATOM     18  N1  NON d   1      11.750 -11.536  24.880  0.00  0.00    -0.385 N 
ATOM     19  H24 NON d   1      12.572 -12.063  25.207  0.00  0.00     0.157 HD
ATOM     20  H25 NON d   1      10.802 -11.897  25.060  0.00  0.00     0.157 HD
ENDBRANCH  17  18
BRANCH  17  21
ATOM     21  N2  NON d   1      13.311  -9.716  23.862  0.00  0.00    -0.385 N 
ATOM     22  H26 NON d   1      13.431  -8.828  23.355  0.00  0.00     0.157 HD
ATOM     23  H27 NON d   1      14.137 -10.244  24.178  0.00  0.00     0.157 HD
ENDBRANCH  17  21
ENDBRANCH  12  17
ENDBRANCH   1   4
BRANCH   1  24
ATOM     24  C8' NON d   1       5.519  -7.807  19.637  0.00  0.00     0.112 A 
ATOM     25  N3' NON d   1       4.204  -7.295  19.198  0.00  0.00    -0.233 NA
ATOM     26  C4' NON d   1       3.199  -8.294  19.679  0.00  0.00     0.085 A 
ATOM     27  C3' NON d   1       1.847  -8.251  19.511  0.00  0.00    -0.052 A 
ATOM     28  C5' NON d   1       3.807  -9.324  20.345  0.00  0.00     0.063 A 
ATOM     29  C2' NON d   1       1.062  -9.284  20.033  0.00  0.00    -0.067 A 
ATOM     30  H30 NON d   1       1.386  -7.426  18.979  0.00  0.00     0.087 H 
ATOM     31  C1' NON d   1       1.658 -10.352  20.720  0.00  0.00     0.009 A 
ATOM     32  H29 NON d   1      -0.014  -9.259  19.906  0.00  0.00     0.085 H 
ATOM     33  C6' NON d   1       3.075 -10.384  20.891  0.00  0.00    -0.041 A 
ATOM     34  H31 NON d   1       3.563 -11.194  21.421  0.00  0.00     0.088 H 
ATOM     35  N4' NON d   1       5.276  -9.098  20.367  0.00  0.00    -0.342 N 
ATOM     36  H36 NON d   1       5.987  -9.706  20.798  0.00  0.00     0.167 HD
BRANCH  31  37
ATOM     37  C7' NON d   1       0.754 -11.446  21.260  0.00  0.00     0.102 C 
BRANCH  37  38
ATOM     38  N1' NON d   1       0.939 -12.865  20.799  0.00  0.00    -0.385 N 
ATOM     39  H32 NON d   1       0.327 -13.609  21.164  0.00  0.00     0.157 HD
ATOM     40  H33 NON d   1       1.678 -13.093  20.118  0.00  0.00     0.157 HD
ENDBRANCH  37  38
BRANCH  37  41
ATOM     41  N2' NON d   1      -0.359 -11.092  22.219  0.00  0.00    -0.385 N 
ATOM     42  H34 NON d   1      -0.480 -10.118  22.531  0.00  0.00     0.157 HD
ATOM     43  H35 NON d   1      -0.997 -11.825  22.561  0.00  0.00     0.157 HD
ENDBRANCH  37  41
ENDBRANCH  31  37
ENDBRANCH   1  24
TORSDOF 8
