REMARK  14 active torsions:
REMARK  status: ('A' for Active; 'I' for Inactive)
REMARK    1  A    between atoms: N1_1  and  C1'_9 
REMARK    2  A    between atoms: C2'_10  and  O2'_11 
REMARK    3  A    between atoms: C3'_12  and  O3'_15 
REMARK    4  A    between atoms: C4'_13  and  C5'_16 
REMARK    5  A    between atoms: C5'_16  and  O5'_17 
REMARK    6  A    between atoms: O5'_17  and  PA_18 
REMARK    7  A    between atoms: PA_18  and  O3A_21 
REMARK    8  A    between atoms: O3A_21  and  PB_22 
REMARK    9  A    between atoms: PB_22  and  O3B_25 
REMARK   10  A    between atoms: O3B_25  and  C1'_26 
REMARK   11  A    between atoms: C3'_28  and  O3'_33 
REMARK   12  A    between atoms: C4'_29  and  O4'_34 
REMARK   13  A    between atoms: C5'_30  and  C6'_31 
REMARK   14  A    between atoms: C6'_31  and  O6'_36 
ROOT
ATOM      1  PA  UPF d   1      26.669  49.083  60.775  0.00  0.00     0.417 P 
ATOM      2  O1A UPF d   1      28.131  49.302  60.770  0.00  0.00    -0.624 OA
ATOM      3  O2A UPF d   1      25.993  49.617  59.551  0.00  0.00    -0.624 OA
ENDROOT
BRANCH   1   4
ATOM      4  O5' UPF d   1      26.196  47.573  61.063  0.00  0.00    -0.287 OA
BRANCH   4   5
ATOM      5  C5' UPF d   1      26.754  46.228  61.370  0.00  0.00     0.058 C 
ATOM      6  H10 UPF d   1      26.859  46.170  62.464  0.00  0.00     0.079 H 
ATOM      7  H11 UPF d   1      26.010  45.491  61.033  0.00  0.00     0.079 H 
BRANCH   5   8
ATOM      8  C4' UPF d   1      28.068  45.811  60.788  0.00  0.00     0.089 C 
ATOM      9  C3' UPF d   1      28.844  46.440  59.638  0.00  0.00     0.091 C 
ATOM     10  C2' UPF d   1      29.131  45.208  58.793  0.00  0.00     0.105 C 
ATOM     11  H7  UPF d   1      28.195  47.117  59.063  0.00  0.00     0.091 H 
ATOM     12  C1' UPF d   1      27.849  44.398  58.881  0.00  0.00     0.141 C 
ATOM     13  H5  UPF d   1      29.329  45.505  57.752  0.00  0.00     0.093 H 
ATOM     14  O4' UPF d   1      27.248  44.761  60.103  0.00  0.00    -0.353 OA
ATOM     15  H4  UPF d   1      28.119  43.339  59.007  0.00  0.00     0.123 H 
ATOM     16  H8  UPF d   1      28.780  45.494  61.565  0.00  0.00     0.090 H 
BRANCH   9  17
ATOM     17  O3' UPF d   1      29.923  47.221  60.117  0.00  0.00    -0.390 OA
ATOM     18  H9  UPF d   1      29.588  47.915  60.673  0.00  0.00     0.210 HD
ENDBRANCH   9  17
BRANCH  10  19
ATOM     19  O2' UPF d   1      30.236  44.444  59.266  0.00  0.00    -0.388 OA
ATOM     20  H6  UPF d   1      30.328  43.661  58.736  0.00  0.00     0.210 HD
ENDBRANCH  10  19
BRANCH  12  21
ATOM     21  N1  UPF d   1      27.163  44.456  57.503  0.00  0.00    -0.280 N 
ATOM     22  C2  UPF d   1      27.534  43.796  56.323  0.00  0.00     0.331 A 
ATOM     23  N3  UPF d   1      26.660  44.074  55.247  0.00  0.00    -0.275 N 
ATOM     24  O2  UPF d   1      28.508  43.060  56.249  0.00  0.00    -0.246 OA
ATOM     25  C4  UPF d   1      25.501  44.926  55.274  0.00  0.00     0.250 A 
ATOM     26  H1  UPF d   1      26.870  43.632  54.375  0.00  0.00     0.173 HD
ATOM     27  C5  UPF d   1      25.203  45.563  56.520  0.00  0.00    -0.002 A 
ATOM     28  O4  UPF d   1      24.843  45.063  54.261  0.00  0.00    -0.268 OA
ATOM     29  C6  UPF d   1      25.994  45.332  57.560  0.00  0.00    -0.008 A 
ATOM     30  H2  UPF d   1      24.343  46.225  56.613  0.00  0.00     0.094 H 
ATOM     31  H3  UPF d   1      25.760  45.820  58.505  0.00  0.00     0.112 H 
ENDBRANCH  12  21
ENDBRANCH   5   8
ENDBRANCH   4   5
ENDBRANCH   1   4
BRANCH   1  32
ATOM     32  O3A UPF d   1      25.938  49.260  62.184  0.00  0.00    -0.180 OA
BRANCH  32  33
ATOM     33  PB  UPF d   1      25.680  50.476  63.170  0.00  0.00     0.420 P 
ATOM     34  O1B UPF d   1      27.020  51.096  63.263  0.00  0.00    -0.624 OA
ATOM     35  O2B UPF d   1      24.709  51.358  62.530  0.00  0.00    -0.624 OA
BRANCH  33  36
ATOM     36  O3B UPF d   1      25.216  49.967  64.584  0.00  0.00    -0.255 OA
BRANCH  36  37
ATOM     37  C1' UPF d   1      25.592  49.806  66.137  0.00  0.00     0.175 C 
ATOM     38  C2' UPF d   1      27.068  49.264  66.108  0.00  0.00     0.153 C 
ATOM     39  C3' UPF d   1      27.388  48.034  65.112  0.00  0.00     0.097 C 
ATOM     40  F2' UPF d   1      27.995  50.287  65.860  0.00  0.00    -0.241 F 
ATOM     41  H13 UPF d   1      27.262  48.890  67.124  0.00  0.00     0.103 H 
ATOM     42  C4' UPF d   1      26.355  46.893  65.389  0.00  0.00     0.090 C 
ATOM     43  H14 UPF d   1      27.326  48.366  64.065  0.00  0.00     0.091 H 
ATOM     44  C5' UPF d   1      24.923  47.585  65.361  0.00  0.00     0.089 C 
ATOM     45  H15 UPF d   1      26.416  46.117  64.612  0.00  0.00     0.091 H 
ATOM     46  O5' UPF d   1      24.711  48.696  66.374  0.00  0.00    -0.348 OA
ATOM     47  H16 UPF d   1      24.710  47.943  64.343  0.00  0.00     0.090 H 
ATOM     48  H12 UPF d   1      25.444  50.685  66.781  0.00  0.00     0.134 H 
BRANCH  39  49
ATOM     49  O3' UPF d   1      28.664  47.530  65.388  0.00  0.00    -0.390 OA
ATOM     50  H19 UPF d   1      29.312  48.206  65.227  0.00  0.00     0.210 HD
ENDBRANCH  39  49
BRANCH  42  51
ATOM     51  O4' UPF d   1      26.642  46.302  66.694  0.00  0.00    -0.390 OA
ATOM     52  H20 UPF d   1      27.502  45.899  66.675  0.00  0.00     0.210 HD
ENDBRANCH  42  51
BRANCH  44  53
ATOM     53  C6' UPF d   1      23.902  46.555  65.839  0.00  0.00     0.043 C 
ATOM     54  H17 UPF d   1      22.934  47.077  65.821  0.00  0.00     0.078 H 
ATOM     55  H18 UPF d   1      24.180  46.333  66.880  0.00  0.00     0.078 H 
BRANCH  53  56
ATOM     56  O6' UPF d   1      23.660  45.309  65.248  0.00  0.00    -0.398 OA
ATOM     57  H21 UPF d   1      24.457  44.792  65.263  0.00  0.00     0.209 HD
ENDBRANCH  53  56
ENDBRANCH  44  53
ENDBRANCH  36  37
ENDBRANCH  33  36
ENDBRANCH  32  33
ENDBRANCH   1  32
TORSDOF 14
