REMARK  6 active torsions:
REMARK  status: ('A' for Active; 'I' for Inactive)
REMARK    1  A    between atoms: P_1  and  O5_5 
REMARK    2  A    between atoms: O5_5  and  C5_6 
REMARK    3  A    between atoms: C5_6  and  C4_7 
REMARK    4  A    between atoms: C3_9  and  O3_10 
REMARK    5  A    between atoms: C2_11  and  O2_12 
REMARK    6  A    between atoms: C1_13  and  N9_14 
ROOT
ATOM      1  C4  IMP d   1     -12.821  63.895  68.774  0.00  0.00     0.089 C 
ATOM      2  O4  IMP d   1     -14.244  64.163  68.712  0.00  0.00    -0.353 OA
ATOM      3  C3  IMP d   1     -12.266  64.939  69.684  0.00  0.00     0.091 C 
ATOM      4  C2  IMP d   1     -13.215  66.074  69.560  0.00  0.00     0.105 C 
ATOM      5  C1  IMP d   1     -14.584  65.496  69.170  0.00  0.00     0.139 C 
ATOM      6  H3  IMP d   1     -12.383  63.993  67.769  0.00  0.00     0.090 H 
ATOM      7  H4  IMP d   1     -12.214  64.577  70.722  0.00  0.00     0.091 H 
ATOM      8  H6  IMP d   1     -13.301  66.581  70.532  0.00  0.00     0.093 H 
ATOM      9  H8  IMP d   1     -15.051  66.083  68.365  0.00  0.00     0.122 H 
ENDROOT
BRANCH   5  10
ATOM     10  N9  IMP d   1     -15.528  65.461  70.399  0.00  0.00    -0.294 N 
ATOM     11  C8  IMP d   1     -15.795  64.363  71.231  0.00  0.00     0.071 A 
ATOM     12  N7  IMP d   1     -16.641  64.600  72.221  0.00  0.00    -0.234 NA
ATOM     13  H9  IMP d   1     -15.339  63.387  71.074  0.00  0.00     0.144 H 
ATOM     14  C5  IMP d   1     -16.987  65.949  72.082  0.00  0.00     0.172 A 
ATOM     15  C6  IMP d   1     -17.882  66.772  72.883  0.00  0.00     0.279 A 
ATOM     16  C4  IMP d   1     -16.324  66.512  70.971  0.00  0.00     0.169 A 
ATOM     17  O6  IMP d   1     -18.523  66.429  73.878  0.00  0.00    -0.265 OA
ATOM     18  N1  IMP d   1     -17.977  68.104  72.425  0.00  0.00    -0.316 N 
ATOM     19  C2  IMP d   1     -17.292  68.618  71.302  0.00  0.00     0.069 A 
ATOM     20  H10 IMP d   1     -18.572  68.728  72.932  0.00  0.00     0.170 HD
ATOM     21  N3  IMP d   1     -16.443  67.845  70.536  0.00  0.00    -0.223 NA
ATOM     22  H11 IMP d   1     -17.439  69.662  71.031  0.00  0.00     0.143 H 
ENDBRANCH   5  10
BRANCH   4  23
ATOM     23  O2  IMP d   1     -12.761  67.015  68.601  0.00  0.00    -0.388 OA
ATOM     24  H7  IMP d   1     -11.914  67.353  68.867  0.00  0.00     0.210 HD
ENDBRANCH   4  23
BRANCH   1  25
ATOM     25  C5  IMP d   1     -12.497  62.532  69.308  0.00  0.00     0.059 C 
ATOM     26  H1  IMP d   1     -11.405  62.423  69.382  0.00  0.00     0.079 H 
ATOM     27  H2  IMP d   1     -12.945  62.419  70.306  0.00  0.00     0.079 H 
BRANCH  25  28
ATOM     28  O5  IMP d   1     -13.016  61.512  68.438  0.00  0.00    -0.280 OA
BRANCH  28  29
ATOM     29  P   IMP d   1     -12.513  60.012  68.346  0.00  0.00     0.422 P 
ATOM     30  O1P IMP d   1     -13.172  59.286  69.448  0.00  0.00    -0.617 OA
ATOM     31  O2P IMP d   1     -11.057  59.920  68.415  0.00  0.00    -0.617 OA
ATOM     32  O3P IMP d   1     -13.083  59.621  67.051  0.00  0.00    -0.617 OA
ENDBRANCH  28  29
ENDBRANCH  25  28
ENDBRANCH   1  25
BRANCH   3  33
ATOM     33  O3  IMP d   1     -10.965  65.327  69.235  0.00  0.00    -0.390 OA
ATOM     34  H5  IMP d   1     -10.616  65.992  69.817  0.00  0.00     0.210 HD
ENDBRANCH   3  33
TORSDOF 6
