REMARK  6 active torsions:
REMARK  status: ('A' for Active; 'I' for Inactive)
REMARK    1  A    between atoms: P_1  and  O5_5 
REMARK    2  A    between atoms: O5_5  and  C5_6 
REMARK    3  A    between atoms: C5_6  and  C4_7 
REMARK    4  A    between atoms: C3_9  and  O3_10 
REMARK    5  A    between atoms: C2_11  and  O2_12 
REMARK    6  A    between atoms: C1_13  and  N9_14 
ROOT
ATOM      1  C4  5GP d   1     -12.676  63.931  68.628  0.00  0.00     0.089 C 
ATOM      2  O4  5GP d   1     -14.093  64.191  68.559  0.00  0.00    -0.353 OA
ATOM      3  C3  5GP d   1     -12.111  64.960  69.552  0.00  0.00     0.091 C 
ATOM      4  C2  5GP d   1     -13.098  66.065  69.529  0.00  0.00     0.105 C 
ATOM      5  C1  5GP d   1     -14.450  65.486  69.077  0.00  0.00     0.139 C 
ATOM      6  H3  5GP d   1     -12.235  64.043  67.626  0.00  0.00     0.090 H 
ATOM      7  H4  5GP d   1     -11.987  64.559  70.569  0.00  0.00     0.091 H 
ATOM      8  H6  5GP d   1     -13.205  66.474  70.545  0.00  0.00     0.093 H 
ATOM      9  H8  5GP d   1     -14.909  66.110  68.296  0.00  0.00     0.122 H 
ENDROOT
BRANCH   5  10
ATOM     10  N9  5GP d   1     -15.413  65.371  70.279  0.00  0.00    -0.293 N 
ATOM     11  C8  5GP d   1     -15.928  64.198  70.848  0.00  0.00     0.071 A 
ATOM     12  N7  5GP d   1     -16.738  64.387  71.879  0.00  0.00    -0.234 NA
ATOM     13  H9  5GP d   1     -15.681  63.207  70.471  0.00  0.00     0.144 H 
ATOM     14  C5  5GP d   1     -16.788  65.781  72.047  0.00  0.00     0.173 A 
ATOM     15  C6  5GP d   1     -17.521  66.589  73.016  0.00  0.00     0.292 A 
ATOM     16  C4  5GP d   1     -15.994  66.415  71.069  0.00  0.00     0.186 A 
ATOM     17  O6  5GP d   1     -18.253  66.190  73.927  0.00  0.00    -0.265 OA
ATOM     18  N1  5GP d   1     -17.317  67.980  72.855  0.00  0.00    -0.152 N 
ATOM     19  C2  5GP d   1     -16.501  68.557  71.855  0.00  0.00     0.703 A 
ATOM     20  H10 5GP d   1     -17.781  68.596  73.491  0.00  0.00     0.187 HD
ATOM     21  N2  5GP d   1     -16.411  69.893  71.824  0.00  0.00    -0.233 N 
ATOM     22  N3  5GP d   1     -15.806  67.802  70.934  0.00  0.00    -0.044 NA
ATOM     23  H11 5GP d   1     -15.827  70.353  71.111  0.00  0.00     0.174 HD
ATOM     24  H12 5GP d   1     -16.926  70.460  72.513  0.00  0.00     0.174 HD
ENDBRANCH   5  10
BRANCH   4  25
ATOM     25  O2  5GP d   1     -12.668  67.109  68.667  0.00  0.00    -0.388 OA
ATOM     26  H7  5GP d   1     -11.835  67.448  68.973  0.00  0.00     0.210 HD
ENDBRANCH   4  25
BRANCH   1  27
ATOM     27  C5  5GP d   1     -12.361  62.560  69.139  0.00  0.00     0.059 C 
ATOM     28  H1  5GP d   1     -11.270  62.436  69.203  0.00  0.00     0.079 H 
ATOM     29  H2  5GP d   1     -12.804  62.432  70.138  0.00  0.00     0.079 H 
BRANCH  27  30
ATOM     30  O5  5GP d   1     -12.903  61.571  68.246  0.00  0.00    -0.280 OA
BRANCH  30  31
ATOM     31  P   5GP d   1     -12.610  60.016  68.276  0.00  0.00     0.422 P 
ATOM     32  O1P 5GP d   1     -13.469  59.464  69.343  0.00  0.00    -0.617 OA
ATOM     33  O2P 5GP d   1     -11.182  59.730  68.492  0.00  0.00    -0.617 OA
ATOM     34  O3P 5GP d   1     -13.117  59.627  66.951  0.00  0.00    -0.617 OA
ENDBRANCH  30  31
ENDBRANCH  27  30
ENDBRANCH   1  27
BRANCH   3  35
ATOM     35  O3  5GP d   1     -10.852  65.419  69.044  0.00  0.00    -0.390 OA
ATOM     36  H5  5GP d   1     -10.251  64.686  68.980  0.00  0.00     0.210 HD
ENDBRANCH   3  35
TORSDOF 6
