REMARK  11 active torsions:
REMARK  status: ('A' for Active; 'I' for Inactive)
REMARK    1  A    between atoms: O1_7  and  C1_1 
REMARK    2  A    between atoms: C2_2  and  O2_8 
REMARK    3  A    between atoms: C3_3  and  O3_9 
REMARK    4  A    between atoms: C5_5  and  C6_6 
REMARK    5  A    between atoms: C6_6  and  O6_11 
REMARK    6  A    between atoms: C4'_15  and  O1_7 
REMARK    7  A    between atoms: C1'_12  and  O1'_18 
REMARK    8  A    between atoms: C2'_13  and  O2'_19 
REMARK    9  A    between atoms: C3'_14  and  O3'_20 
REMARK   10  A    between atoms: C5'_16  and  C6'_17 
REMARK   11  A    between atoms: C6'_17  and  O6'_22 
ROOT
ATOM      1  C1' DEL d   1      21.022  59.167  65.115  0.00  0.00     0.156 C 
ATOM      2  C2' DEL d   1      22.233  58.735  66.003  0.00  0.00     0.110 C 
ATOM      3  C3' DEL d   1      22.701  57.339  65.546  0.00  0.00     0.092 C 
ATOM      4  C4' DEL d   1      21.502  56.404  65.722  0.00  0.00     0.096 C 
ATOM      5  C5' DEL d   1      20.260  56.819  64.873  0.00  0.00     0.089 C 
ATOM      6  O5' DEL d   1      19.938  58.186  65.255  0.00  0.00    -0.349 OA
ATOM      7  H12 DEL d   1      21.334  59.216  64.061  0.00  0.00     0.133 H 
ATOM      8  H13 DEL d   1      21.926  58.697  67.058  0.00  0.00     0.094 H 
ATOM      9  H14 DEL d   1      23.014  57.358  64.492  0.00  0.00     0.091 H 
ATOM     10  H15 DEL d   1      21.250  56.335  66.790  0.00  0.00     0.091 H 
ATOM     11  H16 DEL d   1      20.539  56.792  63.809  0.00  0.00     0.090 H 
ENDROOT
BRANCH   4  12
ATOM     12  O1  DEL d   1      21.781  55.096  65.145  0.00  0.00    -0.348 OA
BRANCH  12  13
ATOM     13  C1  DEL d   1      22.025  53.821  65.773  0.00  0.00     0.159 C 
ATOM     14  C2  DEL d   1      22.285  52.460  65.211  0.00  0.00     0.107 C 
ATOM     15  C3  DEL d   1      22.302  51.487  66.383  0.00  0.00     0.067 C 
ATOM     16  H2  DEL d   1      23.251  52.437  64.686  0.00  0.00     0.094 H 
ATOM     17  C4  DEL d   1      23.469  51.896  67.335  0.00  0.00    -0.012 C 
ATOM     18  H3  DEL d   1      21.344  51.504  66.923  0.00  0.00     0.087 H 
ATOM     19  C5  DEL d   1      23.349  53.194  67.910  0.00  0.00     0.064 C 
ATOM     20  H4  DEL d   1      24.406  51.863  66.760  0.00  0.00     0.040 H 
ATOM     21  H5  DEL d   1      23.515  51.163  68.154  0.00  0.00     0.040 H 
ATOM     22  O5  DEL d   1      23.097  54.158  66.749  0.00  0.00    -0.351 OA
ATOM     23  H6  DEL d   1      22.444  53.175  68.534  0.00  0.00     0.086 H 
ATOM     24  H1  DEL d   1      21.100  53.650  66.343  0.00  0.00     0.133 H 
BRANCH  14  25
ATOM     25  O2  DEL d   1      21.240  52.137  64.311  0.00  0.00    -0.388 OA
ATOM     26  H9  DEL d   1      20.407  52.186  64.764  0.00  0.00     0.210 HD
ENDBRANCH  14  25
BRANCH  15  27
ATOM     27  O3  DEL d   1      22.547  50.210  65.851  0.00  0.00    -0.393 OA
ATOM     28  H10 DEL d   1      21.834  49.967  65.273  0.00  0.00     0.210 HD
ENDBRANCH  15  27
BRANCH  19  29
ATOM     29  C6  DEL d   1      24.315  53.629  68.705  0.00  0.00     0.041 C 
ATOM     30  H7  DEL d   1      24.003  54.616  69.078  0.00  0.00     0.077 H 
ATOM     31  H8  DEL d   1      25.216  53.739  68.084  0.00  0.00     0.077 H 
BRANCH  29  32
ATOM     32  O6  DEL d   1      24.696  52.835  69.870  0.00  0.00    -0.398 OA
ATOM     33  H11 DEL d   1      25.397  53.275  70.337  0.00  0.00     0.209 HD
ENDBRANCH  29  32
ENDBRANCH  19  29
ENDBRANCH  12  13
ENDBRANCH   4  12
BRANCH   3  34
ATOM     34  O3' DEL d   1      23.817  56.939  66.379  0.00  0.00    -0.390 OA
ATOM     35  H21 DEL d   1      24.541  57.539  66.245  0.00  0.00     0.210 HD
ENDBRANCH   3  34
BRANCH   5  36
ATOM     36  C6' DEL d   1      19.026  55.915  65.060  0.00  0.00     0.043 C 
ATOM     37  H17 DEL d   1      18.530  56.167  66.009  0.00  0.00     0.078 H 
ATOM     38  H18 DEL d   1      19.345  54.863  65.081  0.00  0.00     0.078 H 
BRANCH  36  39
ATOM     39  O6' DEL d   1      18.115  56.108  63.988  0.00  0.00    -0.398 OA
ATOM     40  H22 DEL d   1      17.358  55.547  64.112  0.00  0.00     0.209 HD
ENDBRANCH  36  39
ENDBRANCH   5  36
BRANCH   2  41
ATOM     41  O2' DEL d   1      23.291  59.666  65.850  0.00  0.00    -0.388 OA
ATOM     42  H20 DEL d   1      24.031  59.392  66.379  0.00  0.00     0.210 HD
ENDBRANCH   2  41
BRANCH   1  43
ATOM     43  O1' DEL d   1      20.587  60.439  65.536  0.00  0.00    -0.369 OA
ATOM     44  H19 DEL d   1      21.297  61.063  65.440  0.00  0.00     0.212 HD
ENDBRANCH   1  43
TORSDOF 11
