REMARK  8 active torsions:
REMARK  status: ('A' for Active; 'I' for Inactive)
REMARK    1  A    between atoms: B_1  and  O1_2 
REMARK    2  A    between atoms: B_1  and  O2_3 
REMARK    3  A    between atoms: C1_4  and  B_1 
REMARK    4  A    between atoms: N1_7  and  C3_6 
REMARK    5  A    between atoms: S1_11  and  N1_7 
REMARK    6  A    between atoms: C10_18  and  S1_11 
REMARK    7  A    between atoms: C8_16  and  S2_19 
REMARK    8  A    between atoms: S2_19  and  C11_22 
ROOT
ATOM      1  S3  ETP d   1      21.163   6.441  11.129  0.00  0.00    -0.087 SA
ATOM      2  C7  ETP d   1      20.382   7.000  12.624  0.00  0.00    -0.022 A 
ATOM      3  C8  ETP d   1      20.939   6.485  13.742  0.00  0.00     0.072 A 
ATOM      4  C9  ETP d   1      22.049   5.573  13.470  0.00  0.00    -0.032 A 
ATOM      5  C10 ETP d   1      22.273   5.467  12.142  0.00  0.00     0.121 A 
ATOM      6  H8  ETP d   1      19.539   7.689  12.638  0.00  0.00     0.097 H 
ATOM      7  H9  ETP d   1      22.619   5.049  14.236  0.00  0.00     0.089 H 
ENDROOT
BRANCH   5   8
ATOM      8  S1  ETP d   1      23.554   4.499  11.430  0.00  0.00     0.269 S 
ATOM      9  O3  ETP d   1      23.690   3.385  12.389  0.00  0.00    -0.200 OA
ATOM     10  O4  ETP d   1      23.090   4.334  10.106  0.00  0.00    -0.200 OA
BRANCH   8  11
ATOM     11  N1  ETP d   1      24.932   5.481  11.586  0.00  0.00    -0.280 N 
ATOM     12  H4  ETP d   1      25.476   5.677  10.770  0.00  0.00     0.179 HD
BRANCH  11  13
ATOM     13  C3  ETP d   1      25.362   6.062  12.889  0.00  0.00     0.042 A 
ATOM     14  C2  ETP d   1      25.920   5.243  13.918  0.00  0.00    -0.056 A 
ATOM     15  C1  ETP d   1      26.264   5.810  15.173  0.00  0.00    -0.030 A 
ATOM     16  H3  ETP d   1      26.081   4.186  13.740  0.00  0.00     0.086 H 
ATOM     17  C6  ETP d   1      26.057   7.203  15.374  0.00  0.00    -0.082 A 
ATOM     18  C5  ETP d   1      25.504   8.013  14.348  0.00  0.00    -0.081 A 
ATOM     19  H7  ETP d   1      26.325   7.652  16.323  0.00  0.00     0.083 H 
ATOM     20  C4  ETP d   1      25.162   7.440  13.124  0.00  0.00    -0.057 A 
ATOM     21  H6  ETP d   1      25.348   9.073  14.515  0.00  0.00     0.083 H 
ATOM     22  H5  ETP d   1      24.737   8.060  12.343  0.00  0.00     0.086 H 
BRANCH  15  23
ATOM     23  B   ETP d   1      26.762   4.897  16.388  0.00  0.00     0.529 B 
BRANCH  23  24
ATOM     24  O1  ETP d   1      25.711   3.866  16.722  0.00  0.00    -0.433 OA
ATOM     25  H1  ETP d   1      25.554   3.317  15.962  0.00  0.00     0.185 HD
ENDBRANCH  23  24
BRANCH  23  26
ATOM     26  O2  ETP d   1      27.010   5.750  17.559  0.00  0.00    -0.433 OA
ATOM     27  H2  ETP d   1      27.672   6.397  17.344  0.00  0.00     0.185 HD
ENDBRANCH  23  26
ENDBRANCH  15  23
ENDBRANCH  11  13
ENDBRANCH   8  11
ENDBRANCH   5   8
BRANCH   3  28
ATOM     28  S2  ETP d   1      20.450   6.911  15.360  0.00  0.00     0.207 S 
ATOM     29  O6  ETP d   1      19.088   7.229  15.450  0.00  0.00    -0.217 OA
ATOM     30  O5  ETP d   1      21.159   6.037  16.314  0.00  0.00    -0.217 OA
BRANCH  28  31
ATOM     31  C11 ETP d   1      21.222   8.471  15.622  0.00  0.00     0.064 A 
ATOM     32  C16 ETP d   1      22.298   8.592  16.542  0.00  0.00    -0.062 A 
ATOM     33  C15 ETP d   1      22.955   9.831  16.709  0.00  0.00    -0.082 A 
ATOM     34  H10 ETP d   1      22.616   7.730  17.118  0.00  0.00     0.085 H 
ATOM     35  C14 ETP d   1      22.541  10.964  15.957  0.00  0.00    -0.083 A 
ATOM     36  H11 ETP d   1      23.776   9.918  17.412  0.00  0.00     0.083 H 
ATOM     37  C13 ETP d   1      21.473  10.859  15.044  0.00  0.00    -0.082 A 
ATOM     38  H12 ETP d   1      23.049  11.913  16.087  0.00  0.00     0.083 H 
ATOM     39  C12 ETP d   1      20.810   9.621  14.874  0.00  0.00    -0.062 A 
ATOM     40  H13 ETP d   1      21.160  11.726  14.473  0.00  0.00     0.083 H 
ATOM     41  H14 ETP d   1      19.986   9.542  14.174  0.00  0.00     0.085 H 
ENDBRANCH  28  31
ENDBRANCH   3  28
TORSDOF 8
