REMARK WARNING: 32 MAX_TORS EXCEEDED!!!
REMARK  47 active torsions:
REMARK  status: ('A' for Active; 'I' for Inactive)
REMARK    1  A    between atoms: C_3  and  CA_2 
REMARK       I    between atoms: N_8  and  C_3 
REMARK    2  A    between atoms: CA_9  and  N_8 
REMARK    3  A    between atoms: CA_9  and  CB_12 
REMARK    4  A    between atoms: C_10  and  CA_9 
REMARK       I    between atoms: N_13  and  C_10 
REMARK    5  A    between atoms: CA_14  and  N_13 
REMARK    6  A    between atoms: CA_14  and  CB_17 
REMARK    7  A    between atoms: C_15  and  CA_14 
REMARK       I    between atoms: N_20  and  C_15 
REMARK    8  A    between atoms: CB_17  and  CG2_19 
REMARK    9  A    between atoms: CB_17  and  OG1_18 
REMARK   10  A    between atoms: CA_21  and  N_20 
REMARK   11  A    between atoms: C_22  and  CA_21 
REMARK       I    between atoms: N_24  and  C_22 
REMARK   12  A    between atoms: CA_25  and  N_24 
REMARK   13  A    between atoms: CA_25  and  CB_28 
REMARK   14  A    between atoms: C_26  and  CA_25 
REMARK       I    between atoms: N_32  and  C_26 
REMARK   15  A    between atoms: CB_28  and  CG_29 
REMARK   16  A    between atoms: CA_33  and  N_32 
REMARK   17  A    between atoms: CA_33  and  CB_36 
REMARK   18  A    between atoms: C_34  and  CA_33 
REMARK       I    between atoms: N_43  and  C_34 
REMARK   19  A    between atoms: CB_36  and  CG_37 
REMARK   20  A    between atoms: CA_44  and  N_43 
REMARK   21  A    between atoms: CA_44  and  CB_47 
REMARK   22  A    between atoms: C_45  and  CA_44 
REMARK       I    between atoms: N_51  and  C_45 
REMARK   23  A    between atoms: CB_47  and  CG_48 
REMARK   24  A    between atoms: CG_48  and  SD_49 
REMARK   25  A    between atoms: SD_49  and  CE_50 
REMARK   26  A    between atoms: CA_52  and  N_51 
REMARK   27  A    between atoms: CA_52  and  CB_55 
REMARK   28  A    between atoms: C_53  and  CA_52 
REMARK       I    between atoms: N_59  and  C_53 
REMARK   29  A    between atoms: CB_55  and  CG_56 
REMARK       I    between atoms: CG_56  and  ND2_58 
REMARK   30  A    between atoms: CA_60  and  N_59 
REMARK   31  A    between atoms: CA_60  and  CB_63 
REMARK   32  A    between atoms: C_61  and  CA_60 
REMARK       I    between atoms: N_67  and  C_61 
REMARK   33  A    between atoms: CB_63  and  CG_64 
REMARK   34  A    between atoms: CG_64  and  SD_65 
REMARK   35  A    between atoms: SD_65  and  CE_66 
REMARK   36  A    between atoms: CA_68  and  N_67 
REMARK   37  A    between atoms: CA_68  and  CB_71 
REMARK   38  A    between atoms: C_69  and  CA_68 
REMARK       I    between atoms: N_73  and  C_69 
REMARK   39  A    between atoms: CB_71  and  OG_72 
REMARK   40  A    between atoms: C_75  and  CA_74 
REMARK       I    between atoms: N_80  and  C_75 
REMARK   41  A    between atoms: CA_81  and  N_80 
REMARK   42  A    between atoms: CA_81  and  CB_84 
REMARK   43  A    between atoms: C_82  and  CA_81 
REMARK       I    between atoms: C_82  and  N_87 
REMARK   44  A    between atoms: CB_84  and  CG2_86 
REMARK   45  A    between atoms: CB_84  and  CG1_85 
REMARK   46  A    between atoms: N_87  and  CA_88 
REMARK   47  A    between atoms: CA_88  and  C_89 
ROOT
ATOM      1  CA  MET d   1     -25.008  25.987  25.656  0.00  0.00     0.090 C 
ATOM      2  H39 MET d   1     -24.677  24.946  25.528  0.00  0.00     0.087 H 
ENDROOT
BRANCH   1   3
ATOM      3  N   MET d   1     -24.791  26.729  24.427  0.00  0.00    -0.346 N 
ATOM      4  C   PHE d   1     -24.112  26.218  23.410  0.00  0.00     0.241 C 
ATOM      5  O   PHE d   1     -23.598  25.102  23.434  0.00  0.00    -0.271 OA
ATOM      6  H38 MET d   1     -25.165  27.653  24.346  0.00  0.00     0.163 HD
BRANCH   4   7
ATOM      7  CA  PHE d   1     -23.999  27.117  22.193  0.00  0.00     0.093 C 
ATOM      8  H30 PHE d   1     -24.070  28.159  22.539  0.00  0.00     0.088 H 
BRANCH   7   9
ATOM      9  N   PHE d   1     -22.734  26.988  21.473  0.00  0.00    -0.346 N 
ATOM     10  C   ASP d   1     -21.943  28.046  21.303  0.00  0.00     0.241 C 
ATOM     11  O   ASP d   1     -22.229  29.160  21.746  0.00  0.00    -0.271 OA
ATOM     12  H29 PHE d   1     -22.460  26.099  21.105  0.00  0.00     0.163 HD
BRANCH  10  13
ATOM     13  CA  ASP d   1     -20.640  27.825  20.523  0.00  0.00     0.098 C 
ATOM     14  H26 ASP d   1     -19.810  28.220  21.127  0.00  0.00     0.088 H 
BRANCH  13  15
ATOM     15  N   ASP d   1     -20.383  26.414  20.266  0.00  0.00    -0.346 N 
ATOM     16  C   GLY d   1     -19.995  25.585  21.232  0.00  0.00     0.236 C 
ATOM     17  O   GLY d   1     -19.832  25.945  22.404  0.00  0.00    -0.272 OA
ATOM     18  H25 ASP d   1     -20.501  26.059  19.339  0.00  0.00     0.163 HD
BRANCH  16  19
ATOM     19  CA  GLY d   1     -19.764  24.145  20.825  0.00  0.00     0.069 C 
ATOM     20  H23 GLY d   1     -18.679  23.972  20.778  0.00  0.00     0.078 H 
ATOM     21  H24 GLY d   1     -20.206  23.496  21.595  0.00  0.00     0.078 H 
BRANCH  19  22
ATOM     22  N   GLY d   1     -20.338  23.779  19.539  0.00  0.00    -0.350 N 
ATOM     23  C   THR d   1     -21.646  23.889  19.305  0.00  0.00     0.243 C 
ATOM     24  O   THR d   1     -22.454  24.317  20.135  0.00  0.00    -0.271 OA
ATOM     25  H22 GLY d   1     -19.738  23.438  18.815  0.00  0.00     0.163 HD
BRANCH  23  26
ATOM     26  CA  THR d   1     -22.121  23.452  17.923  0.00  0.00     0.113 C 
ATOM     27  H16 THR d   1     -23.107  23.901  17.732  0.00  0.00     0.091 H 
BRANCH  26  28
ATOM     28  N   THR d   1     -21.205  23.897  16.882  0.00  0.00    -0.344 N 
ATOM     29  C   ALA d   1     -20.923  25.179  16.677  0.00  0.00     0.240 C 
ATOM     30  O   ALA d   1     -21.412  26.088  17.349  0.00  0.00    -0.271 OA
ATOM     31  H15 THR d   1     -20.771  23.210  16.298  0.00  0.00     0.163 HD
BRANCH  29  32
ATOM     32  CA  ALA d   1     -19.933  25.476  15.545  0.00  0.00     0.086 C 
ATOM     33  H11 ALA d   1     -19.037  24.870  15.743  0.00  0.00     0.086 H 
BRANCH  32  34
ATOM     34  N   ALA d   1     -20.388  25.126  14.195  0.00  0.00    -0.346 N 
ATOM     35  C   PRO d   1     -20.760  23.893  13.855  0.00  0.00     0.249 C 
ATOM     36  O   PRO d   1     -20.780  22.951  14.649  0.00  0.00    -0.271 OA
ATOM     37  H10 ALA d   1     -20.420  25.844  13.500  0.00  0.00     0.163 HD
BRANCH  35  38
ATOM     38  CA  PRO d   1     -21.177  23.686  12.396  0.00  0.00     0.178 C 
ATOM     39  CB  PRO d   1     -22.227  22.581  12.249  0.00  0.00    -0.028 C 
ATOM     40  CG  PRO d   1     -21.906  21.980  10.926  0.00  0.00    -0.040 C 
ATOM     41  H4  PRO d   1     -23.244  23.000  12.255  0.00  0.00     0.036 H 
ATOM     42  H5  PRO d   1     -22.132  21.837  13.054  0.00  0.00     0.036 H 
ATOM     43  CD  PRO d   1     -20.398  21.919  10.936  0.00  0.00     0.083 C 
ATOM     44  H6  PRO d   1     -22.341  20.974  10.833  0.00  0.00     0.035 H 
ATOM     45  H7  PRO d   1     -22.270  22.615  10.105  0.00  0.00     0.035 H 
ATOM     46  N   PRO d   1     -20.051  23.187  11.593  0.00  0.00    -0.062 N 
ATOM     47  H8  PRO d   1     -20.036  21.056  11.514  0.00  0.00     0.075 H 
ATOM     48  H9  PRO d   1     -19.992  21.873   9.915  0.00  0.00     0.075 H 
ATOM     49  H1  PRO d   1     -19.256  23.040  12.195  0.00  0.00     0.278 HD
ATOM     50  H2  PRO d   1     -19.819  23.870  10.890  0.00  0.00     0.278 HD
ATOM     51  H3  PRO d   1     -21.555  24.636  11.992  0.00  0.00     0.099 H 
ENDBRANCH  35  38
ENDBRANCH  32  34
BRANCH  32  52
ATOM     52  CB  ALA d   1     -19.520  26.949  15.585  0.00  0.00    -0.049 C 
ATOM     53  H12 ALA d   1     -19.180  27.207  16.599  0.00  0.00     0.030 H 
ATOM     54  H13 ALA d   1     -20.381  27.579  15.316  0.00  0.00     0.030 H 
ATOM     55  H14 ALA d   1     -18.703  27.120  14.869  0.00  0.00     0.030 H 
ENDBRANCH  32  52
ENDBRANCH  29  32
ENDBRANCH  26  28
BRANCH  26  56
ATOM     56  CB  THR d   1     -22.263  21.909  17.903  0.00  0.00     0.060 C 
ATOM     57  H17 THR d   1     -21.263  21.461  17.810  0.00  0.00     0.086 H 
BRANCH  56  58
ATOM     58  CG2 THR d   1     -22.913  21.399  19.178  0.00  0.00    -0.050 C 
ATOM     59  H19 THR d   1     -22.999  20.303  19.133  0.00  0.00     0.031 H 
ATOM     60  H20 THR d   1     -23.915  21.842  19.281  0.00  0.00     0.031 H 
ATOM     61  H21 THR d   1     -22.296  21.683  20.043  0.00  0.00     0.031 H 
ENDBRANCH  56  58
BRANCH  56  62
ATOM     62  OG1 THR d   1     -23.060  21.522  16.780  0.00  0.00    -0.393 OA
ATOM     63  H18 THR d   1     -22.655  21.840  15.981  0.00  0.00     0.210 HD
ENDBRANCH  56  62
ENDBRANCH  26  56
ENDBRANCH  23  26
ENDBRANCH  19  22
ENDBRANCH  16  19
ENDBRANCH  13  15
BRANCH  13  64
ATOM     64  CB  ASP d   1     -20.685  28.591  19.197  0.00  0.00     0.043 C 
ATOM     65  H27 ASP d   1     -21.006  29.624  19.398  0.00  0.00     0.052 H 
ATOM     66  H28 ASP d   1     -21.414  28.103  18.534  0.00  0.00     0.052 H 
BRANCH  64  67
ATOM     67  CG  ASP d   1     -19.333  28.630  18.490  0.00  0.00     0.175 C 
ATOM     68  OD1 ASP d   1     -18.409  27.891  18.905  0.00  0.00    -0.648 OA
ATOM     69  OD2 ASP d   1     -19.196  29.398  17.508  0.00  0.00    -0.648 OA
ENDBRANCH  64  67
ENDBRANCH  13  64
ENDBRANCH  10  13
ENDBRANCH   7   9
BRANCH   7  70
ATOM     70  CB  PHE d   1     -25.188  26.835  21.274  0.00  0.00    -0.014 C 
ATOM     71  H31 PHE d   1     -26.113  27.070  21.820  0.00  0.00     0.043 H 
ATOM     72  H32 PHE d   1     -25.179  25.767  21.011  0.00  0.00     0.043 H 
BRANCH  70  73
ATOM     73  CG  PHE d   1     -25.168  27.638  20.004  0.00  0.00    -0.056 A 
ATOM     74  CD1 PHE d   1     -24.211  27.387  19.024  0.00  0.00    -0.077 A 
ATOM     75  CE1 PHE d   1     -24.185  28.108  17.844  0.00  0.00    -0.082 A 
ATOM     76  H33 PHE d   1     -23.472  26.611  19.189  0.00  0.00     0.084 H 
ATOM     77  CZ  PHE d   1     -25.125  29.089  17.634  0.00  0.00    -0.083 A 
ATOM     78  H35 PHE d   1     -23.431  27.902  17.093  0.00  0.00     0.083 H 
ATOM     79  CE2 PHE d   1     -26.092  29.378  18.583  0.00  0.00    -0.082 A 
ATOM     80  H37 PHE d   1     -25.109  29.648  16.706  0.00  0.00     0.083 H 
ATOM     81  CD2 PHE d   1     -26.107  28.645  19.772  0.00  0.00    -0.077 A 
ATOM     82  H36 PHE d   1     -26.823  30.158  18.406  0.00  0.00     0.083 H 
ATOM     83  H34 PHE d   1     -26.857  28.861  20.524  0.00  0.00     0.084 H 
ENDBRANCH  70  73
ENDBRANCH   7  70
ENDBRANCH   4   7
ENDBRANCH   1   3
BRANCH   1  84
ATOM     84  CB  MET d   1     -24.249  26.622  26.818  0.00  0.00    -0.030 C 
ATOM     85  H40 MET d   1     -24.626  27.645  26.965  0.00  0.00     0.037 H 
ATOM     86  H41 MET d   1     -23.180  26.659  26.560  0.00  0.00     0.037 H 
BRANCH  84  87
ATOM     87  CG  MET d   1     -24.405  25.861  28.114  0.00  0.00    -0.021 C 
ATOM     88  H42 MET d   1     -24.021  24.840  27.973  0.00  0.00     0.049 H 
ATOM     89  H43 MET d   1     -25.473  25.818  28.372  0.00  0.00     0.049 H 
BRANCH  87  90
ATOM     90  SD  MET d   1     -23.521  26.625  29.458  0.00  0.00    -0.173 SA
BRANCH  90  91
ATOM     91  CE  MET d   1     -24.865  27.459  30.318  0.00  0.00    -0.035 C 
ATOM     92  H44 MET d   1     -24.466  27.990  31.195  0.00  0.00     0.041 H 
ATOM     93  H45 MET d   1     -25.608  26.716  30.645  0.00  0.00     0.041 H 
ATOM     94  H46 MET d   1     -25.343  28.181  29.639  0.00  0.00     0.041 H 
ENDBRANCH  90  91
ENDBRANCH  87  90
ENDBRANCH  84  87
ENDBRANCH   1  84
BRANCH   1  95
ATOM     95  C   MET d   1     -26.498  26.033  25.947  0.00  0.00     0.241 C 
ATOM     96  O   MET d   1     -27.143  27.080  25.785  0.00  0.00    -0.271 OA
ATOM     97  N   ASN d   1     -27.052  24.902  26.368  0.00  0.00    -0.346 N 
ATOM     98  H47 ASN d   1     -26.495  24.077  26.469  0.00  0.00     0.163 HD
BRANCH  97  99
ATOM     99  CA  ASN d   1     -28.467  24.868  26.680  0.00  0.00     0.097 C 
ATOM    100  H48 ASN d   1     -29.051  25.386  25.905  0.00  0.00     0.088 H 
BRANCH  99 101
ATOM    101  CB  ASN d   1     -28.960  23.428  26.814  0.00  0.00     0.036 C 
ATOM    102  H49 ASN d   1     -28.704  23.058  27.818  0.00  0.00     0.051 H 
ATOM    103  H50 ASN d   1     -28.457  22.810  26.056  0.00  0.00     0.051 H 
BRANCH 101 104
ATOM    104  CG  ASN d   1     -30.454  23.313  26.621  0.00  0.00     0.217 C 
ATOM    105  ND2 ASN d   1     -31.066  24.377  26.108  0.00  0.00    -0.370 N 
ATOM    106  H51 ASN d   1     -32.054  24.361  25.957  0.00  0.00     0.159 HD
ATOM    107  H52 ASN d   1     -30.538  25.193  25.873  0.00  0.00     0.159 HD
ATOM    108  OD1 ASN d   1     -31.056  22.280  26.920  0.00  0.00    -0.274 OA
ENDBRANCH 101 104
ENDBRANCH  99 101
BRANCH  99 109
ATOM    109  C   ASN d   1     -28.571  25.591  28.009  0.00  0.00     0.241 C 
ATOM    110  O   ASN d   1     -27.812  25.301  28.933  0.00  0.00    -0.271 OA
ATOM    111  N   MET d   1     -29.495  26.537  28.121  0.00  0.00    -0.346 N 
ATOM    112  H53 MET d   1     -30.102  26.751  27.356  0.00  0.00     0.163 HD
BRANCH 111 113
ATOM    113  CA  MET d   1     -29.605  27.254  29.379  0.00  0.00     0.090 C 
ATOM    114  H54 MET d   1     -29.605  26.493  30.173  0.00  0.00     0.087 H 
BRANCH 113 115
ATOM    115  CB  MET d   1     -28.377  28.146  29.574  0.00  0.00    -0.030 C 
ATOM    116  H55 MET d   1     -27.477  27.539  29.398  0.00  0.00     0.037 H 
ATOM    117  H56 MET d   1     -28.376  28.511  30.612  0.00  0.00     0.037 H 
BRANCH 115 118
ATOM    118  CG  MET d   1     -28.332  29.341  28.650  0.00  0.00    -0.021 C 
ATOM    119  H57 MET d   1     -29.239  29.944  28.799  0.00  0.00     0.049 H 
ATOM    120  H58 MET d   1     -28.294  28.988  27.609  0.00  0.00     0.049 H 
BRANCH 118 121
ATOM    121  SD  MET d   1     -26.895  30.358  28.975  0.00  0.00    -0.173 SA
BRANCH 121 122
ATOM    122  CE  MET d   1     -27.301  31.034  30.580  0.00  0.00    -0.035 C 
ATOM    123  H59 MET d   1     -26.488  31.695  30.916  0.00  0.00     0.041 H 
ATOM    124  H60 MET d   1     -27.428  30.214  31.302  0.00  0.00     0.041 H 
ATOM    125  H61 MET d   1     -28.236  31.609  30.510  0.00  0.00     0.041 H 
ENDBRANCH 121 122
ENDBRANCH 118 121
ENDBRANCH 115 118
ENDBRANCH 113 115
BRANCH 113 126
ATOM    126  C   MET d   1     -30.851  28.096  29.583  0.00  0.00     0.241 C 
ATOM    127  O   MET d   1     -31.646  28.327  28.665  0.00  0.00    -0.271 OA
ATOM    128  N   SER d   1     -30.990  28.547  30.824  0.00  0.00    -0.344 N 
ATOM    129  H62 SER d   1     -30.295  28.293  31.497  0.00  0.00     0.163 HD
BRANCH 128 130
ATOM    130  CA  SER d   1     -32.091  29.388  31.263  0.00  0.00     0.109 C 
ATOM    131  H63 SER d   1     -32.647  29.795  30.405  0.00  0.00     0.090 H 
BRANCH 130 132
ATOM    132  CB  SER d   1     -33.034  28.568  32.152  0.00  0.00     0.044 C 
ATOM    133  H64 SER d   1     -32.691  28.635  33.195  0.00  0.00     0.077 H 
ATOM    134  H65 SER d   1     -33.010  27.518  31.825  0.00  0.00     0.077 H 
BRANCH 132 135
ATOM    135  OG  SER d   1     -34.364  29.043  32.075  0.00  0.00    -0.398 OA
ATOM    136  H66 SER d   1     -34.920  28.515  32.636  0.00  0.00     0.209 HD
ENDBRANCH 132 135
ENDBRANCH 130 132
BRANCH 130 137
ATOM    137  C   SER d   1     -31.415  30.516  32.062  0.00  0.00     0.245 C 
ATOM    138  O   SER d   1     -30.382  30.293  32.704  0.00  0.00    -0.271 OA
ATOM    139  N   PRO d   1     -31.968  31.743  32.018  0.00  0.00    -0.337 N 
ATOM    140  CA  PRO d   1     -31.350  32.850  32.765  0.00  0.00     0.091 C 
ATOM    141  CD  PRO d   1     -33.208  32.179  31.355  0.00  0.00    -0.001 C 
ATOM    142  CB  PRO d   1     -32.351  34.000  32.584  0.00  0.00    -0.036 C 
ATOM    143  H67 PRO d   1     -30.399  33.117  32.282  0.00  0.00     0.087 H 
ATOM    144  CG  PRO d   1     -33.649  33.304  32.250  0.00  0.00    -0.048 C 
ATOM    145  H68 PRO d   1     -32.041  34.663  31.763  0.00  0.00     0.036 H 
ATOM    146  H69 PRO d   1     -32.448  34.584  33.511  0.00  0.00     0.036 H 
ATOM    147  H70 PRO d   1     -34.136  32.919  33.158  0.00  0.00     0.035 H 
ATOM    148  H71 PRO d   1     -34.337  33.982  31.724  0.00  0.00     0.035 H 
ATOM    149  H72 PRO d   1     -33.954  31.371  31.328  0.00  0.00     0.064 H 
ATOM    150  H73 PRO d   1     -33.013  32.533  30.332  0.00  0.00     0.064 H 
BRANCH 140 151
ATOM    151  C   PRO d   1     -31.034  32.548  34.241  0.00  0.00     0.241 C 
ATOM    152  O   PRO d   1     -31.920  32.211  35.031  0.00  0.00    -0.271 OA
ATOM    153  N   VAL d   1     -29.754  32.676  34.590  0.00  0.00    -0.346 N 
ATOM    154  H74 VAL d   1     -29.097  32.964  33.893  0.00  0.00     0.163 HD
BRANCH 153 155
ATOM    155  CA  VAL d   1     -29.263  32.415  35.944  0.00  0.00     0.092 C 
ATOM    156  H75 VAL d   1     -29.518  31.375  36.195  0.00  0.00     0.088 H 
BRANCH 155 157
ATOM    157  CB  VAL d   1     -27.719  32.568  36.002  0.00  0.00    -0.033 C 
ATOM    158  H76 VAL d   1     -27.460  33.623  35.826  0.00  0.00     0.042 H 
BRANCH 157 159
ATOM    159  CG2 VAL d   1     -27.073  31.716  34.913  0.00  0.00    -0.071 C 
ATOM    160  H80 VAL d   1     -27.459  32.023  33.930  0.00  0.00     0.028 H 
ATOM    161  H81 VAL d   1     -27.312  30.656  35.086  0.00  0.00     0.028 H 
ATOM    162  H82 VAL d   1     -25.982  31.855  34.938  0.00  0.00     0.028 H 
ENDBRANCH 157 159
BRANCH 157 163
ATOM    163  CG1 VAL d   1     -27.199  32.161  37.376  0.00  0.00    -0.071 C 
ATOM    164  H77 VAL d   1     -26.105  32.274  37.402  0.00  0.00     0.028 H 
ATOM    165  H78 VAL d   1     -27.464  31.111  37.572  0.00  0.00     0.028 H 
ATOM    166  H79 VAL d   1     -27.653  32.803  38.145  0.00  0.00     0.028 H 
ENDBRANCH 157 163
ENDBRANCH 155 157
BRANCH 155 167
ATOM    167  C   VAL d   1     -29.897  33.322  37.004  0.00  0.00     0.241 C 
ATOM    168  O   VAL d   1     -30.418  32.837  38.010  0.00  0.00    -0.271 OA
ATOM    169  N   GLY d   1     -29.842  34.633  36.773  0.00  0.00    -0.353 N 
ATOM    170  H83 GLY d   1     -29.391  34.963  35.944  0.00  0.00     0.162 HD
BRANCH 169 171
ATOM    171  CA  GLY d   1     -30.420  35.597  37.695  0.00  0.00     0.043 C 
ATOM    172  H84 GLY d   1     -31.454  35.793  37.376  0.00  0.00     0.074 H 
ATOM    173  H85 GLY d   1     -29.833  36.525  37.627  0.00  0.00     0.074 H 
BRANCH 171 174
ATOM    174  C   GLY d   1     -30.453  35.171  39.149  0.00  0.00     0.105 C 
ATOM    175  O   GLY d   1     -29.521  35.444  39.907  0.00  0.00    -0.305 OA
ATOM    176  H86 GLY d   1     -31.311  34.617  39.528  0.00  0.00     0.145 H 
ENDBRANCH 171 174
ENDBRANCH 169 171
ENDBRANCH 155 167
ENDBRANCH 153 155
ENDBRANCH 140 151
ENDBRANCH 130 137
ENDBRANCH 128 130
ENDBRANCH 113 126
ENDBRANCH 111 113
ENDBRANCH  99 109
ENDBRANCH  97  99
ENDBRANCH   1  95
TORSDOF 47
