REMARK  23 active torsions:
REMARK  status: ('A' for Active; 'I' for Inactive)
REMARK    1  A    between atoms: N4B_18  and  C1A_1 
REMARK    2  A    between atoms: C2A_2  and  O2A_8 
REMARK    3  A    between atoms: C3A_3  and  O3A_9 
REMARK    4  A    between atoms: C4A_4  and  O4A_10 
REMARK    5  A    between atoms: C5A_5  and  C6A_6 
REMARK    6  A    between atoms: C6A_6  and  O6A_11 
REMARK    7  A    between atoms: O4C_30  and  C1B_12 
REMARK    8  A    between atoms: C2B_13  and  O2B_19 
REMARK    9  A    between atoms: C3B_14  and  O3B_20 
REMARK   10  A    between atoms: C4B_15  and  N4B_18 
REMARK   11  A    between atoms: C5B_16  and  C6B_17 
REMARK   12  A    between atoms: O4D_42  and  C1C_22 
REMARK   13  A    between atoms: C2C_23  and  O2C_28 
REMARK   14  A    between atoms: C3C_24  and  O3C_29 
REMARK   15  A    between atoms: C4C_25  and  O4C_30 
REMARK   16  A    between atoms: C5C_26  and  C6C_27 
REMARK   17  A    between atoms: C6C_27  and  O6C_32 
REMARK   18  A    between atoms: C1D_33  and  O1D_39 
REMARK   19  A    between atoms: C2D_34  and  O2D_40 
REMARK   20  A    between atoms: C3D_35  and  O3D_41 
REMARK   21  A    between atoms: C4D_36  and  O4D_42 
REMARK   22  A    between atoms: C5D_37  and  C6D_38 
REMARK   23  A    between atoms: C6D_38  and  O6D_44 
ROOT
ATOM      1  C1B ACR d   1      31.707  18.140   3.502  0.00  0.00     0.159 C 
ATOM      2  C2B ACR d   1      33.184  18.494   3.769  0.00  0.00     0.110 C 
ATOM      3  C3B ACR d   1      33.505  18.306   5.263  0.00  0.00     0.094 C 
ATOM      4  C4B ACR d   1      32.575  19.233   6.059  0.00  0.00     0.154 C 
ATOM      5  C5B ACR d   1      31.130  18.800   5.771  0.00  0.00     0.068 C 
ATOM      6  O5B ACR d   1      30.837  18.870   4.356  0.00  0.00    -0.351 OA
ATOM      7  H12 ACR d   1      31.450  18.360   2.455  0.00  0.00     0.133 H 
ATOM      8  H13 ACR d   1      33.362  19.542   3.487  0.00  0.00     0.094 H 
ATOM      9  H14 ACR d   1      33.308  17.263   5.551  0.00  0.00     0.090 H 
ATOM     10  H15 ACR d   1      32.724  20.271   5.726  0.00  0.00     0.092 H 
ATOM     11  H16 ACR d   1      31.011  17.762   6.115  0.00  0.00     0.086 H 
ENDROOT
BRANCH   1  12
ATOM     12  O4C ACR d   1      31.600  16.759   3.747  0.00  0.00    -0.348 OA
BRANCH  12  13
ATOM     13  C4C ACR d   1      30.673  15.918   3.025  0.00  0.00     0.096 C 
ATOM     14  C3C ACR d   1      30.983  15.961   1.512  0.00  0.00     0.092 C 
ATOM     15  C2C ACR d   1      30.323  14.802   0.749  0.00  0.00     0.110 C 
ATOM     16  H26 ACR d   1      32.073  15.897   1.377  0.00  0.00     0.091 H 
ATOM     17  C1C ACR d   1      30.629  13.484   1.432  0.00  0.00     0.159 C 
ATOM     18  H25 ACR d   1      29.234  14.956   0.722  0.00  0.00     0.094 H 
ATOM     19  O5C ACR d   1      30.147  13.539   2.761  0.00  0.00    -0.348 OA
ATOM     20  H24 ACR d   1      30.134  12.659   0.899  0.00  0.00     0.133 H 
ATOM     21  C5C ACR d   1      30.844  14.501   3.580  0.00  0.00     0.089 C 
ATOM     22  H28 ACR d   1      31.919  14.266   3.559  0.00  0.00     0.090 H 
ATOM     23  H27 ACR d   1      29.642  16.263   3.192  0.00  0.00     0.091 H 
BRANCH  14  24
ATOM     24  O3C ACR d   1      30.515  17.184   0.966  0.00  0.00    -0.390 OA
ATOM     25  H32 ACR d   1      30.707  17.208   0.036  0.00  0.00     0.210 HD
ENDBRANCH  14  24
BRANCH  15  26
ATOM     26  O2C ACR d   1      30.833  14.767  -0.578  0.00  0.00    -0.388 OA
ATOM     27  H31 ACR d   1      31.774  14.638  -0.551  0.00  0.00     0.210 HD
ENDBRANCH  15  26
BRANCH  17  28
ATOM     28  O4D ACR d   1      32.018  13.299   1.396  0.00  0.00    -0.348 OA
BRANCH  28  29
ATOM     29  C4D ACR d   1      32.517  12.035   0.923  0.00  0.00     0.096 C 
ATOM     30  C3D ACR d   1      33.449  12.279  -0.261  0.00  0.00     0.092 C 
ATOM     31  C2D ACR d   1      34.113  10.972  -0.685  0.00  0.00     0.110 C 
ATOM     32  H36 ACR d   1      34.230  12.991   0.043  0.00  0.00     0.091 H 
ATOM     33  C1D ACR d   1      34.833  10.367   0.522  0.00  0.00     0.156 C 
ATOM     34  H35 ACR d   1      33.349  10.270  -1.050  0.00  0.00     0.094 H 
ATOM     35  O5D ACR d   1      33.900  10.134   1.589  0.00  0.00    -0.349 OA
ATOM     36  H34 ACR d   1      35.307   9.418   0.230  0.00  0.00     0.133 H 
ATOM     37  C5D ACR d   1      33.274  11.349   2.059  0.00  0.00     0.089 C 
ATOM     38  H38 ACR d   1      34.041  12.037   2.443  0.00  0.00     0.090 H 
ATOM     39  H37 ACR d   1      31.678  11.400   0.604  0.00  0.00     0.091 H 
BRANCH  30  40
ATOM     40  O3D ACR d   1      32.719  12.835  -1.346  0.00  0.00    -0.390 OA
ATOM     41  H43 ACR d   1      32.332  13.660  -1.076  0.00  0.00     0.210 HD
ENDBRANCH  30  40
BRANCH  31  42
ATOM     42  O2D ACR d   1      35.054  11.229  -1.717  0.00  0.00    -0.388 OA
ATOM     43  H42 ACR d   1      35.716  11.831  -1.398  0.00  0.00     0.210 HD
ENDBRANCH  31  42
BRANCH  33  44
ATOM     44  O1D ACR d   1      35.796  11.258   0.973  0.00  0.00    -0.369 OA
ATOM     45  H41 ACR d   1      36.244  10.885   1.723  0.00  0.00     0.212 HD
ENDBRANCH  33  44
BRANCH  37  46
ATOM     46  C6D ACR d   1      32.335  10.959   3.181  0.00  0.00     0.043 C 
ATOM     47  H39 ACR d   1      31.794  11.852   3.526  0.00  0.00     0.078 H 
ATOM     48  H40 ACR d   1      32.921  10.541   4.013  0.00  0.00     0.078 H 
BRANCH  46  49
ATOM     49  O6D ACR d   1      31.397   9.988   2.737  0.00  0.00    -0.398 OA
ATOM     50  H44 ACR d   1      31.861   9.213   2.441  0.00  0.00     0.209 HD
ENDBRANCH  46  49
ENDBRANCH  37  46
ENDBRANCH  28  29
ENDBRANCH  17  28
BRANCH  21  51
ATOM     51  C6C ACR d   1      30.357  14.339   5.007  0.00  0.00     0.043 C 
ATOM     52  H29 ACR d   1      29.259  14.272   5.007  0.00  0.00     0.078 H 
ATOM     53  H30 ACR d   1      30.671  15.213   5.596  0.00  0.00     0.078 H 
BRANCH  51  54
ATOM     54  O6C ACR d   1      30.894  13.166   5.596  0.00  0.00    -0.398 OA
ATOM     55  H33 ACR d   1      31.842  13.221   5.601  0.00  0.00     0.209 HD
ENDBRANCH  51  54
ENDBRANCH  21  51
ENDBRANCH  12  13
ENDBRANCH   1  12
BRANCH   2  56
ATOM     56  O2B ACR d   1      34.030  17.649   2.998  0.00  0.00    -0.388 OA
ATOM     57  H22 ACR d   1      34.938  17.878   3.161  0.00  0.00     0.210 HD
ENDBRANCH   2  56
BRANCH   3  58
ATOM     58  O3B ACR d   1      34.884  18.596   5.513  0.00  0.00    -0.391 OA
ATOM     59  H23 ACR d   1      35.068  18.482   6.438  0.00  0.00     0.210 HD
ENDBRANCH   3  58
BRANCH   5  60
ATOM     60  C6B ACR d   1      30.106  19.667   6.466  0.00  0.00    -0.050 C 
ATOM     61  H17 ACR d   1      29.095  19.308   6.222  0.00  0.00     0.031 H 
ATOM     62  H18 ACR d   1      30.217  20.708   6.128  0.00  0.00     0.031 H 
ATOM     63  H19 ACR d   1      30.260  19.616   7.554  0.00  0.00     0.031 H 
ENDBRANCH   5  60
BRANCH   4  64
ATOM     64  N4B ACR d   1      32.842  19.153   7.504  0.00  0.00    -0.056 N 
ATOM     65  H20 ACR d   1      32.053  18.707   7.944  0.00  0.00     0.278 HD
ATOM     66  H21 ACR d   1      33.666  18.588   7.639  0.00  0.00     0.278 HD
BRANCH  64  67
ATOM     67  C1A ACR d   1      33.063  20.452   8.167  0.00  0.00     0.146 C 
ATOM     68  C2A ACR d   1      34.296  20.343   9.083  0.00  0.00     0.093 C 
ATOM     69  C3A ACR d   1      33.948  19.545  10.351  0.00  0.00     0.091 C 
ATOM     70  H2  ACR d   1      34.605  21.353   9.391  0.00  0.00     0.090 H 
ATOM     71  C4A ACR d   1      32.878  20.274  11.181  0.00  0.00     0.086 C 
ATOM     72  H3  ACR d   1      33.554  18.565  10.042  0.00  0.00     0.091 H 
ATOM     73  C5A ACR d   1      31.739  20.786  10.312  0.00  0.00    -0.027 C 
ATOM     74  H4  ACR d   1      33.335  21.143  11.677  0.00  0.00     0.094 H 
ATOM     75  C7A ACR d   1      31.825  20.816   8.952  0.00  0.00    -0.064 C 
ATOM     76  H7  ACR d   1      30.942  21.123   8.394  0.00  0.00     0.080 H 
ATOM     77  H1  ACR d   1      33.247  21.226   7.407  0.00  0.00     0.095 H 
BRANCH  68  78
ATOM     78  O2A ACR d   1      35.342  19.765   8.332  0.00  0.00    -0.390 OA
ATOM     79  H8  ACR d   1      36.126  19.718   8.867  0.00  0.00     0.210 HD
ENDBRANCH  68  78
BRANCH  69  80
ATOM     80  O3A ACR d   1      35.074  19.341  11.171  0.00  0.00    -0.390 OA
ATOM     81  H9  ACR d   1      35.748  18.891  10.675  0.00  0.00     0.210 HD
ENDBRANCH  69  80
BRANCH  71  82
ATOM     82  O4A ACR d   1      32.466  19.339  12.179  0.00  0.00    -0.388 OA
ATOM     83  H10 ACR d   1      31.834  19.751  12.756  0.00  0.00     0.210 HD
ENDBRANCH  71  82
BRANCH  73  84
ATOM     84  C6A ACR d   1      30.568  21.460  10.994  0.00  0.00     0.039 C 
ATOM     85  H5  ACR d   1      30.220  20.838  11.832  0.00  0.00     0.081 H 
ATOM     86  H6  ACR d   1      29.748  21.595  10.273  0.00  0.00     0.081 H 
BRANCH  84  87
ATOM     87  O6A ACR d   1      30.989  22.733  11.485  0.00  0.00    -0.397 OA
ATOM     88  H11 ACR d   1      31.698  22.613  12.106  0.00  0.00     0.209 HD
ENDBRANCH  84  87
ENDBRANCH  73  84
ENDBRANCH  64  67
ENDBRANCH   4  64
TORSDOF 23
