REMARK WARNING: 32 MAX_TORS EXCEEDED!!!
REMARK  34 active torsions:
REMARK  status: ('A' for Active; 'I' for Inactive)
REMARK    1  A    between atoms: C_1  and  CH3_3 
REMARK       I    between atoms: C_1  and  N_7 
REMARK    2  A    between atoms: N_7  and  CA_8 
REMARK    3  A    between atoms: CA_8  and  C_9 
REMARK    4  A    between atoms: CA_8  and  CB_11 
REMARK       I    between atoms: C_9  and  N_23 
REMARK    5  A    between atoms: CB_11  and  CG1_12 
REMARK    6  A    between atoms: CB_11  and  CG2_13 
REMARK    7  A    between atoms: CA_24  and  C_25 
REMARK       I    between atoms: C_25  and  N_37 
REMARK    8  A    between atoms: CA_38  and  C_39 
REMARK       I    between atoms: C_39  and  N_51 
REMARK    9  A    between atoms: CA_52  and  C_53 
REMARK       I    between atoms: C_53  and  N_65 
REMARK   10  A    between atoms: N_65  and  CA_66 
REMARK   11  A    between atoms: CA_66  and  C_67 
REMARK   12  A    between atoms: CA_66  and  CB_69 
REMARK       I    between atoms: C_67  and  N_81 
REMARK   13  A    between atoms: CB_69  and  CG1_70 
REMARK   14  A    between atoms: CB_69  and  CG2_71 
REMARK   15  A    between atoms: CA_82  and  C_83 
REMARK       I    between atoms: C_83  and  N_95 
REMARK   16  A    between atoms: CA_96  and  C_97 
REMARK       I    between atoms: C_97  and  N_109 
REMARK   17  A    between atoms: N_109  and  CA_110 
REMARK   18  A    between atoms: CA_110  and  C_111 
REMARK   19  A    between atoms: CA_110  and  CB_113 
REMARK       I    between atoms: C_111  and  N_133 
REMARK   20  A    between atoms: CB_113  and  CG_114 
REMARK   21  A    between atoms: CG_114  and  CD_115 
REMARK   22  A    between atoms: CD_115  and  NE_116 
REMARK       I    between atoms: NE_116  and  CZ_117 
REMARK       I    between atoms: CZ_117  and  NH1_118 
REMARK       I    between atoms: CZ_117  and  NH2_119 
REMARK   23  A    between atoms: N_133  and  CA_134 
REMARK   24  A    between atoms: CA_134  and  C_135 
REMARK   25  A    between atoms: CA_134  and  CB_137 
REMARK       I    between atoms: C_135  and  N_157 
REMARK   26  A    between atoms: CB_137  and  CG_138 
REMARK   27  A    between atoms: CG_138  and  CD_139 
REMARK   28  A    between atoms: CD_139  and  NE_140 
REMARK       I    between atoms: NE_140  and  CZ_141 
REMARK       I    between atoms: CZ_141  and  NH1_142 
REMARK       I    between atoms: CZ_141  and  NH2_143 
REMARK   29  A    between atoms: N_157  and  CA_158 
REMARK   30  A    between atoms: CA_158  and  C_159 
REMARK   31  A    between atoms: CA_158  and  CB_161 
REMARK       I    between atoms: C_159  and  N_181 
REMARK   32  A    between atoms: CB_161  and  CG_162 
REMARK   33  A    between atoms: CG_162  and  CD_163 
REMARK   34  A    between atoms: CD_163  and  NE_164 
REMARK       I    between atoms: NE_164  and  CZ_165 
REMARK       I    between atoms: CZ_165  and  NH1_166 
ROOT
ATOM      1  C   VAL d   1     -12.032  -6.858   2.455  0.00  0.00     0.243 C 
ATOM      2  O   VAL d   1     -13.202  -7.153   2.662  0.00  0.00    -0.271 OA
ATOM      3  N   PRO d   1     -11.215  -6.337   3.414  0.00  0.00    -0.337 N 
ATOM      4  CA  PRO d   1     -11.710  -6.075   4.769  0.00  0.00     0.092 C 
ATOM      5  CB  PRO d   1     -10.485  -5.511   5.512  0.00  0.00    -0.036 C 
ATOM      6  CG  PRO d   1      -9.257  -5.867   4.676  0.00  0.00    -0.048 C 
ATOM      7  CD  PRO d   1      -9.778  -6.075   3.255  0.00  0.00    -0.001 C 
ATOM      8  H43 PRO d   1     -12.062  -7.010   5.228  0.00  0.00     0.087 H 
ATOM      9  H44 PRO d   1     -10.407  -5.964   6.511  0.00  0.00     0.036 H 
ATOM     10  H45 PRO d   1     -10.572  -4.419   5.611  0.00  0.00     0.036 H 
ATOM     11  H46 PRO d   1      -8.789  -6.788   5.053  0.00  0.00     0.035 H 
ATOM     12  H47 PRO d   1      -8.524  -5.047   4.701  0.00  0.00     0.035 H 
ATOM     13  H48 PRO d   1      -9.614  -5.173   2.647  0.00  0.00     0.064 H 
ATOM     14  H49 PRO d   1      -9.278  -6.933   2.781  0.00  0.00     0.064 H 
ENDROOT
BRANCH   4  15
ATOM     15  C   PRO d   1     -12.836  -5.012   4.843  0.00  0.00     0.243 C 
ATOM     16  O   PRO d   1     -12.978  -4.175   3.962  0.00  0.00    -0.271 OA
ATOM     17  N   PRO d   1     -13.643  -5.065   5.939  0.00  0.00    -0.337 N 
ATOM     18  CA  PRO d   1     -14.690  -4.065   6.158  0.00  0.00     0.091 C 
ATOM     19  CD  PRO d   1     -13.610  -6.110   6.958  0.00  0.00    -0.001 C 
ATOM     20  CB  PRO d   1     -15.556  -4.690   7.258  0.00  0.00    -0.036 C 
ATOM     21  H50 PRO d   1     -15.275  -3.867   5.248  0.00  0.00     0.087 H 
ATOM     22  CG  PRO d   1     -14.615  -5.640   8.011  0.00  0.00    -0.048 C 
ATOM     23  H51 PRO d   1     -16.397  -5.247   6.819  0.00  0.00     0.036 H 
ATOM     24  H52 PRO d   1     -15.943  -3.913   7.934  0.00  0.00     0.036 H 
ATOM     25  H53 PRO d   1     -15.174  -6.494   8.422  0.00  0.00     0.035 H 
ATOM     26  H54 PRO d   1     -14.102  -5.111   8.827  0.00  0.00     0.035 H 
ATOM     27  H55 PRO d   1     -12.603  -6.200   7.392  0.00  0.00     0.064 H 
ATOM     28  H56 PRO d   1     -13.914  -7.078   6.534  0.00  0.00     0.064 H 
BRANCH  18  29
ATOM     29  C   PRO d   1     -14.000  -2.775   6.657  0.00  0.00     0.241 C 
ATOM     30  O   PRO d   1     -13.428  -2.748   7.741  0.00  0.00    -0.271 OA
ATOM     31  N   ARG d   1     -14.084  -1.724   5.810  0.00  0.00    -0.346 N 
ATOM     32  H57 ARG d   1     -14.606  -1.817   4.962  0.00  0.00     0.163 HD
BRANCH  31  33
ATOM     33  CA  ARG d   1     -13.423  -0.450   6.113  0.00  0.00     0.089 C 
ATOM     34  H58 ARG d   1     -12.589  -0.689   6.789  0.00  0.00     0.087 H 
BRANCH  33  35
ATOM     35  C   ARG d   1     -14.306   0.525   6.915  0.00  0.00     0.241 C 
ATOM     36  O   ARG d   1     -14.728   1.581   6.464  0.00  0.00    -0.271 OA
ATOM     37  N   ARG d   1     -14.538   0.063   8.158  0.00  0.00    -0.346 N 
ATOM     38  H70 ARG d   1     -14.157  -0.827   8.410  0.00  0.00     0.163 HD
BRANCH  37  39
ATOM     39  CA  ARG d   1     -15.314   0.788   9.156  0.00  0.00     0.089 C 
ATOM     40  H71 ARG d   1     -15.042   1.853   9.115  0.00  0.00     0.087 H 
BRANCH  39  41
ATOM     41  C   ARG d   1     -14.933   0.211  10.529  0.00  0.00     0.241 C 
ATOM     42  O   ARG d   1     -15.294  -0.906  10.876  0.00  0.00    -0.271 OA
ATOM     43  N   ARG d   1     -14.189   1.051  11.275  0.00  0.00    -0.346 N 
ATOM     44  H83 ARG d   1     -13.941   1.946  10.904  0.00  0.00     0.163 HD
BRANCH  43  45
ATOM     45  CA  ARG d   1     -13.737   0.683  12.614  0.00  0.00     0.089 C 
ATOM     46  H84 ARG d   1     -13.523  -0.396  12.630  0.00  0.00     0.087 H 
BRANCH  45  47
ATOM     47  C   ARG d   1     -14.839   0.979  13.660  0.00  0.00     0.238 C 
ATOM     48  O   ARG d   1     -15.027   0.205  14.588  0.00  0.00    -0.271 OA
ATOM     49  N   NH2 d   1     -15.577   2.095  13.462  0.00  0.00    -0.368 N 
ATOM     50  H96 NH2 d   1     -16.303   2.335  14.107  0.00  0.00     0.159 HD
ATOM     51  H97 NH2 d   1     -15.397   2.680  12.671  0.00  0.00     0.159 HD
ENDBRANCH  45  47
BRANCH  45  52
ATOM     52  CB  ARG d   1     -12.445   1.445  12.949  0.00  0.00    -0.036 C 
ATOM     53  H85 ARG d   1     -12.140   1.182  13.973  0.00  0.00     0.036 H 
ATOM     54  H86 ARG d   1     -12.652   2.524  12.894  0.00  0.00     0.036 H 
BRANCH  52  55
ATOM     55  CG  ARG d   1     -11.281   1.123  11.996  0.00  0.00    -0.048 C 
ATOM     56  H87 ARG d   1     -10.398   1.689  12.327  0.00  0.00     0.035 H 
ATOM     57  H88 ARG d   1     -11.565   1.446  10.984  0.00  0.00     0.035 H 
BRANCH  55  58
ATOM     58  CD  ARG d   1     -10.904  -0.371  11.938  0.00  0.00     0.009 C 
ATOM     59  H89 ARG d   1      -9.946  -0.479  11.409  0.00  0.00     0.064 H 
ATOM     60  H90 ARG d   1     -11.688  -0.918  11.393  0.00  0.00     0.064 H 
BRANCH  58  61
ATOM     61  NE  ARG d   1     -10.774  -0.934  13.280  0.00  0.00    -0.227 N 
ATOM     62  CZ  ARG d   1      -9.734  -0.640  14.087  0.00  0.00     0.665 C 
ATOM     63  NH1 ARG d   1      -8.753   0.144  13.673  0.00  0.00    -0.235 N 
ATOM     64  NH2 ARG d   1      -9.690  -1.140  15.313  0.00  0.00    -0.235 N 
ATOM     65  H92 ARG d   1      -7.966   0.359  14.301  0.00  0.00     0.174 HD
ATOM     66  H93 ARG d   1      -8.776   0.540  12.722  0.00  0.00     0.174 HD
ATOM     67  H94 ARG d   1     -10.448  -1.752  15.647  0.00  0.00     0.174 HD
ATOM     68  H95 ARG d   1      -8.898  -0.917  15.932  0.00  0.00     0.174 HD
ATOM     69  H91 ARG d   1     -11.502  -1.578  13.622  0.00  0.00     0.177 HD
ENDBRANCH  58  61
ENDBRANCH  55  58
ENDBRANCH  52  55
ENDBRANCH  45  52
ENDBRANCH  43  45
ENDBRANCH  39  41
BRANCH  39  70
ATOM     70  CB  ARG d   1     -16.835   0.666   8.940  0.00  0.00    -0.036 C 
ATOM     71  H72 ARG d   1     -17.340   0.960   9.872  0.00  0.00     0.036 H 
ATOM     72  H73 ARG d   1     -17.067  -0.385   8.713  0.00  0.00     0.036 H 
BRANCH  70  73
ATOM     73  CG  ARG d   1     -17.387   1.538   7.798  0.00  0.00    -0.048 C 
ATOM     74  H74 ARG d   1     -17.110   1.081   6.837  0.00  0.00     0.035 H 
ATOM     75  H75 ARG d   1     -16.940   2.541   7.870  0.00  0.00     0.035 H 
BRANCH  73  76
ATOM     76  CD  ARG d   1     -18.913   1.672   7.859  0.00  0.00     0.009 C 
ATOM     77  H76 ARG d   1     -19.368   0.673   7.933  0.00  0.00     0.064 H 
ATOM     78  H77 ARG d   1     -19.275   2.174   6.949  0.00  0.00     0.064 H 
BRANCH  76  79
ATOM     79  NE  ARG d   1     -19.277   2.461   9.029  0.00  0.00    -0.227 N 
ATOM     80  CZ  ARG d   1     -20.507   2.462   9.579  0.00  0.00     0.665 C 
ATOM     81  NH1 ARG d   1     -21.504   1.779   9.033  0.00  0.00    -0.235 N 
ATOM     82  NH2 ARG d   1     -20.712   3.159  10.688  0.00  0.00    -0.235 N 
ATOM     83  H79 ARG d   1     -22.437   1.793   9.469  0.00  0.00     0.174 HD
ATOM     84  H80 ARG d   1     -21.345   1.235   8.173  0.00  0.00     0.174 HD
ATOM     85  H81 ARG d   1     -19.938   3.690  11.113  0.00  0.00     0.174 HD
ATOM     86  H82 ARG d   1     -21.645   3.170  11.125  0.00  0.00     0.174 HD
ATOM     87  H78 ARG d   1     -18.552   3.052   9.460  0.00  0.00     0.177 HD
ENDBRANCH  76  79
ENDBRANCH  73  76
ENDBRANCH  70  73
ENDBRANCH  39  70
ENDBRANCH  37  39
ENDBRANCH  33  35
BRANCH  33  88
ATOM     88  CB  ARG d   1     -12.770   0.088   4.828  0.00  0.00    -0.036 C 
ATOM     89  H59 ARG d   1     -12.427  -0.786   4.255  0.00  0.00     0.036 H 
ATOM     90  H60 ARG d   1     -11.901   0.686   5.139  0.00  0.00     0.036 H 
BRANCH  88  91
ATOM     91  CG  ARG d   1     -13.588   0.959   3.864  0.00  0.00    -0.048 C 
ATOM     92  H61 ARG d   1     -14.656   0.834   4.096  0.00  0.00     0.035 H 
ATOM     93  H62 ARG d   1     -13.395   0.623   2.835  0.00  0.00     0.035 H 
BRANCH  91  94
ATOM     94  CD  ARG d   1     -13.232   2.447   3.971  0.00  0.00     0.009 C 
ATOM     95  H63 ARG d   1     -12.172   2.580   3.709  0.00  0.00     0.064 H 
ATOM     96  H64 ARG d   1     -13.399   2.781   5.006  0.00  0.00     0.064 H 
BRANCH  94  97
ATOM     97  NE  ARG d   1     -14.047   3.258   3.075  0.00  0.00    -0.227 N 
ATOM     98  CZ  ARG d   1     -15.272   3.719   3.404  0.00  0.00     0.665 C 
ATOM     99  NH1 ARG d   1     -15.850   3.382   4.550  0.00  0.00    -0.235 N 
ATOM    100  NH2 ARG d   1     -15.906   4.529   2.569  0.00  0.00    -0.235 N 
ATOM    101  H66 ARG d   1     -16.786   3.745   4.781  0.00  0.00     0.174 HD
ATOM    102  H67 ARG d   1     -15.363   2.757   5.208  0.00  0.00     0.174 HD
ATOM    103  H68 ARG d   1     -15.466   4.796   1.677  0.00  0.00     0.174 HD
ATOM    104  H69 ARG d   1     -16.839   4.891   2.812  0.00  0.00     0.174 HD
ATOM    105  H65 ARG d   1     -13.669   3.491   2.145  0.00  0.00     0.177 HD
ENDBRANCH  94  97
ENDBRANCH  91  94
ENDBRANCH  88  91
ENDBRANCH  33  88
ENDBRANCH  31  33
ENDBRANCH  18  29
ENDBRANCH   4  15
BRANCH   1 106
ATOM    106  CA  VAL d   1     -11.414  -7.067   1.049  0.00  0.00     0.092 C 
ATOM    107  H35 VAL d   1     -10.321  -7.104   1.168  0.00  0.00     0.088 H 
BRANCH 106 108
ATOM    108  N   VAL d   1     -11.838  -8.310   0.444  0.00  0.00    -0.346 N 
ATOM    109  C   PRO d   1     -11.435  -9.491   0.921  0.00  0.00     0.241 C 
ATOM    110  O   PRO d   1     -10.710  -9.653   1.896  0.00  0.00    -0.271 OA
ATOM    111  H34 VAL d   1     -12.447  -8.285  -0.349  0.00  0.00     0.163 HD
BRANCH 109 112
ATOM    112  CA  PRO d   1     -11.949 -10.654   0.067  0.00  0.00     0.091 C 
ATOM    113  N   PRO d   1     -10.761 -11.392  -0.364  0.00  0.00    -0.337 N 
ATOM    114  C   PRO d   1      -9.996 -10.992  -1.423  0.00  0.00     0.243 C 
ATOM    115  CD  PRO d   1     -10.546 -12.618   0.403  0.00  0.00    -0.001 C 
ATOM    116  O   PRO d   1     -10.286 -10.038  -2.128  0.00  0.00    -0.271 OA
ATOM    117  CG  PRO d   1     -11.645 -12.606   1.469  0.00  0.00    -0.048 C 
ATOM    118  H32 PRO d   1      -9.551 -12.613   0.872  0.00  0.00     0.064 H 
ATOM    119  H33 PRO d   1     -10.643 -13.502  -0.244  0.00  0.00     0.064 H 
ATOM    120  CB  PRO d   1     -12.722 -11.666   0.915  0.00  0.00    -0.036 C 
ATOM    121  H30 PRO d   1     -12.052 -13.617   1.616  0.00  0.00     0.035 H 
ATOM    122  H31 PRO d   1     -11.254 -12.226   2.424  0.00  0.00     0.035 H 
ATOM    123  H28 PRO d   1     -13.442 -12.222   0.297  0.00  0.00     0.036 H 
ATOM    124  H29 PRO d   1     -13.255 -11.160   1.734  0.00  0.00     0.036 H 
ATOM    125  H27 PRO d   1     -12.552 -10.290  -0.778  0.00  0.00     0.087 H 
BRANCH 114 126
ATOM    126  CA  PRO d   1      -8.709 -11.816  -1.659  0.00  0.00     0.092 C 
ATOM    127  N   PRO d   1      -8.059 -11.720  -2.972  0.00  0.00    -0.337 N 
ATOM    128  C   PRO d   1      -8.689 -11.866  -4.176  0.00  0.00     0.243 C 
ATOM    129  CD  PRO d   1      -6.610 -11.538  -2.864  0.00  0.00    -0.001 C 
ATOM    130  O   PRO d   1      -9.884 -12.109  -4.296  0.00  0.00    -0.271 OA
ATOM    131  CG  PRO d   1      -6.299 -11.509  -1.375  0.00  0.00    -0.048 C 
ATOM    132  H25 PRO d   1      -6.308 -10.591  -3.336  0.00  0.00     0.064 H 
ATOM    133  H26 PRO d   1      -6.083 -12.373  -3.348  0.00  0.00     0.064 H 
ATOM    134  CB  PRO d   1      -7.643 -11.199  -0.728  0.00  0.00    -0.036 C 
ATOM    135  H23 PRO d   1      -5.916 -12.483  -1.036  0.00  0.00     0.035 H 
ATOM    136  H24 PRO d   1      -5.563 -10.725  -1.144  0.00  0.00     0.035 H 
ATOM    137  H21 PRO d   1      -7.700 -11.652   0.273  0.00  0.00     0.036 H 
ATOM    138  H22 PRO d   1      -7.788 -10.112  -0.647  0.00  0.00     0.036 H 
ATOM    139  H20 PRO d   1      -8.911 -12.871  -1.421  0.00  0.00     0.087 H 
BRANCH 128 140
ATOM    140  CA  PRO d   1      -7.768 -11.711  -5.428  0.00  0.00     0.092 C 
ATOM    141  N   PRO d   1      -8.194 -12.453  -6.611  0.00  0.00    -0.337 N 
ATOM    142  C   VAL d   1      -8.399 -13.802  -6.569  0.00  0.00     0.243 C 
ATOM    143  CD  PRO d   1      -8.251 -11.618  -7.817  0.00  0.00    -0.001 C 
ATOM    144  O   VAL d   1      -8.231 -14.472  -5.556  0.00  0.00    -0.271 OA
ATOM    145  CG  PRO d   1      -7.555 -10.320  -7.418  0.00  0.00    -0.048 C 
ATOM    146  H18 PRO d   1      -9.294 -11.426  -8.108  0.00  0.00     0.064 H 
ATOM    147  H19 PRO d   1      -7.721 -12.102  -8.650  0.00  0.00     0.064 H 
ATOM    148  CB  PRO d   1      -7.725 -10.259  -5.906  0.00  0.00    -0.036 C 
ATOM    149  H16 PRO d   1      -6.490 -10.348  -7.691  0.00  0.00     0.035 H 
ATOM    150  H17 PRO d   1      -8.034  -9.455  -7.900  0.00  0.00     0.035 H 
ATOM    151  H14 PRO d   1      -6.877  -9.730  -5.447  0.00  0.00     0.036 H 
ATOM    152  H15 PRO d   1      -8.662  -9.743  -5.647  0.00  0.00     0.036 H 
ATOM    153  H13 PRO d   1      -6.758 -12.041  -5.142  0.00  0.00     0.087 H 
BRANCH 142 154
ATOM    154  CA  VAL d   1      -8.856 -14.472  -7.882  0.00  0.00     0.092 C 
ATOM    155  H5  VAL d   1      -9.307 -13.716  -8.541  0.00  0.00     0.088 H 
BRANCH 154 156
ATOM    156  N   VAL d   1      -7.677 -15.045  -8.531  0.00  0.00    -0.348 N 
ATOM    157  C   ACE d   1      -7.245 -14.636  -9.743  0.00  0.00     0.214 C 
ATOM    158  O   ACE d   1      -7.815 -13.827 -10.464  0.00  0.00    -0.274 OA
ATOM    159  H4  VAL d   1      -7.172 -15.767  -8.059  0.00  0.00     0.163 HD
BRANCH 157 160
ATOM    160  CH3 ACE d   1      -5.917 -15.276 -10.147  0.00  0.00    -0.003 C 
ATOM    161  H1  ACE d   1      -5.588 -15.967  -9.357  0.00  0.00     0.040 H 
ATOM    162  H2  ACE d   1      -5.159 -14.491 -10.287  0.00  0.00     0.040 H 
ATOM    163  H3  ACE d   1      -6.048 -15.831 -11.088  0.00  0.00     0.040 H 
ENDBRANCH 157 160
ENDBRANCH 154 156
BRANCH 154 164
ATOM    164  CB  VAL d   1      -9.896 -15.574  -7.597  0.00  0.00    -0.033 C 
ATOM    165  H6  VAL d   1      -9.425 -16.320  -6.940  0.00  0.00     0.042 H 
BRANCH 164 166
ATOM    166  CG1 VAL d   1     -11.140 -15.020  -6.878  0.00  0.00    -0.071 C 
ATOM    167  H7  VAL d   1     -11.853 -15.838  -6.695  0.00  0.00     0.028 H 
ATOM    168  H8  VAL d   1     -11.616 -14.253  -7.507  0.00  0.00     0.028 H 
ATOM    169  H9  VAL d   1     -10.841 -14.574  -5.918  0.00  0.00     0.028 H 
ENDBRANCH 164 166
BRANCH 164 170
ATOM    170  CG2 VAL d   1     -10.324 -16.276  -8.894  0.00  0.00    -0.071 C 
ATOM    171  H10 VAL d   1      -9.435 -16.672  -9.407  0.00  0.00     0.028 H 
ATOM    172  H11 VAL d   1     -10.835 -15.556  -9.549  0.00  0.00     0.028 H 
ATOM    173  H12 VAL d   1     -11.008 -17.104  -8.655  0.00  0.00     0.028 H 
ENDBRANCH 164 170
ENDBRANCH 154 164
ENDBRANCH 142 154
ENDBRANCH 128 140
ENDBRANCH 114 126
ENDBRANCH 109 112
ENDBRANCH 106 108
BRANCH 106 174
ATOM    174  CB  VAL d   1     -11.748  -5.913   0.127  0.00  0.00    -0.033 C 
ATOM    175  H36 VAL d   1     -12.782  -5.612   0.351  0.00  0.00     0.042 H 
BRANCH 174 176
ATOM    176  CG1 VAL d   1     -10.821  -4.723   0.386  0.00  0.00    -0.071 C 
ATOM    177  H37 VAL d   1     -11.083  -3.899  -0.294  0.00  0.00     0.028 H 
ATOM    178  H38 VAL d   1      -9.778  -5.026   0.211  0.00  0.00     0.028 H 
ATOM    179  H39 VAL d   1     -10.936  -4.389   1.428  0.00  0.00     0.028 H 
ENDBRANCH 174 176
BRANCH 174 180
ATOM    180  CG2 VAL d   1     -11.662  -6.209  -1.358  0.00  0.00    -0.071 C 
ATOM    181  H40 VAL d   1     -12.313  -7.062  -1.600  0.00  0.00     0.028 H 
ATOM    182  H41 VAL d   1     -10.623  -6.454  -1.623  0.00  0.00     0.028 H 
ATOM    183  H42 VAL d   1     -11.987  -5.326  -1.927  0.00  0.00     0.028 H 
ENDBRANCH 174 180
ENDBRANCH 106 174
ENDBRANCH   1 106
TORSDOF 34
