REMARK  2 active torsions:
REMARK  status: ('A' for Active; 'I' for Inactive)
REMARK    1  A    between atoms: CD_1  and  C1_3 
REMARK    2  A    between atoms: C4_8  and  NE_9 
REMARK       I    between atoms: NE_9  and  CZ_10 
REMARK       I    between atoms: CZ_10  and  NH1_11 
ROOT
ATOM      1  C1  GBS d   1      44.401  -0.910  28.186  0.00  0.00     0.002 C 
ATOM      2  C21 GBS d   1      44.011  -0.726  26.847  0.00  0.00    -0.068 C 
ATOM      3  C22 GBS d   1      44.464  -2.221  28.683  0.00  0.00    -0.068 C 
ATOM      4  C31 GBS d   1      43.731  -1.815  26.004  0.00  0.00    -0.056 C 
ATOM      5  C32 GBS d   1      44.159  -3.285  27.851  0.00  0.00    -0.056 C 
ATOM      6  C4  GBS d   1      43.692  -3.093  26.557  0.00  0.00     0.049 C 
ATOM      7  H2  GBS d   1      43.924   0.281  26.456  0.00  0.00     0.085 H 
ATOM      8  H3  GBS d   1      44.750  -2.400  29.713  0.00  0.00     0.085 H 
ATOM      9  H4  GBS d   1      43.549  -1.664  24.946  0.00  0.00     0.087 H 
ATOM     10  H5  GBS d   1      44.288  -4.296  28.220  0.00  0.00     0.087 H 
ENDROOT
BRANCH   6  11
ATOM     11  NE  GBS d   1      43.338  -4.216  25.817  0.00  0.00    -0.193 N 
ATOM     12  CZ  GBS d   1      43.751  -4.461  24.579  0.00  0.00     0.669 C 
ATOM     13  NH1 GBS d   1      44.530  -3.637  23.890  0.00  0.00    -0.235 N 
ATOM     14  NH2 GBS d   1      43.359  -5.575  23.983  0.00  0.00    -0.235 N 
ATOM     15  H7  GBS d   1      44.818  -3.881  22.932  0.00  0.00     0.174 HD
ATOM     16  H8  GBS d   1      44.846  -2.753  24.313  0.00  0.00     0.174 HD
ATOM     17  H9  GBS d   1      42.754  -6.241  24.483  0.00  0.00     0.174 HD
ATOM     18  H10 GBS d   1      43.659  -5.776  23.018  0.00  0.00     0.174 HD
ATOM     19  H6  GBS d   1      42.713  -4.905  26.259  0.00  0.00     0.184 HD
ENDBRANCH   6  11
BRANCH   1  20
ATOM     20  CD  GBS d   1      44.773   0.302  29.019  0.00  0.00     0.118 C 
ATOM     21  OD  GBS d   1      45.445   0.082  30.108  0.00  0.00    -0.301 OA
ATOM     22  H1  GBS d   1      44.490   1.309  28.718  0.00  0.00     0.151 H 
ENDBRANCH   1  20
TORSDOF 2
