REMARK  5 active torsions:
REMARK  status: ('A' for Active; 'I' for Inactive)
REMARK    1  A    between atoms: C11_2  and  C3_1 
REMARK    2  A    between atoms: C11_2  and  O2_4 
REMARK    3  A    between atoms: O2_4  and  C12_12 
REMARK    4  A    between atoms: C12_12  and  C9_16 
REMARK    5  A    between atoms: C8_17  and  O4_13 
ROOT
ATOM      1  C6  YZ9 d   1      61.058  29.488  19.114  0.00  0.00    -0.068 A 
ATOM      2  C5  YZ9 d   1      61.196  26.988  19.416  0.00  0.00    -0.049 A 
ATOM      3  C4  YZ9 d   1      60.196  29.070  16.337  0.00  0.00    -0.017 A 
ATOM      4  O3  YZ9 d   1      60.360  26.703  16.736  0.00  0.00    -0.274 OA
ATOM      5  C2  YZ9 d   1      60.907  28.189  18.573  0.00  0.00    -0.001 A 
ATOM      6  C1  YZ9 d   1      60.486  28.006  17.220  0.00  0.00     0.092 A 
ATOM      7  C7  YZ9 d   1      60.676  25.636  17.434  0.00  0.00     0.304 A 
ATOM      8  O5  YZ9 d   1      60.584  24.591  16.926  0.00  0.00    -0.259 OA
ATOM      9  C10 YZ9 d   1      60.780  30.597  18.263  0.00  0.00    -0.050 A 
ATOM     10  C9  YZ9 d   1      61.138  25.756  18.823  0.00  0.00     0.115 A 
ATOM     11  C8  YZ9 d   1      60.367  30.362  16.932  0.00  0.00     0.068 A 
ATOM     12  H6  YZ9 d   1      61.374  29.634  20.140  0.00  0.00     0.085 H 
ATOM     13  H7  YZ9 d   1      61.445  27.091  20.471  0.00  0.00     0.086 H 
ATOM     14  H8  YZ9 d   1      59.876  28.924  15.312  0.00  0.00     0.092 H 
ATOM     15  H10 YZ9 d   1      60.884  31.611  18.633  0.00  0.00     0.087 H 
ENDROOT
BRANCH  10  16
ATOM     16  C12 YZ9 d   1      61.529  24.501  19.544  0.00  0.00     0.299 C 
ATOM     17  O1  YZ9 d   1      61.351  24.501  20.724  0.00  0.00    -0.259 OA
BRANCH  16  18
ATOM     18  O2  YZ9 d   1      62.057  23.436  18.869  0.00  0.00    -0.318 OA
BRANCH  18  19
ATOM     19  C11 YZ9 d   1      63.386  23.381  18.212  0.00  0.00     0.026 C 
ATOM     20  H4  YZ9 d   1      63.356  22.657  17.385  0.00  0.00     0.074 H 
ATOM     21  H5  YZ9 d   1      63.642  24.376  17.819  0.00  0.00     0.074 H 
BRANCH  19  22
ATOM     22  C3  YZ9 d   1      64.422  22.956  19.213  0.00  0.00    -0.056 C 
ATOM     23  H1  YZ9 d   1      65.407  22.915  18.726  0.00  0.00     0.030 H 
ATOM     24  H2  YZ9 d   1      64.166  21.961  19.606  0.00  0.00     0.030 H 
ATOM     25  H3  YZ9 d   1      64.452  23.680  20.040  0.00  0.00     0.030 H 
ENDBRANCH  19  22
ENDBRANCH  18  19
ENDBRANCH  16  18
ENDBRANCH  10  16
BRANCH  11  26
ATOM     26  O4  YZ9 d   1      60.124  31.452  16.184  0.00  0.00    -0.361 OA
ATOM     27  H9  YZ9 d   1      60.703  31.453  15.431  0.00  0.00     0.217 HD
ENDBRANCH  11  26
TORSDOF 5
