REMARK  7 active torsions:
REMARK  status: ('A' for Active; 'I' for Inactive)
REMARK    1  A    between atoms: N2_3  and  S1_1 
REMARK    2  A    between atoms: S1_1  and  C5_12 
REMARK    3  A    between atoms: N1_2  and  C1_28 
REMARK    4  A    between atoms: C13_21  and  O1_4 
REMARK    5  A    between atoms: O1_4  and  C14_22 
REMARK    6  A    between atoms: C3_10  and  O3_6 
REMARK    7  A    between atoms: C20_17  and  C13_21 
ROOT
ATOM      1  N2  MSI d   1      39.573  32.069  27.847  0.00  0.00    -0.200 NA
ATOM      2  C20 MSI d   1      40.258  33.341  27.486  0.00  0.00     0.030 C 
ATOM      3  C10 MSI d   1      40.965  33.931  28.703  0.00  0.00    -0.046 C 
ATOM      4  C11 MSI d   1      40.635  32.993  29.842  0.00  0.00    -0.052 C 
ATOM      5  C12 MSI d   1      40.061  31.748  29.193  0.00  0.00    -0.006 C 
ATOM      6  H6  MSI d   1      39.473  34.046  27.174  0.00  0.00     0.068 H 
ATOM      7  H7  MSI d   1      40.590  34.943  28.915  0.00  0.00     0.035 H 
ATOM      8  H8  MSI d   1      42.052  33.970  28.537  0.00  0.00     0.035 H 
ATOM      9  H9  MSI d   1      39.895  33.451  30.515  0.00  0.00     0.034 H 
ATOM     10  H10 MSI d   1      41.543  32.745  30.411  0.00  0.00     0.034 H 
ATOM     11  H11 MSI d   1      40.844  30.978  29.124  0.00  0.00     0.057 H 
ATOM     12  H12 MSI d   1      39.228  31.369  29.803  0.00  0.00     0.057 H 
ENDROOT
BRANCH   1  13
ATOM     13  S1  MSI d   1      37.832  31.958  27.609  0.00  0.00     0.244 S 
ATOM     14  O4  MSI d   1      37.453  30.645  28.040  0.00  0.00    -0.206 OA
ATOM     15  O5  MSI d   1      37.759  32.316  26.243  0.00  0.00    -0.206 OA
BRANCH  13  16
ATOM     16  C5  MSI d   1      36.970  33.228  28.581  0.00  0.00     0.075 A 
ATOM     17  C4  MSI d   1      36.500  32.931  29.906  0.00  0.00    -0.050 A 
ATOM     18  C9  MSI d   1      35.811  33.971  30.606  0.00  0.00     0.008 A 
ATOM     19  H3  MSI d   1      36.661  31.958  30.357  0.00  0.00     0.086 H 
ATOM     20  C3  MSI d   1      35.112  33.759  31.846  0.00  0.00     0.140 C 
ATOM     21  C8  MSI d   1      35.639  35.246  30.063  0.00  0.00     0.046 A 
ATOM     22  C2  MSI d   1      34.447  35.109  32.008  0.00  0.00     0.257 C 
ATOM     23  H2  MSI d   1      35.789  33.524  32.681  0.00  0.00     0.106 H 
ATOM     24  N1  MSI d   1      34.899  36.018  31.049  0.00  0.00    -0.319 N 
ATOM     25  O2  MSI d   1      33.615  35.333  32.895  0.00  0.00    -0.270 OA
ATOM     26  C7  MSI d   1      36.120  35.562  28.763  0.00  0.00    -0.055 A 
ATOM     27  C6  MSI d   1      36.777  34.539  28.023  0.00  0.00    -0.059 A 
ATOM     28  H5  MSI d   1      35.990  36.554  28.347  0.00  0.00     0.087 H 
ATOM     29  H4  MSI d   1      37.138  34.752  27.023  0.00  0.00     0.086 H 
BRANCH  20  30
ATOM     30  O3  MSI d   1      34.141  32.711  31.675  0.00  0.00    -0.381 OA
ATOM     31  H1  MSI d   1      34.589  31.879  31.576  0.00  0.00     0.211 HD
ENDBRANCH  20  30
BRANCH  24  32
ATOM     32  C1  MSI d   1      34.732  37.470  31.083  0.00  0.00    -0.011 C 
ATOM     33  H20 MSI d   1      34.119  37.748  31.953  0.00  0.00     0.057 H 
ATOM     34  H21 MSI d   1      34.233  37.803  30.161  0.00  0.00     0.057 H 
ATOM     35  H22 MSI d   1      35.718  37.951  31.160  0.00  0.00     0.057 H 
ENDBRANCH  24  32
ENDBRANCH  13  16
ENDBRANCH   1  13
BRANCH   2  36
ATOM     36  C13 MSI d   1      41.291  33.239  26.293  0.00  0.00     0.042 C 
ATOM     37  H13 MSI d   1      41.549  34.279  26.044  0.00  0.00     0.077 H 
ATOM     38  H14 MSI d   1      42.172  32.733  26.715  0.00  0.00     0.077 H 
BRANCH  36  39
ATOM     39  O1  MSI d   1      41.050  32.581  25.002  0.00  0.00    -0.350 OA
BRANCH  39  40
ATOM     40  C14 MSI d   1      39.893  32.891  24.233  0.00  0.00     0.068 A 
ATOM     41  C15 MSI d   1      39.547  34.247  23.909  0.00  0.00    -0.051 A 
ATOM     42  C16 MSI d   1      38.407  34.544  23.100  0.00  0.00    -0.080 A 
ATOM     43  H15 MSI d   1      40.160  35.058  24.284  0.00  0.00     0.087 H 
ATOM     44  C17 MSI d   1      37.605  33.488  22.607  0.00  0.00    -0.083 A 
ATOM     45  H16 MSI d   1      38.158  35.573  22.865  0.00  0.00     0.083 H 
ATOM     46  C18 MSI d   1      37.940  32.128  22.919  0.00  0.00    -0.080 A 
ATOM     47  H17 MSI d   1      36.738  33.706  21.994  0.00  0.00     0.083 H 
ATOM     48  C19 MSI d   1      39.077  31.833  23.728  0.00  0.00    -0.051 A 
ATOM     49  H18 MSI d   1      37.326  31.320  22.538  0.00  0.00     0.083 H 
ATOM     50  H19 MSI d   1      39.323  30.803  23.960  0.00  0.00     0.087 H 
ENDBRANCH  39  40
ENDBRANCH  36  39
ENDBRANCH   2  36
TORSDOF 7
