REMARK  12 active torsions:
REMARK  status: ('A' for Active; 'I' for Inactive)
REMARK    1  A    between atoms: CX_1  and  CAX_3 
REMARK       I    between atoms: CX_1  and  NL_4 
REMARK    2  A    between atoms: NL_4  and  CAL_5 
REMARK    3  A    between atoms: CAL_5  and  CBL_6 
REMARK    4  A    between atoms: CAL_5  and  C_10 
REMARK    5  A    between atoms: CBL_6  and  CGL_7 
REMARK    6  A    between atoms: CGL_7  and  CDL_8 
REMARK    7  A    between atoms: CGL_7  and  CDM_9 
REMARK       I    between atoms: C_10  and  N_12 
REMARK    8  A    between atoms: N_12  and  CA_13 
REMARK    9  A    between atoms: CA_13  and  CB_14 
REMARK   10  A    between atoms: CA_13  and  CW_21 
REMARK   11  A    between atoms: CB_14  and  CG_15 
REMARK   12  A    between atoms: CW_21  and  OW_22 
ROOT
ATOM      1  C   FAF d   1      29.905   1.463  39.401  0.00  0.00     0.240 C 
ATOM      2  O   FAF d   1      29.617   0.296  39.639  0.00  0.00    -0.271 OA
ATOM      3  N   FAF d   1      29.025   2.336  38.934  0.00  0.00    -0.352 N 
ATOM      4  H15 FAF d   1      29.317   3.273  38.743  0.00  0.00     0.163 HD
ENDROOT
BRANCH   1   5
ATOM      5  CAL FAF d   1      31.314   1.988  39.618  0.00  0.00     0.089 C 
ATOM      6  H5  FAF d   1      31.276   3.087  39.637  0.00  0.00     0.087 H 
BRANCH   5   7
ATOM      7  NL  FAF d   1      31.872   1.530  40.881  0.00  0.00    -0.348 N 
ATOM      8  CX  FAF d   1      31.508   2.084  42.032  0.00  0.00     0.214 C 
ATOM      9  OX  FAF d   1      30.666   2.980  42.111  0.00  0.00    -0.274 OA
ATOM     10  H4  FAF d   1      32.540   0.786  40.883  0.00  0.00     0.163 HD
BRANCH   8  11
ATOM     11  CAX FAF d   1      32.185   1.558  43.289  0.00  0.00    -0.003 C 
ATOM     12  H1  FAF d   1      32.900   0.767  43.017  0.00  0.00     0.040 H 
ATOM     13  H2  FAF d   1      31.425   1.147  43.970  0.00  0.00     0.040 H 
ATOM     14  H3  FAF d   1      32.720   2.379  43.789  0.00  0.00     0.040 H 
ENDBRANCH   8  11
ENDBRANCH   5   7
BRANCH   5  15
ATOM     15  CBL FAF d   1      32.202   1.548  38.456  0.00  0.00    -0.035 C 
ATOM     16  H6  FAF d   1      31.687   1.810  37.520  0.00  0.00     0.037 H 
ATOM     17  H7  FAF d   1      32.320   0.456  38.516  0.00  0.00     0.037 H 
BRANCH  15  18
ATOM     18  CGL FAF d   1      33.596   2.167  38.413  0.00  0.00    -0.059 C 
ATOM     19  H8  FAF d   1      34.289   1.531  38.983  0.00  0.00     0.038 H 
BRANCH  18  20
ATOM     20  CDL FAF d   1      34.064   2.236  36.966  0.00  0.00    -0.073 C 
ATOM     21  H9  FAF d   1      35.069   2.681  36.927  0.00  0.00     0.028 H 
ATOM     22  H10 FAF d   1      33.365   2.855  36.384  0.00  0.00     0.028 H 
ATOM     23  H11 FAF d   1      34.096   1.222  36.542  0.00  0.00     0.028 H 
ENDBRANCH  18  20
BRANCH  18  24
ATOM     24  CDM FAF d   1      33.579   3.552  39.039  0.00  0.00    -0.073 C 
ATOM     25  H12 FAF d   1      33.238   3.479  40.082  0.00  0.00     0.028 H 
ATOM     26  H13 FAF d   1      32.894   4.201  38.474  0.00  0.00     0.028 H 
ATOM     27  H14 FAF d   1      34.593   3.978  39.013  0.00  0.00     0.028 H 
ENDBRANCH  18  24
ENDBRANCH  15  18
ENDBRANCH   5  15
ENDBRANCH   1   5
BRANCH   3  28
ATOM     28  CA  FAF d   1      27.643   1.955  38.695  0.00  0.00     0.036 C 
ATOM     29  H16 FAF d   1      27.419   1.023  39.235  0.00  0.00     0.076 H 
BRANCH  28  30
ATOM     30  CB  FAF d   1      26.695   3.060  39.189  0.00  0.00    -0.020 C 
ATOM     31  H17 FAF d   1      25.678   2.823  38.843  0.00  0.00     0.043 H 
ATOM     32  H18 FAF d   1      27.019   4.015  38.750  0.00  0.00     0.043 H 
BRANCH  30  33
ATOM     33  CG  FAF d   1      26.660   3.217  40.701  0.00  0.00    -0.056 A 
ATOM     34  CD1 FAF d   1      27.050   2.173  41.531  0.00  0.00    -0.077 A 
ATOM     35  CE1 FAF d   1      27.021   2.305  42.923  0.00  0.00    -0.082 A 
ATOM     36  H19 FAF d   1      27.383   1.240  41.092  0.00  0.00     0.084 H 
ATOM     37  CZ  FAF d   1      26.595   3.497  43.503  0.00  0.00    -0.083 A 
ATOM     38  H21 FAF d   1      27.331   1.478  43.551  0.00  0.00     0.083 H 
ATOM     39  CE2 FAF d   1      26.201   4.557  42.683  0.00  0.00    -0.082 A 
ATOM     40  H23 FAF d   1      26.569   3.602  44.582  0.00  0.00     0.083 H 
ATOM     41  CD2 FAF d   1      26.236   4.409  41.290  0.00  0.00    -0.077 A 
ATOM     42  H22 FAF d   1      25.869   5.491  43.123  0.00  0.00     0.083 H 
ATOM     43  H20 FAF d   1      25.928   5.235  40.659  0.00  0.00     0.084 H 
ENDBRANCH  30  33
ENDBRANCH  28  30
BRANCH  28  44
ATOM     44  CW  FAF d   1      27.475   1.729  37.206  0.00  0.00     0.036 C 
ATOM     45  H24 FAF d   1      28.346   1.184  36.814  0.00  0.00     0.077 H 
ATOM     46  H25 FAF d   1      27.387   2.698  36.692  0.00  0.00     0.077 H 
BRANCH  44  47
ATOM     47  OW  FAF d   1      26.313   0.976  36.994  0.00  0.00    -0.399 OA
ATOM     48  H26 FAF d   1      26.392   0.141  37.441  0.00  0.00     0.209 HD
ENDBRANCH  44  47
ENDBRANCH  28  44
ENDBRANCH   3  28
TORSDOF 12
