REMARK  4 active torsions:
REMARK  status: ('A' for Active; 'I' for Inactive)
REMARK    1  A    between atoms: C7_12  and  C1_6 
REMARK    2  A    between atoms: C7_12  and  N1_13 
REMARK    3  A    between atoms: C8_17  and  C1'_18 
REMARK    4  A    between atoms: C6'_23  and  O6'_24 
ROOT
ATOM      1  H1  124 d   1      45.028  -1.207  25.462  0.00  0.00     0.085 H 
ATOM      2  H2  124 d   1      44.972   0.130  27.542  0.00  0.00     0.087 H 
ATOM      3  H3  124 d   1      43.279  -4.545  27.558  0.00  0.00     0.086 H 
ATOM      4  C1  124 d   1      44.162  -2.971  26.360  0.00  0.00     0.008 A 
ATOM      5  C2  124 d   1      44.636  -1.644  26.374  0.00  0.00    -0.067 A 
ATOM      6  C3  124 d   1      44.609  -0.891  27.534  0.00  0.00    -0.055 A 
ATOM      7  C4  124 d   1      44.112  -1.468  28.670  0.00  0.00     0.043 A 
ATOM      8  C5  124 d   1      43.651  -2.737  28.668  0.00  0.00    -0.006 A 
ATOM      9  C6  124 d   1      43.655  -3.529  27.535  0.00  0.00    -0.057 A 
ATOM     10  N3  124 d   1      43.998  -0.960  29.873  0.00  0.00    -0.355 N 
ATOM     11  C9  124 d   1      43.241  -2.991  29.954  0.00  0.00    -0.044 A 
ATOM     12  C8  124 d   1      43.483  -1.850  30.682  0.00  0.00     0.046 A 
ATOM     13  H8  124 d   1      44.273  -0.004  30.141  0.00  0.00     0.166 HD
ATOM     14  H9  124 d   1      42.807  -3.918  30.326  0.00  0.00     0.088 H 
ENDROOT
BRANCH  12  15
ATOM     15  C1' 124 d   1      43.241  -1.650  32.033  0.00  0.00     0.024 A 
ATOM     16  C6' 124 d   1      43.250  -0.359  32.567  0.00  0.00     0.078 A 
ATOM     17  C5' 124 d   1      43.003  -0.193  33.929  0.00  0.00    -0.050 A 
ATOM     18  C4' 124 d   1      42.743  -1.314  34.739  0.00  0.00    -0.080 A 
ATOM     19  H13 124 d   1      43.011   0.800  34.364  0.00  0.00     0.087 H 
ATOM     20  C3' 124 d   1      42.736  -2.592  34.193  0.00  0.00    -0.082 A 
ATOM     21  H12 124 d   1      42.547  -1.180  35.797  0.00  0.00     0.083 H 
ATOM     22  C2' 124 d   1      42.980  -2.754  32.842  0.00  0.00    -0.068 A 
ATOM     23  H11 124 d   1      42.541  -3.454  34.821  0.00  0.00     0.083 H 
ATOM     24  H10 124 d   1      42.968  -3.748  32.409  0.00  0.00     0.085 H 
BRANCH  16  25
ATOM     25  O6' 124 d   1      43.506   0.753  31.773  0.00  0.00    -0.360 OA
ATOM     26  H14 124 d   1      44.279   1.201  32.097  0.00  0.00     0.217 HD
ENDBRANCH  16  25
ENDBRANCH  12  15
BRANCH   4  27
ATOM     27  C7  124 d   1      44.232  -3.706  25.176  0.00  0.00     0.102 C 
ATOM     28  N2  124 d   1      44.521  -3.083  24.042  0.00  0.00    -0.385 N 
ATOM     29  H6  124 d   1      44.680  -2.065  24.040  0.00  0.00     0.157 HD
ATOM     30  H7  124 d   1      44.587  -3.617  23.163  0.00  0.00     0.157 HD
BRANCH  27  31
ATOM     31  N1  124 d   1      44.022  -5.007  25.222  0.00  0.00    -0.385 N 
ATOM     32  H4  124 d   1      44.069  -5.567  24.359  0.00  0.00     0.157 HD
ATOM     33  H5  124 d   1      43.811  -5.463  26.121  0.00  0.00     0.157 HD
ENDBRANCH  27  31
ENDBRANCH   4  27
TORSDOF 4
