REMARK  4 active torsions:
REMARK  status: ('A' for Active; 'I' for Inactive)
REMARK    1  A    between atoms: C7_20  and  C1_14 
REMARK    2  A    between atoms: C7_20  and  N1_21 
REMARK    3  A    between atoms: C8_25  and  C1'_26 
REMARK    4  A    between atoms: C6'_31  and  O6'_32 
ROOT
ATOM      1  H1  BMZ d   1       9.786   0.454  23.138  0.00  0.00     0.085 H 
ATOM      2  H2  BMZ d   1      10.907   2.374  22.013  0.00  0.00     0.087 H 
ATOM      3  H3  BMZ d   1       8.265   3.159  26.151  0.00  0.00     0.088 H 
ATOM      4  H8  BMZ d   1       8.991   5.705  25.789  0.00  0.00     0.167 HD
ATOM      5  C1  BMZ d   1       8.934   1.643  24.729  0.00  0.00     0.009 A 
ATOM      6  C2  BMZ d   1       9.692   1.451  23.552  0.00  0.00    -0.067 A 
ATOM      7  C3  BMZ d   1      10.320   2.516  22.913  0.00  0.00    -0.052 A 
ATOM      8  C4  BMZ d   1      10.158   3.764  23.484  0.00  0.00     0.086 A 
ATOM      9  C5  BMZ d   1       9.456   4.000  24.604  0.00  0.00     0.063 A 
ATOM     10  C6  BMZ d   1       8.834   2.970  25.248  0.00  0.00    -0.041 A 
ATOM     11  N3  BMZ d   1      10.609   4.915  23.141  0.00  0.00    -0.228 NA
ATOM     12  N4  BMZ d   1       9.444   5.258  24.979  0.00  0.00    -0.338 N 
ATOM     13  C8  BMZ d   1      10.182   5.786  24.015  0.00  0.00     0.141 A 
ENDROOT
BRANCH  13  14
ATOM     14  C1' BMZ d   1      10.453   7.144  23.869  0.00  0.00     0.043 A 
ATOM     15  C6' BMZ d   1      11.071   7.658  22.702  0.00  0.00     0.079 A 
ATOM     16  C5' BMZ d   1      11.274   9.034  22.548  0.00  0.00    -0.050 A 
ATOM     17  H12 BMZ d   1      11.746   9.414  21.649  0.00  0.00     0.087 H 
ATOM     18  C4' BMZ d   1      10.872   9.912  23.544  0.00  0.00    -0.080 A 
ATOM     19  H11 BMZ d   1      11.028  10.978  23.424  0.00  0.00     0.083 H 
ATOM     20  C3' BMZ d   1      10.268   9.421  24.699  0.00  0.00    -0.082 A 
ATOM     21  H10 BMZ d   1       9.953  10.105  25.479  0.00  0.00     0.083 H 
ATOM     22  C2' BMZ d   1      10.069   8.057  24.852  0.00  0.00    -0.067 A 
ATOM     23  H9  BMZ d   1       9.603   7.690  25.759  0.00  0.00     0.085 H 
BRANCH  15  24
ATOM     24  O6' BMZ d   1      11.497   6.807  21.684  0.00  0.00    -0.360 OA
ATOM     25  H13 BMZ d   1      11.297   5.909  21.920  0.00  0.00     0.217 HD
ENDBRANCH  15  24
ENDBRANCH  13  14
BRANCH   5  26
ATOM     26  C7  BMZ d   1       8.310   0.598  25.393  0.00  0.00     0.102 C 
ATOM     27  N2  BMZ d   1       8.196  -0.575  24.810  0.00  0.00    -0.385 N 
ATOM     28  H6  BMZ d   1       8.567  -0.716  23.860  0.00  0.00     0.157 HD
ATOM     29  H7  BMZ d   1       7.735  -1.353  25.304  0.00  0.00     0.157 HD
BRANCH  26  30
ATOM     30  N1  BMZ d   1       7.857   0.825  26.592  0.00  0.00    -0.385 N 
ATOM     31  H4  BMZ d   1       7.388   0.073  27.116  0.00  0.00     0.157 HD
ATOM     32  H5  BMZ d   1       7.968   1.757  27.017  0.00  0.00     0.157 HD
ENDBRANCH  26  30
ENDBRANCH   5  26
TORSDOF 4
