REMARK  6 active torsions:
REMARK  status: ('A' for Active; 'I' for Inactive)
REMARK    1  A    between atoms: C1_1  and  C7_7 
REMARK    2  A    between atoms: C7_7  and  N1_8 
REMARK    3  A    between atoms: C8_12  and  C1'_13 
REMARK    4  A    between atoms: C3'_15  and  O3'_16 
REMARK    5  A    between atoms: O3'_16  and  CM3_17 
REMARK    6  A    between atoms: C6'_20  and  O6'_21 
ROOT
ATOM      1  C1  123 d   1       8.743   1.837  24.699  0.00  0.00     0.009 A 
ATOM      2  C2  123 d   1       9.544   1.622  23.552  0.00  0.00    -0.067 A 
ATOM      3  C3  123 d   1      10.175   2.669  22.883  0.00  0.00    -0.052 A 
ATOM      4  C4  123 d   1       9.980   3.936  23.385  0.00  0.00     0.086 A 
ATOM      5  C5  123 d   1       9.232   4.192  24.480  0.00  0.00     0.063 A 
ATOM      6  C6  123 d   1       8.602   3.167  25.151  0.00  0.00    -0.041 A 
ATOM      7  N3  123 d   1      10.412   5.080  23.004  0.00  0.00    -0.228 NA
ATOM      8  N4  123 d   1       9.181   5.466  24.781  0.00  0.00    -0.338 N 
ATOM      9  C8  123 d   1       9.939   5.989  23.817  0.00  0.00     0.142 A 
ATOM     10  H1  123 d   1       9.671   0.611  23.182  0.00  0.00     0.085 H 
ATOM     11  H2  123 d   1      10.791   2.494  22.008  0.00  0.00     0.087 H 
ATOM     12  H3  123 d   1       7.998   3.381  26.026  0.00  0.00     0.088 H 
ATOM     13  H8  123 d   1       8.688   5.936  25.554  0.00  0.00     0.167 HD
ENDROOT
BRANCH   9  14
ATOM     14  C1' 123 d   1      10.222   7.348  23.641  0.00  0.00     0.046 A 
ATOM     15  C6' 123 d   1      10.854   7.781  22.463  0.00  0.00     0.079 A 
ATOM     16  C5' 123 d   1      11.151   9.120  22.252  0.00  0.00    -0.047 A 
ATOM     17  C4' 123 d   1      10.823  10.067  23.208  0.00  0.00    -0.048 A 
ATOM     18  H14 123 d   1      11.642   9.426  21.335  0.00  0.00     0.087 H 
ATOM     19  C3' 123 d   1      10.195   9.693  24.394  0.00  0.00     0.069 A 
ATOM     20  H13 123 d   1      11.057  11.111  23.032  0.00  0.00     0.087 H 
ATOM     21  C2' 123 d   1       9.899   8.334  24.596  0.00  0.00    -0.035 A 
ATOM     22  H9  123 d   1       9.407   8.034  25.514  0.00  0.00     0.089 H 
BRANCH  15  23
ATOM     23  O6' 123 d   1      11.193   6.874  21.480  0.00  0.00    -0.360 OA
ATOM     24  H15 123 d   1      10.934   6.002  21.753  0.00  0.00     0.217 HD
ENDBRANCH  15  23
BRANCH  19  25
ATOM     25  O3' 123 d   1       9.903  10.687  25.325  0.00  0.00    -0.356 OA
BRANCH  25  26
ATOM     26  CM3 123 d   1       9.653  10.316  26.674  0.00  0.00     0.010 C 
ATOM     27  H10 123 d   1       9.441  11.217  27.269  0.00  0.00     0.066 H 
ATOM     28  H11 123 d   1      10.537   9.806  27.084  0.00  0.00     0.066 H 
ATOM     29  H12 123 d   1       8.787   9.639  26.714  0.00  0.00     0.066 H 
ENDBRANCH  25  26
ENDBRANCH  19  25
ENDBRANCH   9  14
BRANCH   1  30
ATOM     30  C7  123 d   1       8.115   0.790  25.368  0.00  0.00     0.102 C 
ATOM     31  N2  123 d   1       8.076  -0.423  24.874  0.00  0.00    -0.385 N 
ATOM     32  H6  123 d   1       8.522  -0.625  23.968  0.00  0.00     0.157 HD
ATOM     33  H7  123 d   1       7.599  -1.175  25.392  0.00  0.00     0.157 HD
BRANCH  30  34
ATOM     34  N1  123 d   1       7.546   1.032  26.517  0.00  0.00    -0.385 N 
ATOM     35  H4  123 d   1       7.076   0.272  27.029  0.00  0.00     0.157 HD
ATOM     36  H5  123 d   1       7.567   1.983  26.912  0.00  0.00     0.157 HD
ENDBRANCH  30  34
ENDBRANCH   1  30
TORSDOF 6
