REMARK  5 active torsions:
REMARK  status: ('A' for Active; 'I' for Inactive)
REMARK    1  A    between atoms: C7_23  and  C1_17 
REMARK    2  A    between atoms: C7_23  and  N1_24 
REMARK    3  A    between atoms: C8_28  and  C1'_29 
REMARK    4  A    between atoms: C5'_33  and  C1'_36 
REMARK    5  A    between atoms: C6'_34  and  O6'_35 
ROOT
ATOM      1  H9  132 d   1      13.863 -15.252  18.942  0.00  0.00     0.085 H 
ATOM      2  H10 132 d   1      15.146 -16.321  17.137  0.00  0.00     0.083 H 
ATOM      3  H11 132 d   1      16.682 -14.992  15.769  0.00  0.00     0.085 H 
ATOM      4  C1' 132 d   1      14.696 -13.291  18.655  0.00  0.00     0.025 A 
ATOM      5  C2' 132 d   1      14.553 -14.655  18.357  0.00  0.00    -0.068 A 
ATOM      6  C3' 132 d   1      15.270 -15.262  17.334  0.00  0.00    -0.081 A 
ATOM      7  C4' 132 d   1      16.134 -14.518  16.575  0.00  0.00    -0.070 A 
ATOM      8  C5' 132 d   1      16.317 -13.162  16.825  0.00  0.00     0.008 A 
ATOM      9  C6' 132 d   1      15.592 -12.509  17.880  0.00  0.00     0.089 A 
ENDROOT
BRANCH   4  10
ATOM     10  C8  132 d   1      13.979 -12.765  19.741  0.00  0.00     0.046 A 
ATOM     11  C9  132 d   1      13.031 -13.425  20.517  0.00  0.00    -0.044 A 
ATOM     12  H8  132 d   1      12.670 -14.444  20.389  0.00  0.00     0.088 H 
ATOM     13  C5  132 d   1      12.651 -12.533  21.466  0.00  0.00    -0.006 A 
ATOM     14  C4  132 d   1      13.321 -11.376  21.257  0.00  0.00     0.044 A 
ATOM     15  C6  132 d   1      11.740 -12.681  22.471  0.00  0.00    -0.056 A 
ATOM     16  C3  132 d   1      13.116 -10.280  22.090  0.00  0.00    -0.034 A 
ATOM     17  N3  132 d   1      14.096 -11.548  20.204  0.00  0.00    -0.355 N 
ATOM     18  H1  132 d   1      13.664  -9.359  21.925  0.00  0.00     0.089 H 
ATOM     19  C2  132 d   1      12.189 -10.376  23.151  0.00  0.00     0.050 A 
ATOM     20  C1  132 d   1      11.523 -11.614  23.360  0.00  0.00     0.030 A 
ATOM     21 CL2  132 d   1      11.994  -8.958  24.231  0.00  0.00    -0.083 Cl
ATOM     22  H7  132 d   1      14.709 -10.824  19.802  0.00  0.00     0.166 HD
ATOM     23  H2  132 d   1      11.191 -13.609  22.582  0.00  0.00     0.086 H 
BRANCH  20  24
ATOM     24  C7  132 d   1      10.596 -11.803  24.384  0.00  0.00     0.104 C 
ATOM     25  N2  132 d   1      10.300 -10.839  25.220  0.00  0.00    -0.385 N 
ATOM     26  H5  132 d   1      10.734  -9.911  25.111  0.00  0.00     0.157 HD
ATOM     27  H6  132 d   1       9.633 -11.009  25.986  0.00  0.00     0.157 HD
BRANCH  24  28
ATOM     28  N1  132 d   1      10.034 -12.976  24.538  0.00  0.00    -0.385 N 
ATOM     29  H3  132 d   1       9.348 -13.123  25.292  0.00  0.00     0.157 HD
ATOM     30  H4  132 d   1      10.278 -13.751  23.905  0.00  0.00     0.157 HD
ENDBRANCH  24  28
ENDBRANCH  20  24
ENDBRANCH   4  10
BRANCH   9  31
ATOM     31  O6' 132 d   1      15.754 -11.152  18.166  0.00  0.00    -0.359 OA
ATOM     32  H12 132 d   1      15.191 -10.913  18.893  0.00  0.00     0.217 HD
ENDBRANCH   9  31
BRANCH   8  33
ATOM     33  C1' 132 d   1      17.242 -12.499  16.031  0.00  0.00    -0.023 A 
ATOM     34  C6' 132 d   1      18.580 -12.937  15.986  0.00  0.00    -0.072 A 
ATOM     35  C5' 132 d   1      19.480 -12.259  15.226  0.00  0.00    -0.082 A 
ATOM     36  H17 132 d   1      18.889 -13.808  16.553  0.00  0.00     0.084 H 
ATOM     37  H16 132 d   1      20.517 -12.566  15.160  0.00  0.00     0.083 H 
ATOM     38  C4' 132 d   1      18.979 -11.104  14.509  0.00  0.00    -0.083 A 
ATOM     39  H15 132 d   1      19.692 -10.504  13.956  0.00  0.00     0.083 H 
ATOM     40  C3' 132 d   1      17.750 -10.744  14.485  0.00  0.00    -0.082 A 
ATOM     41  H14 132 d   1      17.430  -9.916  13.862  0.00  0.00     0.083 H 
ATOM     42  C2' 132 d   1      16.852 -11.418  15.255  0.00  0.00    -0.072 A 
ATOM     43  H13 132 d   1      15.814 -11.104  15.262  0.00  0.00     0.084 H 
ENDBRANCH   8  33
TORSDOF 5
