REMARK  5 active torsions:
REMARK  status: ('A' for Active; 'I' for Inactive)
REMARK    1  A    between atoms: C7_23  and  C1_17 
REMARK    2  A    between atoms: C7_23  and  N1_24 
REMARK    3  A    between atoms: C8_28  and  C1'_29 
REMARK    4  A    between atoms: C5'_33  and  C1'_36 
REMARK    5  A    between atoms: C6'_34  and  O6'_35 
ROOT
ATOM      1  H9  130 d   1      14.304 -15.216  18.583  0.00  0.00     0.085 H 
ATOM      2  H10 130 d   1      15.771 -16.235  16.896  0.00  0.00     0.083 H 
ATOM      3  H11 130 d   1      17.331 -14.834  15.618  0.00  0.00     0.085 H 
ATOM      4  C1' 130 d   1      15.020 -13.209  18.258  0.00  0.00     0.044 A 
ATOM      5  C2' 130 d   1      14.987 -14.592  18.018  0.00  0.00    -0.067 A 
ATOM      6  C3' 130 d   1      15.810 -15.167  17.075  0.00  0.00    -0.081 A 
ATOM      7  C4' 130 d   1      16.687 -14.373  16.358  0.00  0.00    -0.070 A 
ATOM      8  C5' 130 d   1      16.766 -12.988  16.562  0.00  0.00     0.008 A 
ATOM      9  C6' 130 d   1      15.916 -12.397  17.519  0.00  0.00     0.090 A 
ENDROOT
BRANCH   4  10
ATOM     10  C8  130 d   1      14.183 -12.667  19.238  0.00  0.00     0.142 A 
ATOM     11  N4  130 d   1      13.512 -13.399  20.133  0.00  0.00    -0.338 N 
ATOM     12  H8  130 d   1      13.410 -14.422  20.197  0.00  0.00     0.167 HD
ATOM     13  C5  130 d   1      13.019 -12.463  20.908  0.00  0.00     0.063 A 
ATOM     14  C4  130 d   1      13.370 -11.222  20.504  0.00  0.00     0.086 A 
ATOM     15  C6  130 d   1      12.205 -12.654  22.023  0.00  0.00    -0.041 A 
ATOM     16  C3  130 d   1      12.948 -10.086  21.152  0.00  0.00    -0.052 A 
ATOM     17  N3  130 d   1      14.100 -11.385  19.455  0.00  0.00    -0.228 NA
ATOM     18  H2  130 d   1      13.239  -9.102  20.802  0.00  0.00     0.087 H 
ATOM     19  C2  130 d   1      12.134 -10.239  22.274  0.00  0.00    -0.067 A 
ATOM     20  H1  130 d   1      11.787  -9.362  22.808  0.00  0.00     0.085 H 
ATOM     21  C1  130 d   1      11.758 -11.519  22.720  0.00  0.00     0.009 A 
ATOM     22  H3  130 d   1      11.925 -13.651  22.344  0.00  0.00     0.088 H 
BRANCH  21  23
ATOM     23  C7  130 d   1      10.958 -11.640  23.840  0.00  0.00     0.102 C 
ATOM     24  N2  130 d   1      10.864 -10.631  24.681  0.00  0.00    -0.385 N 
ATOM     25  H6  130 d   1      11.387  -9.762  24.503  0.00  0.00     0.157 HD
ATOM     26  H7  130 d   1      10.268 -10.711  25.517  0.00  0.00     0.157 HD
BRANCH  23  27
ATOM     27  N1  130 d   1      10.310 -12.754  24.035  0.00  0.00    -0.385 N 
ATOM     28  H4  130 d   1       9.709 -12.862  24.864  0.00  0.00     0.157 HD
ATOM     29  H5  130 d   1      10.399 -13.527  23.360  0.00  0.00     0.157 HD
ENDBRANCH  23  27
ENDBRANCH  21  23
ENDBRANCH   4  10
BRANCH   9  30
ATOM     30  O6' 130 d   1      15.924 -11.032  17.728  0.00  0.00    -0.359 OA
ATOM     31  H12 130 d   1      15.293 -10.812  18.404  0.00  0.00     0.217 HD
ENDBRANCH   9  30
BRANCH   8  32
ATOM     32  C1' 130 d   1      17.744 -12.301  15.816  0.00  0.00    -0.023 A 
ATOM     33  C6' 130 d   1      19.073 -12.796  15.830  0.00  0.00    -0.072 A 
ATOM     34  C5' 130 d   1      20.075 -12.179  15.082  0.00  0.00    -0.082 A 
ATOM     35  H17 130 d   1      19.313 -13.666  16.430  0.00  0.00     0.084 H 
ATOM     36  H16 130 d   1      21.087 -12.566  15.105  0.00  0.00     0.083 H 
ATOM     37  C4' 130 d   1      19.772 -11.066  14.307  0.00  0.00    -0.083 A 
ATOM     38  H15 130 d   1      20.545 -10.587  13.717  0.00  0.00     0.083 H 
ATOM     39  C3' 130 d   1      18.467 -10.568  14.292  0.00  0.00    -0.082 A 
ATOM     40  H14 130 d   1      18.235  -9.693  13.695  0.00  0.00     0.083 H 
ATOM     41  C2' 130 d   1      17.460 -11.181  15.034  0.00  0.00    -0.072 A 
ATOM     42  H13 130 d   1      16.451 -10.786  15.004  0.00  0.00     0.084 H 
ENDBRANCH   8  32
TORSDOF 5
