REMARK  5 active torsions:
REMARK  status: ('A' for Active; 'I' for Inactive)
REMARK    1  A    between atoms: C7_7  and  C1_1 
REMARK    2  A    between atoms: C7_7  and  N1_8 
REMARK    3  A    between atoms: C8_12  and  C1'_13 
REMARK    4  A    between atoms: C5'_17  and  C1'_20 
REMARK    5  A    between atoms: C6'_18  and  O6'_19 
ROOT
ATOM      1  C1' 132 d   1      10.215   6.185  24.468  0.00  0.00     0.025 A 
ATOM      2  C2' 132 d   1      10.022   6.965  25.626  0.00  0.00    -0.068 A 
ATOM      3  C3' 132 d   1      10.331   8.332  25.642  0.00  0.00    -0.081 A 
ATOM      4  C4' 132 d   1      10.823   8.952  24.511  0.00  0.00    -0.070 A 
ATOM      5  C5' 132 d   1      11.027   8.222  23.330  0.00  0.00     0.008 A 
ATOM      6  C6' 132 d   1      10.708   6.837  23.302  0.00  0.00     0.089 A 
ATOM      7  H9  132 d   1       9.627   6.499  26.521  0.00  0.00     0.085 H 
ATOM      8  H10 132 d   1      10.183   8.907  26.549  0.00  0.00     0.083 H 
ATOM      9  H11 132 d   1      11.053  10.011  24.535  0.00  0.00     0.085 H 
ENDROOT
BRANCH   1  10
ATOM     10  C8  132 d   1       9.864   4.796  24.482  0.00  0.00     0.046 A 
ATOM     11  C9  132 d   1       9.555   3.994  25.594  0.00  0.00    -0.044 A 
ATOM     12  C5  132 d   1       9.249   2.745  25.095  0.00  0.00    -0.006 A 
ATOM     13  H8  132 d   1       9.557   4.298  26.640  0.00  0.00     0.088 H 
ATOM     14  C4  132 d   1       9.354   2.810  23.744  0.00  0.00     0.044 A 
ATOM     15  C6  132 d   1       8.864   1.583  25.758  0.00  0.00    -0.056 A 
ATOM     16  C3  132 d   1       9.161   1.683  22.966  0.00  0.00    -0.034 A 
ATOM     17  N3  132 d   1       9.793   4.011  23.425  0.00  0.00    -0.355 N 
ATOM     18  C2  132 d   1       8.752   0.497  23.585  0.00  0.00     0.050 A 
ATOM     19  H1  132 d   1       9.324   1.718  21.895  0.00  0.00     0.089 H 
ATOM     20  C1  132 d   1       8.578   0.424  24.997  0.00  0.00     0.030 A 
ATOM     21 CL2  132 d   1       8.361  -0.835  22.474  0.00  0.00    -0.083 Cl
ATOM     22  H7  132 d   1      10.049   4.300  22.470  0.00  0.00     0.166 HD
ATOM     23  H2  132 d   1       8.784   1.566  26.839  0.00  0.00     0.086 H 
BRANCH  20  24
ATOM     24  C7  132 d   1       8.228  -0.794  25.641  0.00  0.00     0.104 C 
ATOM     25  N2  132 d   1       8.613  -1.921  25.109  0.00  0.00    -0.385 N 
ATOM     26  H5  132 d   1       9.167  -1.918  24.240  0.00  0.00     0.157 HD
ATOM     27  H6  132 d   1       8.363  -2.814  25.558  0.00  0.00     0.157 HD
BRANCH  24  28
ATOM     28  N1  132 d   1       7.521  -0.778  26.749  0.00  0.00    -0.385 N 
ATOM     29  H3  132 d   1       7.270  -1.663  27.212  0.00  0.00     0.157 HD
ATOM     30  H4  132 d   1       7.218   0.119  27.154  0.00  0.00     0.157 HD
ENDBRANCH  24  28
ENDBRANCH  20  24
ENDBRANCH   1  10
BRANCH   6  31
ATOM     31  O6' 132 d   1      10.878   6.134  22.125  0.00  0.00    -0.359 OA
ATOM     32  H12 132 d   1      11.496   5.426  22.267  0.00  0.00     0.217 HD
ENDBRANCH   6  31
BRANCH   5  33
ATOM     33  C1' 132 d   1      11.613   8.928  22.261  0.00  0.00    -0.023 A 
ATOM     34  C6' 132 d   1      11.098  10.147  21.822  0.00  0.00    -0.072 A 
ATOM     35  C5' 132 d   1      11.740  10.860  20.806  0.00  0.00    -0.082 A 
ATOM     36  H17 132 d   1      10.195  10.544  22.271  0.00  0.00     0.084 H 
ATOM     37  C4' 132 d   1      12.896  10.361  20.234  0.00  0.00    -0.083 A 
ATOM     38  H16 132 d   1      11.332  11.805  20.466  0.00  0.00     0.083 H 
ATOM     39  C3' 132 d   1      13.407   9.142  20.654  0.00  0.00    -0.082 A 
ATOM     40  H15 132 d   1      13.403  10.923  19.457  0.00  0.00     0.083 H 
ATOM     41  C2' 132 d   1      12.772   8.435  21.657  0.00  0.00    -0.072 A 
ATOM     42  H14 132 d   1      14.305   8.744  20.195  0.00  0.00     0.083 H 
ATOM     43  H13 132 d   1      13.179   7.484  21.980  0.00  0.00     0.084 H 
ENDBRANCH   5  33
TORSDOF 5
