REMARK  9 active torsions:
REMARK  status: ('A' for Active; 'I' for Inactive)
REMARK    1  A    between atoms: C1_1  and  C7_7 
REMARK    2  A    between atoms: C7_7  and  N1_8 
REMARK    3  A    between atoms: C8_12  and  C1'_13 
REMARK    4  A    between atoms: C5'_17  and  O5'_20 
REMARK    5  A    between atoms: C6'_18  and  O6'_19 
REMARK    6  A    between atoms: O5'_20  and  C10_21 
REMARK    7  A    between atoms: C10_21  and  C20_22 
REMARK    8  A    between atoms: C20_22  and  C40_24 
REMARK    9  A    between atoms: C20_22  and  C30_23 
ROOT
ATOM      1  C1' 133 d   1      10.024   7.330  23.661  0.00  0.00     0.046 A 
ATOM      2  C2' 133 d   1       9.607   8.195  24.673  0.00  0.00    -0.066 A 
ATOM      3  C3' 133 d   1       9.842   9.542  24.587  0.00  0.00    -0.079 A 
ATOM      4  C4' 133 d   1      10.430  10.058  23.443  0.00  0.00    -0.048 A 
ATOM      5  C5' 133 d   1      10.856   9.220  22.407  0.00  0.00     0.102 A 
ATOM      6  C6' 133 d   1      10.619   7.869  22.509  0.00  0.00     0.113 A 
ATOM      7  H8  133 d   1       9.090   7.796  25.538  0.00  0.00     0.085 H 
ATOM      8  H9  133 d   1       9.571  10.198  25.406  0.00  0.00     0.083 H 
ATOM      9  H10 133 d   1      10.562  11.130  23.349  0.00  0.00     0.087 H 
ENDROOT
BRANCH   1  10
ATOM     10  C8  133 d   1       9.789   5.975  23.763  0.00  0.00     0.142 A 
ATOM     11  N4  133 d   1       9.073   5.487  24.759  0.00  0.00    -0.338 N 
ATOM     12  C5  133 d   1       9.143   4.222  24.436  0.00  0.00     0.064 A 
ATOM     13  H7  133 d   1       8.604   5.957  25.547  0.00  0.00     0.167 HD
ATOM     14  C4  133 d   1       9.894   3.985  23.327  0.00  0.00     0.088 A 
ATOM     15  C6  133 d   1       8.561   3.236  25.176  0.00  0.00    -0.038 A 
ATOM     16  C3  133 d   1      10.089   2.746  22.809  0.00  0.00    -0.015 A 
ATOM     17  N3  133 d   1      10.280   5.133  22.905  0.00  0.00    -0.228 NA
ATOM     18  C2  133 d   1       9.502   1.701  23.546  0.00  0.00     0.132 A 
ATOM     19  H1  133 d   1      10.653   2.575  21.899  0.00  0.00     0.092 H 
ATOM     20  F2  133 d   1       9.723   0.474  23.074  0.00  0.00    -0.205 F 
ATOM     21  C1  133 d   1       8.702   1.906  24.721  0.00  0.00     0.048 A 
ATOM     22  H2  133 d   1       8.010   3.464  26.081  0.00  0.00     0.088 H 
BRANCH  21  23
ATOM     23  C7  133 d   1       8.096   0.866  25.444  0.00  0.00     0.105 C 
ATOM     24  N2  133 d   1       7.969  -0.341  24.955  0.00  0.00    -0.385 N 
ATOM     25  H5  133 d   1       8.340  -0.559  24.019  0.00  0.00     0.157 HD
ATOM     26  H6  133 d   1       7.498  -1.073  25.506  0.00  0.00     0.157 HD
BRANCH  23  27
ATOM     27  N1  133 d   1       7.622   1.129  26.630  0.00  0.00    -0.385 N 
ATOM     28  H3  133 d   1       7.173   0.384  27.182  0.00  0.00     0.157 HD
ATOM     29  H4  133 d   1       7.697   2.081  27.015  0.00  0.00     0.157 HD
ENDBRANCH  23  27
ENDBRANCH  21  23
ENDBRANCH   1  10
BRANCH   6  30
ATOM     30  O6' 133 d   1      11.036   7.053  21.474  0.00  0.00    -0.357 OA
ATOM     31  H11 133 d   1      10.811   6.152  21.673  0.00  0.00     0.217 HD
ENDBRANCH   6  30
BRANCH   5  32
ATOM     32  O5' 133 d   1      11.457   9.700  21.255  0.00  0.00    -0.348 OA
BRANCH  32  33
ATOM     33  C10 133 d   1      12.269  10.858  21.478  0.00  0.00     0.029 C 
ATOM     34  H12 133 d   1      13.088  10.600  22.165  0.00  0.00     0.075 H 
ATOM     35  H13 133 d   1      11.653  11.653  21.924  0.00  0.00     0.075 H 
BRANCH  33  36
ATOM     36  C20 133 d   1      12.855  11.354  20.157  0.00  0.00    -0.040 C 
ATOM     37  H14 133 d   1      13.097  12.421  20.266  0.00  0.00     0.042 H 
BRANCH  36  38
ATOM     38  C40 133 d   1      11.826  11.215  19.047  0.00  0.00    -0.071 C 
ATOM     39  H18 133 d   1      10.913  11.763  19.323  0.00  0.00     0.028 H 
ATOM     40  H19 133 d   1      11.585  10.152  18.901  0.00  0.00     0.028 H 
ATOM     41  H20 133 d   1      12.235  11.630  18.114  0.00  0.00     0.028 H 
ENDBRANCH  36  38
BRANCH  36  42
ATOM     42  C30 133 d   1      14.152  10.607  19.824  0.00  0.00    -0.071 C 
ATOM     43  H15 133 d   1      14.555  10.980  18.871  0.00  0.00     0.028 H 
ATOM     44  H16 133 d   1      13.943   9.530  19.738  0.00  0.00     0.028 H 
ATOM     45  H17 133 d   1      14.888  10.775  20.624  0.00  0.00     0.028 H 
ENDBRANCH  36  42
ENDBRANCH  33  36
ENDBRANCH  32  33
ENDBRANCH   5  32
TORSDOF 9
