REMARK  5 active torsions:
REMARK  status: ('A' for Active; 'I' for Inactive)
REMARK    1  A    between atoms: C7_7  and  C1_1 
REMARK    2  A    between atoms: C4_4  and  N3_10 
REMARK    3  A    between atoms: C7_7  and  N1_8 
REMARK       I    between atoms: N3_10  and  C8_11 
REMARK    4  A    between atoms: C8_11  and  C9_13 
REMARK    5  A    between atoms: C14_18  and  O14_19 
ROOT
ATOM      1  C1  135 d   1       8.609   0.527  25.373  0.00  0.00     0.007 A 
ATOM      2  C2  135 d   1       9.440   0.678  24.251  0.00  0.00    -0.067 A 
ATOM      3  C3  135 d   1       9.888   1.915  23.839  0.00  0.00    -0.056 A 
ATOM      4  C4  135 d   1       9.505   3.028  24.550  0.00  0.00     0.035 A 
ATOM      5  C5  135 d   1       8.690   2.955  25.656  0.00  0.00    -0.056 A 
ATOM      6  C6  135 d   1       8.241   1.703  26.061  0.00  0.00    -0.067 A 
ATOM      7  H1  135 d   1       9.738  -0.203  23.693  0.00  0.00     0.085 H 
ATOM      8  H2  135 d   1      10.530   2.009  22.971  0.00  0.00     0.086 H 
ATOM      9  H3  135 d   1       8.405   3.850  26.197  0.00  0.00     0.086 H 
ATOM     10  H4  135 d   1       7.592   1.628  26.926  0.00  0.00     0.085 H 
ENDROOT
BRANCH   4  11
ATOM     11  N3  135 d   1      10.024   4.144  24.094  0.00  0.00    -0.323 N 
ATOM     12  C8  135 d   1       9.592   5.367  24.310  0.00  0.00     0.259 C 
ATOM     13  O8  135 d   1       8.610   5.668  24.977  0.00  0.00    -0.267 OA
ATOM     14  H9  135 d   1      10.837   4.054  23.519  0.00  0.00     0.169 HD
BRANCH  12  15
ATOM     15  C9  135 d   1      10.399   6.342  23.650  0.00  0.00     0.065 A 
ATOM     16  C14 135 d   1      11.674   6.107  23.023  0.00  0.00     0.081 A 
ATOM     17  C13 135 d   1      12.351   7.146  22.384  0.00  0.00    -0.050 A 
ATOM     18  C12 135 d   1      11.834   8.429  22.375  0.00  0.00    -0.080 A 
ATOM     19  H13 135 d   1      13.294   6.945  21.888  0.00  0.00     0.087 H 
ATOM     20  C11 135 d   1      10.610   8.675  22.970  0.00  0.00    -0.082 A 
ATOM     21  H12 135 d   1      12.384   9.236  21.905  0.00  0.00     0.083 H 
ATOM     22  C10 135 d   1       9.921   7.663  23.615  0.00  0.00    -0.065 A 
ATOM     23  H11 135 d   1      10.186   9.672  22.931  0.00  0.00     0.083 H 
ATOM     24  H10 135 d   1       8.984   7.896  24.108  0.00  0.00     0.085 H 
BRANCH  16  25
ATOM     25  O14 135 d   1      12.330   4.883  22.966  0.00  0.00    -0.360 OA
ATOM     26  H14 135 d   1      12.443   4.627  22.058  0.00  0.00     0.217 HD
ENDBRANCH  16  25
ENDBRANCH  12  15
ENDBRANCH   4  11
BRANCH   1  27
ATOM     27  C7  135 d   1       8.168  -0.736  25.788  0.00  0.00     0.102 C 
ATOM     28  N2  135 d   1       8.410  -1.790  25.059  0.00  0.00    -0.385 N 
ATOM     29  H7  135 d   1       8.924  -1.695  24.172  0.00  0.00     0.157 HD
ATOM     30  H8  135 d   1       8.087  -2.717  25.371  0.00  0.00     0.157 HD
BRANCH  27  31
ATOM     31  N1  135 d   1       7.516  -0.847  26.916  0.00  0.00    -0.385 N 
ATOM     32  H5  135 d   1       7.187  -1.770  27.232  0.00  0.00     0.157 HD
ATOM     33  H6  135 d   1       7.332  -0.011  27.489  0.00  0.00     0.157 HD
ENDBRANCH  27  31
ENDBRANCH   1  27
TORSDOF 5
