REMARK  5 active torsions:
REMARK  status: ('A' for Active; 'I' for Inactive)
REMARK    1  A    between atoms: C7_7  and  C1_1 
REMARK    2  A    between atoms: C7_7  and  N1_8 
REMARK    3  A    between atoms: C8_12  and  C1'_13 
REMARK    4  A    between atoms: C5'_17  and  C1'_20 
REMARK    5  A    between atoms: C6'_18  and  O6'_19 
ROOT
ATOM      1  C1' 130 d   1       9.845   6.961  23.868  0.00  0.00     0.044 A 
ATOM      2  C2' 130 d   1       9.435   7.802  24.902  0.00  0.00    -0.067 A 
ATOM      3  C3' 130 d   1       9.654   9.171  24.869  0.00  0.00    -0.081 A 
ATOM      4  C4' 130 d   1      10.292   9.726  23.776  0.00  0.00    -0.070 A 
ATOM      5  C5' 130 d   1      10.726   8.944  22.713  0.00  0.00     0.008 A 
ATOM      6  C6' 130 d   1      10.498   7.565  22.766  0.00  0.00     0.090 A 
ATOM      7  H9  130 d   1       8.929   7.372  25.759  0.00  0.00     0.085 H 
ATOM      8  H10 130 d   1       9.329   9.798  25.691  0.00  0.00     0.083 H 
ATOM      9  H11 130 d   1      10.458  10.797  23.747  0.00  0.00     0.085 H 
ENDROOT
BRANCH   1  10
ATOM     10  C8  130 d   1       9.608   5.589  23.941  0.00  0.00     0.142 A 
ATOM     11  N4  130 d   1       8.865   5.049  24.901  0.00  0.00    -0.338 N 
ATOM     12  C5  130 d   1       8.974   3.775  24.554  0.00  0.00     0.063 A 
ATOM     13  H8  130 d   1       8.357   5.489  25.681  0.00  0.00     0.167 HD
ATOM     14  C4  130 d   1       9.735   3.585  23.459  0.00  0.00     0.086 A 
ATOM     15  C6  130 d   1       8.375   2.741  25.234  0.00  0.00    -0.041 A 
ATOM     16  C3  130 d   1       9.982   2.366  22.911  0.00  0.00    -0.052 A 
ATOM     17  N3  130 d   1      10.127   4.761  23.084  0.00  0.00    -0.228 NA
ATOM     18  C2  130 d   1       9.389   1.276  23.569  0.00  0.00    -0.067 A 
ATOM     19  H2  130 d   1      10.595   2.243  22.026  0.00  0.00     0.087 H 
ATOM     20  C1  130 d   1       8.577   1.433  24.745  0.00  0.00     0.009 A 
ATOM     21  H1  130 d   1       9.550   0.279  23.175  0.00  0.00     0.085 H 
ATOM     22  H3  130 d   1       7.769   2.924  26.114  0.00  0.00     0.088 H 
BRANCH  20  23
ATOM     23  C7  130 d   1       8.016   0.318  25.388  0.00  0.00     0.102 C 
ATOM     24  N2  130 d   1       7.875  -0.790  24.711  0.00  0.00    -0.385 N 
ATOM     25  H6  130 d   1       8.166  -0.831  23.724  0.00  0.00     0.157 HD
ATOM     26  H7  130 d   1       7.473  -1.623  25.164  0.00  0.00     0.157 HD
BRANCH  23  27
ATOM     27  N1  130 d   1       7.646   0.381  26.653  0.00  0.00    -0.385 N 
ATOM     28  H4  130 d   1       7.236  -0.445  27.111  0.00  0.00     0.157 HD
ATOM     29  H5  130 d   1       7.767   1.256  27.182  0.00  0.00     0.157 HD
ENDBRANCH  23  27
ENDBRANCH  20  23
ENDBRANCH   1  10
BRANCH   6  30
ATOM     30  O6' 130 d   1      10.945   6.803  21.701  0.00  0.00    -0.359 OA
ATOM     31  H12 130 d   1      10.732   5.890  21.855  0.00  0.00     0.217 HD
ENDBRANCH   6  30
BRANCH   5  32
ATOM     32  C1' 130 d   1      11.366   9.555  21.646  0.00  0.00    -0.023 A 
ATOM     33  C6' 130 d   1      10.859  10.738  21.104  0.00  0.00    -0.072 A 
ATOM     34  C5' 130 d   1      11.486  11.386  20.050  0.00  0.00    -0.082 A 
ATOM     35  H17 130 d   1       9.951  11.161  21.518  0.00  0.00     0.084 H 
ATOM     36  C4' 130 d   1      12.650  10.861  19.507  0.00  0.00    -0.083 A 
ATOM     37  H16 130 d   1      11.067  12.302  19.651  0.00  0.00     0.083 H 
ATOM     38  C3' 130 d   1      13.174   9.685  20.027  0.00  0.00    -0.082 A 
ATOM     39  H15 130 d   1      13.146  11.364  18.685  0.00  0.00     0.083 H 
ATOM     40  C2' 130 d   1      12.539   9.041  21.081  0.00  0.00    -0.072 A 
ATOM     41  H14 130 d   1      14.083   9.268  19.608  0.00  0.00     0.083 H 
ATOM     42  H13 130 d   1      12.960   8.123  21.474  0.00  0.00     0.084 H 
ENDBRANCH   5  32
TORSDOF 5
