REMARK  6 active torsions:
REMARK  status: ('A' for Active; 'I' for Inactive)
REMARK    1  A    between atoms: C7_7  and  C1_1 
REMARK    2  A    between atoms: C4_4  and  N3_10 
REMARK    3  A    between atoms: C7_7  and  N1_8 
REMARK       I    between atoms: N3_10  and  C8_11 
REMARK    4  A    between atoms: C8_11  and  C9_13 
REMARK    5  A    between atoms: C11_15  and  C21_16 
REMARK    6  A    between atoms: C14_19  and  O14_20 
ROOT
ATOM      1  N3  136 d   1      10.021   4.099  24.414  0.00  0.00    -0.323 N 
ATOM      2  C8  136 d   1       9.573   5.252  24.863  0.00  0.00     0.259 C 
ATOM      3  O8  136 d   1       8.573   5.330  25.572  0.00  0.00    -0.267 OA
ATOM      4  H8  136 d   1      10.828   4.109  23.823  0.00  0.00     0.169 HD
ENDROOT
BRANCH   1   5
ATOM      5  C4  136 d   1       9.478   2.940  24.691  0.00  0.00     0.036 A 
ATOM      6  C3  136 d   1       9.210   2.025  23.696  0.00  0.00    -0.035 A 
ATOM      7  C2  136 d   1       8.675   0.788  24.077  0.00  0.00     0.050 A 
ATOM      8  H1  136 d   1       9.406   2.255  22.655  0.00  0.00     0.089 H 
ATOM      9  C1  136 d   1       8.424   0.477  25.438  0.00  0.00     0.029 A 
ATOM     10 CL2  136 d   1       8.271  -0.391  22.795  0.00  0.00    -0.083 Cl
ATOM     11  C6  136 d   1       8.719   1.463  26.390  0.00  0.00    -0.066 A 
ATOM     12  C5  136 d   1       9.240   2.686  26.031  0.00  0.00    -0.056 A 
ATOM     13  H3  136 d   1       8.532   1.257  27.438  0.00  0.00     0.085 H 
ATOM     14  H2  136 d   1       9.460   3.435  26.783  0.00  0.00     0.086 H 
BRANCH   9  15
ATOM     15  C7  136 d   1       7.966  -0.763  25.871  0.00  0.00     0.104 C 
ATOM     16  N2  136 d   1       8.334  -1.837  25.232  0.00  0.00    -0.385 N 
ATOM     17  H6  136 d   1       8.944  -1.761  24.405  0.00  0.00     0.157 HD
ATOM     18  H7  136 d   1       8.015  -2.762  25.553  0.00  0.00     0.157 HD
BRANCH  15  19
ATOM     19  N1  136 d   1       7.192  -0.839  26.923  0.00  0.00    -0.385 N 
ATOM     20  H4  136 d   1       6.851  -1.756  27.246  0.00  0.00     0.157 HD
ATOM     21  H5  136 d   1       6.924   0.018  27.428  0.00  0.00     0.157 HD
ENDBRANCH  15  19
ENDBRANCH   9  15
ENDBRANCH   1   5
BRANCH   2  22
ATOM     22  C9  136 d   1      10.347   6.385  24.439  0.00  0.00     0.067 A 
ATOM     23  C14 136 d   1      11.491   6.334  23.563  0.00  0.00     0.098 A 
ATOM     24  C13 136 d   1      12.188   7.510  23.217  0.00  0.00     0.041 A 
ATOM     25  C12 136 d   1      11.791   8.731  23.728  0.00  0.00    -0.059 A 
ATOM     26  I13 136 d   1      13.764   7.530  21.914  0.00  0.00    -0.042 I 
ATOM     27  C11 136 d   1      10.710   8.831  24.570  0.00  0.00    -0.060 A 
ATOM     28  H13 136 d   1      12.342   9.625  23.460  0.00  0.00     0.086 H 
ATOM     29  C10 136 d   1      10.001   7.675  24.916  0.00  0.00    -0.059 A 
ATOM     30  H9  136 d   1       9.149   7.770  25.579  0.00  0.00     0.086 H 
BRANCH  23  31
ATOM     31  O14 136 d   1      11.989   5.150  23.043  0.00  0.00    -0.358 OA
ATOM     32  H14 136 d   1      11.977   5.192  22.094  0.00  0.00     0.217 HD
ENDBRANCH  23  31
BRANCH  27  33
ATOM     33  C21 136 d   1      10.361  10.226  25.094  0.00  0.00    -0.051 C 
ATOM     34  H10 136 d   1      11.065  10.961  24.676  0.00  0.00     0.033 H 
ATOM     35  H11 136 d   1      10.431  10.234  26.192  0.00  0.00     0.033 H 
ATOM     36  H12 136 d   1       9.336  10.486  24.791  0.00  0.00     0.033 H 
ENDBRANCH  27  33
ENDBRANCH   2  22
TORSDOF 6
