REMARK  10 active torsions:
REMARK  status: ('A' for Active; 'I' for Inactive)
REMARK    1  A    between atoms: C2_3  and  C1_1 
REMARK    2  A    between atoms: N2_4  and  C2_3 
REMARK       I    between atoms: C_5  and  N2_4 
REMARK    3  A    between atoms: CA_7  and  C_5 
REMARK    4  A    between atoms: N_8  and  CA_7 
REMARK    5  A    between atoms: CA_7  and  CB_9 
REMARK       I    between atoms: C8_17  and  N_8 
REMARK    6  A    between atoms: CB_9  and  CG_10 
REMARK    7  A    between atoms: CE2_14  and  C5_16 
REMARK    8  A    between atoms: C11_31  and  C8_17 
REMARK    9  A    between atoms: C11_31  and  C3_21 
REMARK   10  A    between atoms: C10_25  and  C11_31 
ROOT
ATOM      1  CA  NON d   1      41.249  80.656  32.654  0.00  0.00     0.093 C 
ATOM      2  H6  NON d   1      40.524  81.340  32.190  0.00  0.00     0.088 H 
ENDROOT
BRANCH   1   3
ATOM      3  C   NON d   1      40.536  79.378  33.077  0.00  0.00     0.241 C 
ATOM      4  N2  NON d   1      39.351  79.134  32.510  0.00  0.00    -0.355 N 
ATOM      5  H5  NON d   1      39.050  79.746  31.779  0.00  0.00     0.162 HD
ATOM      6  O   NON d   1      41.048  78.640  33.909  0.00  0.00    -0.271 OA
BRANCH   4   7
ATOM      7  C2  NON d   1      38.463  78.032  32.886  0.00  0.00     0.025 C 
ATOM      8  H3  NON d   1      38.661  77.759  33.933  0.00  0.00     0.072 H 
ATOM      9  H4  NON d   1      37.420  78.367  32.786  0.00  0.00     0.072 H 
BRANCH   7  10
ATOM     10  C1  NON d   1      38.671  76.799  32.007  0.00  0.00    -0.010 C 
ATOM     11  N1  NON d   1      37.837  75.875  31.977  0.00  0.00    -0.315 NA
ATOM     12  H2  NON d   1      37.996  75.072  31.389  0.00  0.00     0.185 HD
ATOM     13  H1  NON d   1      39.568  76.727  31.394  0.00  0.00     0.109 H 
ENDBRANCH   7  10
ENDBRANCH   4   7
ENDBRANCH   1   3
BRANCH   1  14
ATOM     14  N   NON d   1      41.827  81.287  33.831  0.00  0.00    -0.347 N 
ATOM     15  C8  NON d   1      41.425  82.467  34.294  0.00  0.00     0.231 C 
ATOM     16  O11 NON d   1      40.496  83.110  33.802  0.00  0.00    -0.272 OA
ATOM     17  H7  NON d   1      42.561  80.811  34.315  0.00  0.00     0.163 HD
BRANCH  15  18
ATOM     18  C11 NON d   1      42.192  83.000  35.491  0.00  0.00     0.074 C 
ATOM     19  H27 NON d   1      43.179  82.514  35.478  0.00  0.00     0.069 H 
BRANCH  18  20
ATOM     20  C3  NON d   1      41.548  82.628  36.816  0.00  0.00    -0.041 A 
ATOM     21  C4  NON d   1      42.329  82.263  37.913  0.00  0.00    -0.076 A 
ATOM     22  C5  NON d   1      41.748  81.907  39.119  0.00  0.00    -0.082 A 
ATOM     23  H18 NON d   1      43.409  82.258  37.820  0.00  0.00     0.084 H 
ATOM     24  C6  NON d   1      40.368  81.912  39.249  0.00  0.00    -0.083 A 
ATOM     25  H17 NON d   1      42.371  81.625  39.960  0.00  0.00     0.083 H 
ATOM     26  C1  NON d   1      39.573  82.272  38.175  0.00  0.00    -0.082 A 
ATOM     27  H21 NON d   1      39.911  81.634  40.192  0.00  0.00     0.083 H 
ATOM     28  C2  NON d   1      40.163  82.627  36.968  0.00  0.00    -0.076 A 
ATOM     29  H20 NON d   1      38.494  82.277  38.275  0.00  0.00     0.083 H 
ATOM     30  H19 NON d   1      39.535  82.908  36.130  0.00  0.00     0.084 H 
ENDBRANCH  18  20
BRANCH  18  31
ATOM     31  C10 NON d   1      42.435  84.489  35.352  0.00  0.00    -0.041 A 
ATOM     32  C16 NON d   1      43.578  84.968  34.706  0.00  0.00    -0.076 A 
ATOM     33  C15 NON d   1      43.827  86.334  34.599  0.00  0.00    -0.082 A 
ATOM     34  H22 NON d   1      44.283  84.263  34.281  0.00  0.00     0.084 H 
ATOM     35  C14 NON d   1      42.926  87.240  35.138  0.00  0.00    -0.083 A 
ATOM     36  H23 NON d   1      44.721  86.687  34.097  0.00  0.00     0.083 H 
ATOM     37  C13 NON d   1      41.778  86.782  35.783  0.00  0.00    -0.082 A 
ATOM     38  H24 NON d   1      43.114  88.305  35.058  0.00  0.00     0.083 H 
ATOM     39  C12 NON d   1      41.539  85.419  35.886  0.00  0.00    -0.076 A 
ATOM     40  H25 NON d   1      41.073  87.490  36.204  0.00  0.00     0.083 H 
ATOM     41  H26 NON d   1      40.644  85.070  36.388  0.00  0.00     0.084 H 
ENDBRANCH  18  31
ENDBRANCH  15  18
ENDBRANCH   1  14
BRANCH   1  42
ATOM     42  CB  NON d   1      42.359  80.340  31.648  0.00  0.00    -0.014 C 
ATOM     43  H8  NON d   1      41.925  79.790  30.800  0.00  0.00     0.043 H 
ATOM     44  H9  NON d   1      43.118  79.715  32.140  0.00  0.00     0.043 H 
BRANCH  42  45
ATOM     45  CG  NON d   1      43.020  81.594  31.130  0.00  0.00    -0.055 A 
ATOM     46  CD1 NON d   1      44.135  82.132  31.773  0.00  0.00    -0.077 A 
ATOM     47  CE1 NON d   1      44.717  83.309  31.337  0.00  0.00    -0.082 A 
ATOM     48  H10 NON d   1      44.553  81.618  32.631  0.00  0.00     0.084 H 
ATOM     49  CZ  NON d   1      44.184  83.968  30.240  0.00  0.00    -0.077 A 
ATOM     50  H12 NON d   1      45.583  83.713  31.849  0.00  0.00     0.083 H 
ATOM     51  CE2 NON d   1      43.073  83.463  29.567  0.00  0.00    -0.061 A 
ATOM     52  H13 NON d   1      44.639  84.891  29.900  0.00  0.00     0.084 H 
ATOM     53  CD2 NON d   1      42.496  82.269  30.023  0.00  0.00    -0.071 A 
ATOM     54  H11 NON d   1      41.631  81.863  29.510  0.00  0.00     0.085 H 
BRANCH  51  55
ATOM     55  C5  NON d   1      42.504  84.180  28.365  0.00  0.00    -0.051 C 
ATOM     56  H14 NON d   1      41.636  83.623  27.983  0.00  0.00     0.033 H 
ATOM     57  H15 NON d   1      43.272  84.246  27.580  0.00  0.00     0.033 H 
ATOM     58  H16 NON d   1      42.190  85.193  28.657  0.00  0.00     0.033 H 
ENDBRANCH  51  55
ENDBRANCH  42  45
ENDBRANCH   1  42
TORSDOF 10
