REMARK  16 active torsions:
REMARK  status: ('A' for Active; 'I' for Inactive)
REMARK    1  A    between atoms: C1_1  and  C2_4 
REMARK    2  A    between atoms: C2_4  and  C3_5 
REMARK    3  A    between atoms: C3_5  and  C4_6 
REMARK    4  A    between atoms: C4_6  and  C5_7 
REMARK    5  A    between atoms: C5_7  and  C6_8 
REMARK    6  A    between atoms: C6_8  and  C7_9 
REMARK    7  A    between atoms: C7_9  and  C8_10 
REMARK    8  A    between atoms: C8_10  and  C9_11 
REMARK    9  A    between atoms: C10_12  and  C11_13 
REMARK   10  A    between atoms: C11_13  and  C12_14 
REMARK   11  A    between atoms: C12_14  and  C13_15 
REMARK   12  A    between atoms: C13_15  and  C14_16 
REMARK   13  A    between atoms: C14_16  and  C15_17 
REMARK   14  A    between atoms: C15_17  and  C16_18 
REMARK   15  A    between atoms: C16_18  and  C17_19 
REMARK   16  A    between atoms: C17_19  and  C18_20 
ROOT
ATOM      1  C9  OLA d   1      37.154  15.959  33.296  0.00  0.00    -0.107 C 
ATOM      2  C10 OLA d   1      37.127  15.555  31.999  0.00  0.00    -0.107 C 
ATOM      3  H15 OLA d   1      37.603  16.931  33.494  0.00  0.00     0.076 H 
ATOM      4  H16 OLA d   1      37.557  16.237  31.267  0.00  0.00     0.076 H 
ENDROOT
BRANCH   2   5
ATOM      5  C11 OLA d   1      36.558  14.248  31.463  0.00  0.00    -0.050 C 
ATOM      6  H17 OLA d   1      35.959  13.771  32.253  0.00  0.00     0.038 H 
ATOM      7  H18 OLA d   1      37.391  13.586  31.184  0.00  0.00     0.038 H 
BRANCH   5   8
ATOM      8  C12 OLA d   1      35.675  14.466  30.242  0.00  0.00    -0.062 C 
ATOM      9  H19 OLA d   1      36.269  14.300  29.331  0.00  0.00     0.033 H 
ATOM     10  H20 OLA d   1      35.295  15.498  30.250  0.00  0.00     0.033 H 
BRANCH   8  11
ATOM     11  C13 OLA d   1      34.494  13.496  30.255  0.00  0.00    -0.065 C 
ATOM     12  H21 OLA d   1      33.836  13.752  31.099  0.00  0.00     0.033 H 
ATOM     13  H22 OLA d   1      34.878  12.474  30.387  0.00  0.00     0.033 H 
BRANCH  11  14
ATOM     14  C14 OLA d   1      33.681  13.550  28.968  0.00  0.00    -0.065 C 
ATOM     15  H23 OLA d   1      34.348  13.371  28.112  0.00  0.00     0.033 H 
ATOM     16  H24 OLA d   1      33.221  14.545  28.873  0.00  0.00     0.033 H 
BRANCH  14  17
ATOM     17  C15 OLA d   1      32.590  12.497  28.976  0.00  0.00    -0.065 C 
ATOM     18  H25 OLA d   1      31.625  12.976  29.198  0.00  0.00     0.033 H 
ATOM     19  H26 OLA d   1      32.814  11.749  29.751  0.00  0.00     0.033 H 
BRANCH  17  20
ATOM     20  C16 OLA d   1      32.508  11.809  27.625  0.00  0.00    -0.065 C 
ATOM     21  H27 OLA d   1      33.047  12.416  26.883  0.00  0.00     0.033 H 
ATOM     22  H28 OLA d   1      31.451  11.724  27.332  0.00  0.00     0.033 H 
BRANCH  20  23
ATOM     23  C17 OLA d   1      33.124  10.413  27.662  0.00  0.00    -0.069 C 
ATOM     24  H29 OLA d   1      33.733  10.312  28.573  0.00  0.00     0.032 H 
ATOM     25  H30 OLA d   1      33.763  10.278  26.777  0.00  0.00     0.032 H 
BRANCH  23  26
ATOM     26  C18 OLA d   1      32.047   9.346  27.664  0.00  0.00    -0.077 C 
ATOM     27  H31 OLA d   1      32.516   8.351  27.691  0.00  0.00     0.027 H 
ATOM     28  H32 OLA d   1      31.437   9.439  26.753  0.00  0.00     0.027 H 
ATOM     29  H33 OLA d   1      31.406   9.473  28.549  0.00  0.00     0.027 H 
ENDBRANCH  23  26
ENDBRANCH  20  23
ENDBRANCH  17  20
ENDBRANCH  14  17
ENDBRANCH  11  14
ENDBRANCH   8  11
ENDBRANCH   5   8
ENDBRANCH   2   5
BRANCH   1  30
ATOM     30  C8  OLA d   1      36.618  15.189  34.512  0.00  0.00    -0.050 C 
ATOM     31  H13 OLA d   1      36.325  14.179  34.191  0.00  0.00     0.038 H 
ATOM     32  H14 OLA d   1      37.416  15.117  35.266  0.00  0.00     0.038 H 
BRANCH  30  33
ATOM     33  C7  OLA d   1      35.405  15.877  35.143  0.00  0.00    -0.062 C 
ATOM     34  H11 OLA d   1      35.580  16.963  35.146  0.00  0.00     0.033 H 
ATOM     35  H12 OLA d   1      34.517  15.650  34.535  0.00  0.00     0.033 H 
BRANCH  33  36
ATOM     36  C6  OLA d   1      35.142  15.420  36.582  0.00  0.00    -0.065 C 
ATOM     37  H9  OLA d   1      35.624  14.444  36.737  0.00  0.00     0.033 H 
ATOM     38  H10 OLA d   1      35.577  16.157  37.273  0.00  0.00     0.033 H 
BRANCH  36  39
ATOM     39  C5  OLA d   1      33.647  15.285  36.882  0.00  0.00    -0.065 C 
ATOM     40  H7  OLA d   1      33.446  15.686  37.886  0.00  0.00     0.033 H 
ATOM     41  H8  OLA d   1      33.079  15.861  36.137  0.00  0.00     0.033 H 
BRANCH  39  42
ATOM     42  C4  OLA d   1      33.197  13.823  36.830  0.00  0.00    -0.065 C 
ATOM     43  H5  OLA d   1      33.592  13.363  35.912  0.00  0.00     0.033 H 
ATOM     44  H6  OLA d   1      33.601  13.296  37.707  0.00  0.00     0.033 H 
BRANCH  42  45
ATOM     45  C3  OLA d   1      31.674  13.690  36.833  0.00  0.00    -0.056 C 
ATOM     46  H3  OLA d   1      31.324  13.268  37.787  0.00  0.00     0.033 H 
ATOM     47  H4  OLA d   1      31.200  14.669  36.669  0.00  0.00     0.033 H 
BRANCH  45  48
ATOM     48  C2  OLA d   1      31.359  12.733  35.669  0.00  0.00     0.016 C 
ATOM     49  H1  OLA d   1      31.739  13.171  34.734  0.00  0.00     0.049 H 
ATOM     50  H2  OLA d   1      31.859  11.771  35.853  0.00  0.00     0.049 H 
BRANCH  48  51
ATOM     51  C1  OLA d   1      29.848  12.491  35.529  0.00  0.00     0.172 C 
ATOM     52  O1  OLA d   1      29.044  13.412  35.807  0.00  0.00    -0.648 OA
ATOM     53  O2  OLA d   1      29.466  11.369  35.131  0.00  0.00    -0.648 OA
ENDBRANCH  48  51
ENDBRANCH  45  48
ENDBRANCH  42  45
ENDBRANCH  39  42
ENDBRANCH  36  39
ENDBRANCH  33  36
ENDBRANCH  30  33
ENDBRANCH   1  30
TORSDOF 16
