REMARK  15 active torsions:
REMARK  status: ('A' for Active; 'I' for Inactive)
REMARK    1  A    between atoms: C1_1  and  C2_2 
REMARK    2  A    between atoms: C2_2  and  C3_3 
REMARK    3  A    between atoms: C3_3  and  C4_4 
REMARK    4  A    between atoms: C4_4  and  C5_5 
REMARK    5  A    between atoms: C6_6  and  C7_7 
REMARK    6  A    between atoms: C7_7  and  C8_8 
REMARK    7  A    between atoms: C9_9  and  C10_10 
REMARK    8  A    between atoms: C10_10  and  C11_11 
REMARK    9  A    between atoms: C12_12  and  C13_13 
REMARK   10  A    between atoms: C13_13  and  C14_14 
REMARK   11  A    between atoms: C15_15  and  C16_16 
REMARK   12  A    between atoms: C16_16  and  C17_17 
REMARK   13  A    between atoms: C17_17  and  C18_18 
REMARK   14  A    between atoms: C18_18  and  C19_19 
REMARK   15  A    between atoms: C19_19  and  C20_20 
ROOT
ATOM      1  C11 ACD d   1      37.466  15.093  32.608  0.00  0.00    -0.103 C 
ATOM      2  C12 ACD d   1      36.889  14.317  31.585  0.00  0.00    -0.103 C 
ATOM      3  H15 ACD d   1      38.490  14.874  32.907  0.00  0.00     0.076 H 
ATOM      4  H16 ACD d   1      37.497  13.531  31.138  0.00  0.00     0.076 H 
ENDROOT
BRANCH   1   5
ATOM      5  C10 ACD d   1      36.766  16.171  33.286  0.00  0.00    -0.035 C 
ATOM      6  H13 ACD d   1      36.931  17.102  32.724  0.00  0.00     0.044 H 
ATOM      7  H14 ACD d   1      35.691  15.936  33.300  0.00  0.00     0.044 H 
BRANCH   5   8
ATOM      8  C9  ACD d   1      37.215  16.373  34.663  0.00  0.00    -0.103 C 
ATOM      9  C8  ACD d   1      36.339  16.384  35.766  0.00  0.00    -0.103 C 
ATOM     10  H11 ACD d   1      36.756  16.541  36.760  0.00  0.00     0.076 H 
ATOM     11  H12 ACD d   1      38.278  16.522  34.844  0.00  0.00     0.076 H 
BRANCH   9  12
ATOM     12  C7  ACD d   1      34.899  16.194  35.637  0.00  0.00    -0.035 C 
ATOM     13  H9  ACD d   1      34.490  17.025  35.044  0.00  0.00     0.044 H 
ATOM     14  H10 ACD d   1      34.719  15.245  35.111  0.00  0.00     0.044 H 
BRANCH  12  15
ATOM     15  C6  ACD d   1      34.198  16.152  36.921  0.00  0.00    -0.103 C 
ATOM     16  C5  ACD d   1      33.225  15.184  37.225  0.00  0.00    -0.106 C 
ATOM     17  H7  ACD d   1      32.739  15.210  38.199  0.00  0.00     0.076 H 
ATOM     18  H8  ACD d   1      34.440  16.902  37.672  0.00  0.00     0.076 H 
BRANCH  16  19
ATOM     19  C4  ACD d   1      32.849  14.146  36.271  0.00  0.00    -0.050 C 
ATOM     20  H5  ACD d   1      32.541  14.631  35.333  0.00  0.00     0.038 H 
ATOM     21  H6  ACD d   1      33.727  13.510  36.085  0.00  0.00     0.038 H 
BRANCH  19  22
ATOM     22  C3  ACD d   1      31.712  13.265  36.751  0.00  0.00    -0.053 C 
ATOM     23  H3  ACD d   1      32.124  12.332  37.163  0.00  0.00     0.034 H 
ATOM     24  H4  ACD d   1      31.148  13.794  37.533  0.00  0.00     0.034 H 
BRANCH  22  25
ATOM     25  C2  ACD d   1      30.783  12.936  35.601  0.00  0.00     0.016 C 
ATOM     26  H1  ACD d   1      31.180  13.399  34.685  0.00  0.00     0.049 H 
ATOM     27  H2  ACD d   1      30.752  11.844  35.476  0.00  0.00     0.049 H 
BRANCH  25  28
ATOM     28  C1  ACD d   1      29.385  13.433  35.823  0.00  0.00     0.172 C 
ATOM     29  O1  ACD d   1      28.527  12.667  36.337  0.00  0.00    -0.648 OA
ATOM     30  O2  ACD d   1      29.126  14.617  35.484  0.00  0.00    -0.648 OA
ENDBRANCH  25  28
ENDBRANCH  22  25
ENDBRANCH  19  22
ENDBRANCH  16  19
ENDBRANCH  12  15
ENDBRANCH   9  12
ENDBRANCH   5   8
ENDBRANCH   1   5
BRANCH   2  31
ATOM     31  C13 ACD d   1      35.530  14.496  31.084  0.00  0.00    -0.035 C 
ATOM     32  H17 ACD d   1      35.205  15.525  31.298  0.00  0.00     0.044 H 
ATOM     33  H18 ACD d   1      34.865  13.787  31.598  0.00  0.00     0.044 H 
BRANCH  31  34
ATOM     34  C14 ACD d   1      35.445  14.263  29.639  0.00  0.00    -0.103 C 
ATOM     35  C15 ACD d   1      34.372  13.595  29.004  0.00  0.00    -0.106 C 
ATOM     36  H20 ACD d   1      34.408  13.472  27.923  0.00  0.00     0.076 H 
ATOM     37  H19 ACD d   1      36.260  14.627  29.015  0.00  0.00     0.076 H 
BRANCH  35  38
ATOM     38  C16 ACD d   1      33.221  13.063  29.721  0.00  0.00    -0.050 C 
ATOM     39  H21 ACD d   1      32.737  13.886  30.268  0.00  0.00     0.038 H 
ATOM     40  H22 ACD d   1      33.573  12.305  30.436  0.00  0.00     0.038 H 
BRANCH  38  41
ATOM     41  C17 ACD d   1      32.192  12.421  28.800  0.00  0.00    -0.062 C 
ATOM     42  H23 ACD d   1      32.639  12.287  27.804  0.00  0.00     0.033 H 
ATOM     43  H24 ACD d   1      31.318  13.085  28.724  0.00  0.00     0.033 H 
BRANCH  41  44
ATOM     44  C18 ACD d   1      31.738  11.067  29.322  0.00  0.00    -0.065 C 
ATOM     45  H25 ACD d   1      32.571  10.597  29.865  0.00  0.00     0.033 H 
ATOM     46  H26 ACD d   1      31.452  10.434  28.469  0.00  0.00     0.033 H 
BRANCH  44  47
ATOM     47  C19 ACD d   1      30.546  11.196  30.263  0.00  0.00    -0.069 C 
ATOM     48  H27 ACD d   1      29.616  11.153  29.677  0.00  0.00     0.032 H 
ATOM     49  H28 ACD d   1      30.604  12.160  30.789  0.00  0.00     0.032 H 
BRANCH  47  50
ATOM     50  C20 ACD d   1      30.545  10.079  31.275  0.00  0.00    -0.077 C 
ATOM     51  H29 ACD d   1      29.678  10.190  31.943  0.00  0.00     0.027 H 
ATOM     52  H30 ACD d   1      31.471  10.119  31.866  0.00  0.00     0.027 H 
ATOM     53  H31 ACD d   1      30.484   9.112  30.754  0.00  0.00     0.027 H 
ENDBRANCH  47  50
ENDBRANCH  44  47
ENDBRANCH  41  44
ENDBRANCH  38  41
ENDBRANCH  35  38
ENDBRANCH  31  34
ENDBRANCH   2  31
TORSDOF 15
