REMARK  20 active torsions:
REMARK  status: ('A' for Active; 'I' for Inactive)
REMARK    1  A    between atoms: C1B_2  and  O4A_1 
REMARK    2  A    between atoms: C2B_3  and  O2B_7 
REMARK    3  A    between atoms: C3B_4  and  O3B_8 
REMARK    4  A    between atoms: O4B_9  and  C4B_5 
REMARK    5  A    between atoms: C1_11  and  O4B_9 
REMARK    6  A    between atoms: C2_12  and  O2_16 
REMARK    7  A    between atoms: C3_13  and  O3_17 
REMARK    8  A    between atoms: O4_18  and  C4_14 
REMARK    9  A    between atoms: C1_20  and  O4_18 
REMARK   10  A    between atoms: C2_21  and  O2_25 
REMARK   11  A    between atoms: C3_22  and  O3_26 
REMARK   12  A    between atoms: O4_27  and  C4_23 
REMARK   13  A    between atoms: C1_29  and  O4_27 
REMARK   14  A    between atoms: C2_30  and  O2_34 
REMARK   15  A    between atoms: C3_31  and  O3_35 
REMARK   16  A    between atoms: O4_36  and  C4_32 
REMARK   17  A    between atoms: O4_36  and  C1_38 
REMARK   18  A    between atoms: C2_39  and  O2_43 
REMARK   19  A    between atoms: C3_40  and  O3_44 
REMARK   20  A    between atoms: C4_41  and  O4_45 
ROOT
ATOM      1  C1  NON d   1      27.933   4.050   4.226  0.00  0.00     0.158 C 
ATOM      2  C2  NON d   1      28.433   4.804   3.008  0.00  0.00     0.110 C 
ATOM      3  C3  NON d   1      29.854   4.350   2.729  0.00  0.00     0.092 C 
ATOM      4  C4  NON d   1      30.722   4.553   3.953  0.00  0.00     0.089 C 
ATOM      5  C5  NON d   1      30.057   3.865   5.123  0.00  0.00     0.049 C 
ATOM      6  O5  NON d   1      28.705   4.311   5.300  0.00  0.00    -0.356 OA
ATOM      7  H18 NON d   1      27.926   2.969   4.023  0.00  0.00     0.133 H 
ATOM      8  H19 NON d   1      28.414   5.886   3.205  0.00  0.00     0.094 H 
ATOM      9  H20 NON d   1      29.848   3.291   2.432  0.00  0.00     0.091 H 
ATOM     10  H21 NON d   1      30.837   5.627   4.163  0.00  0.00     0.090 H 
ATOM     11  H22 NON d   1      30.628   4.085   6.037  0.00  0.00     0.078 H 
ATOM     12  H23 NON d   1      30.054   2.780   4.944  0.00  0.00     0.078 H 
ENDROOT
BRANCH   1  13
ATOM     13  O4  NON d   1      26.609   4.517   4.509  0.00  0.00    -0.348 OA
BRANCH  13  14
ATOM     14  C4  NON d   1      25.614   3.565   4.810  0.00  0.00     0.089 C 
ATOM     15  C3  NON d   1      24.737   4.141   5.926  0.00  0.00     0.092 C 
ATOM     16  C2  NON d   1      23.482   3.293   6.117  0.00  0.00     0.110 C 
ATOM     17  H12 NON d   1      24.431   5.159   5.642  0.00  0.00     0.091 H 
ATOM     18  C1  NON d   1      22.816   3.004   4.781  0.00  0.00     0.158 C 
ATOM     19  H11 NON d   1      23.755   2.340   6.594  0.00  0.00     0.094 H 
ATOM     20  O5  NON d   1      23.671   2.462   3.872  0.00  0.00    -0.356 OA
ATOM     21  H10 NON d   1      22.384   3.930   4.373  0.00  0.00     0.133 H 
ATOM     22  C5  NON d   1      24.752   3.323   3.587  0.00  0.00     0.049 C 
ATOM     23  H14 NON d   1      25.371   2.869   2.799  0.00  0.00     0.078 H 
ATOM     24  H15 NON d   1      24.357   4.287   3.233  0.00  0.00     0.078 H 
ATOM     25  H13 NON d   1      26.077   2.622   5.136  0.00  0.00     0.090 H 
BRANCH  15  26
ATOM     26  O3  NON d   1      25.476   4.209   7.136  0.00  0.00    -0.390 OA
ATOM     27  H17 NON d   1      26.253   4.739   7.002  0.00  0.00     0.210 HD
ENDBRANCH  15  26
BRANCH  16  28
ATOM     28  O2  NON d   1      22.589   4.010   6.964  0.00  0.00    -0.388 OA
ATOM     29  H16 NON d   1      21.807   3.490   7.111  0.00  0.00     0.210 HD
ENDBRANCH  16  28
BRANCH  18  30
ATOM     30  O4B NON d   1      21.798   2.040   5.040  0.00  0.00    -0.348 OA
BRANCH  30  31
ATOM     31  C4B NON d   1      20.756   2.201   4.114  0.00  0.00     0.089 C 
ATOM     32  C3B NON d   1      20.089   0.854   3.895  0.00  0.00     0.092 C 
ATOM     33  C2B NON d   1      18.849   1.020   3.038  0.00  0.00     0.110 C 
ATOM     34  H4  NON d   1      19.784   0.437   4.866  0.00  0.00     0.091 H 
ATOM     35  C1B NON d   1      18.005   2.151   3.527  0.00  0.00     0.155 C 
ATOM     36  H3  NON d   1      19.128   1.153   1.982  0.00  0.00     0.094 H 
ATOM     37  O5B NON d   1      18.763   3.275   3.633  0.00  0.00    -0.356 OA
ATOM     38  H2  NON d   1      17.573   1.897   4.506  0.00  0.00     0.133 H 
ATOM     39  C5B NON d   1      19.722   3.155   4.656  0.00  0.00     0.049 C 
ATOM     40  H6  NON d   1      20.176   4.132   4.876  0.00  0.00     0.078 H 
ATOM     41  H7  NON d   1      19.263   2.749   5.570  0.00  0.00     0.078 H 
ATOM     42  H5  NON d   1      21.158   2.585   3.164  0.00  0.00     0.090 H 
BRANCH  32  43
ATOM     43  O3B NON d   1      21.039  -0.002   3.313  0.00  0.00    -0.390 OA
ATOM     44  H9  NON d   1      21.793  -0.072   3.886  0.00  0.00     0.210 HD
ENDBRANCH  32  43
BRANCH  33  45
ATOM     45  O2B NON d   1      18.022  -0.094   3.226  0.00  0.00    -0.388 OA
ATOM     46  H8  NON d   1      17.226   0.015   2.719  0.00  0.00     0.210 HD
ENDBRANCH  33  45
BRANCH  35  47
ATOM     47  O4A NON d   1      16.970   2.394   2.587  0.00  0.00    -0.369 OA
ATOM     48  H1  NON d   1      16.431   1.616   2.502  0.00  0.00     0.212 HD
ENDBRANCH  35  47
ENDBRANCH  30  31
ENDBRANCH  18  30
ENDBRANCH  13  14
ENDBRANCH   1  13
BRANCH   2  49
ATOM     49  O2  NON d   1      27.618   4.509   1.877  0.00  0.00    -0.388 OA
ATOM     50  H24 NON d   1      27.941   4.987   1.122  0.00  0.00     0.210 HD
ENDBRANCH   2  49
BRANCH   3  51
ATOM     51  O3  NON d   1      30.444   5.144   1.715  0.00  0.00    -0.390 OA
ATOM     52  H25 NON d   1      29.934   5.067   0.917  0.00  0.00     0.210 HD
ENDBRANCH   3  51
BRANCH   4  53
ATOM     53  O4  NON d   1      31.999   3.966   3.712  0.00  0.00    -0.348 OA
BRANCH  53  54
ATOM     54  C1  NON d   1      33.050   4.638   4.355  0.00  0.00     0.158 C 
ATOM     55  O5  NON d   1      33.445   5.636   3.559  0.00  0.00    -0.356 OA
ATOM     56  C5  NON d   1      34.507   6.363   4.156  0.00  0.00     0.049 C 
ATOM     57  C4  NON d   1      35.742   5.487   4.281  0.00  0.00     0.089 C 
ATOM     58  H30 NON d   1      34.744   7.237   3.532  0.00  0.00     0.078 H 
ATOM     59  H31 NON d   1      34.198   6.700   5.157  0.00  0.00     0.078 H 
ATOM     60  C3  NON d   1      35.393   4.292   5.140  0.00  0.00     0.092 C 
ATOM     61  H29 NON d   1      36.089   5.176   3.285  0.00  0.00     0.090 H 
ATOM     62  C2  NON d   1      34.147   3.625   4.607  0.00  0.00     0.110 C 
ATOM     63  H28 NON d   1      35.187   4.642   6.162  0.00  0.00     0.091 H 
ATOM     64  H27 NON d   1      34.393   3.139   3.651  0.00  0.00     0.094 H 
ATOM     65  H26 NON d   1      32.708   5.052   5.315  0.00  0.00     0.133 H 
BRANCH  57  66
ATOM     66  O4  NON d   1      36.762   6.157   4.977  0.00  0.00    -0.348 OA
BRANCH  66  67
ATOM     67  C1  NON d   1      37.769   6.768   4.139  0.00  0.00     0.158 C 
ATOM     68  O5  NON d   1      38.571   5.793   3.640  0.00  0.00    -0.356 OA
ATOM     69  C5  NON d   1      39.463   6.285   2.666  0.00  0.00     0.049 C 
ATOM     70  C4  NON d   1      40.515   7.128   3.364  0.00  0.00     0.083 C 
ATOM     71  H38 NON d   1      39.945   5.445   2.145  0.00  0.00     0.078 H 
ATOM     72  H39 NON d   1      38.915   6.902   1.938  0.00  0.00     0.078 H 
ATOM     73  C3  NON d   1      39.899   8.206   4.241  0.00  0.00     0.091 C 
ATOM     74  H37 NON d   1      41.138   6.469   3.987  0.00  0.00     0.090 H 
ATOM     75  C2  NON d   1      38.585   7.795   4.923  0.00  0.00     0.110 C 
ATOM     76  H36 NON d   1      39.684   9.075   3.601  0.00  0.00     0.091 H 
ATOM     77  H35 NON d   1      38.824   7.336   5.894  0.00  0.00     0.094 H 
ATOM     78  H34 NON d   1      37.272   7.283   3.304  0.00  0.00     0.133 H 
BRANCH  70  79
ATOM     79  O4  NON d   1      41.320   7.773   2.403  0.00  0.00    -0.391 OA
ATOM     80  H42 NON d   1      41.998   8.272   2.843  0.00  0.00     0.210 HD
ENDBRANCH  70  79
BRANCH  73  81
ATOM     81  O3  NON d   1      40.840   8.591   5.228  0.00  0.00    -0.390 OA
ATOM     82  H41 NON d   1      41.653   8.845   4.807  0.00  0.00     0.210 HD
ENDBRANCH  73  81
BRANCH  75  83
ATOM     83  O2  NON d   1      37.902   9.017   5.156  0.00  0.00    -0.388 OA
ATOM     84  H40 NON d   1      38.465   9.605   5.646  0.00  0.00     0.210 HD
ENDBRANCH  75  83
ENDBRANCH  66  67
ENDBRANCH  57  66
BRANCH  60  85
ATOM     85  O3  NON d   1      36.486   3.394   5.191  0.00  0.00    -0.390 OA
ATOM     86  H33 NON d   1      36.670   3.071   4.317  0.00  0.00     0.210 HD
ENDBRANCH  60  85
BRANCH  62  87
ATOM     87  O2  NON d   1      33.714   2.629   5.522  0.00  0.00    -0.388 OA
ATOM     88  H32 NON d   1      33.480   3.038   6.346  0.00  0.00     0.210 HD
ENDBRANCH  62  87
ENDBRANCH  53  54
ENDBRANCH   4  53
TORSDOF 20
