REMARK  6 active torsions:
REMARK  status: ('A' for Active; 'I' for Inactive)
REMARK    1  A    between atoms: C4_18  and  O4_21 
REMARK    2  A    between atoms: N2_22  and  C7_23 
REMARK    3  A    between atoms: N2_22  and  C8_24 
REMARK    4  A    between atoms: C9_25  and  N2_22 
REMARK    5  A    between atoms: C9_25  and  C10_26 
REMARK    6  A    between atoms: C40_27  and  C9_25 
ROOT
ATOM      1  H13 SAF d   1       2.695  65.018  63.819  0.00  0.00     0.091 H 
ATOM      2  C9  SAF d   1       3.587  65.027  64.463  0.00  0.00     0.125 C 
ENDROOT
BRANCH   2   3
ATOM      3  N2  SAF d   1       4.410  63.785  63.979  0.00  0.00    -0.071 N 
ATOM      4  H6  SAF d   1       5.389  63.993  64.095  0.00  0.00     0.279 HD
BRANCH   3   5
ATOM      5  C7  SAF d   1       4.024  62.656  64.730  0.00  0.00     0.067 C 
ATOM      6  H7  SAF d   1       4.598  61.779  64.395  0.00  0.00     0.068 H 
ATOM      7  H8  SAF d   1       2.950  62.468  64.584  0.00  0.00     0.068 H 
ATOM      8  H9  SAF d   1       4.223  62.839  65.796  0.00  0.00     0.068 H 
ENDBRANCH   3   5
BRANCH   3   9
ATOM      9  C8  SAF d   1       4.167  63.293  62.638  0.00  0.00     0.067 C 
ATOM     10  H10 SAF d   1       4.425  64.075  61.908  0.00  0.00     0.068 H 
ATOM     11  H11 SAF d   1       3.105  63.028  62.532  0.00  0.00     0.068 H 
ATOM     12  H12 SAF d   1       4.787  62.403  62.456  0.00  0.00     0.068 H 
ENDBRANCH   3   9
ENDBRANCH   2   3
BRANCH   2  13
ATOM     13  C10 SAF d   1       3.037  64.810  65.784  0.00  0.00    -0.045 C 
ATOM     14  H14 SAF d   1       2.466  65.698  66.094  0.00  0.00     0.030 H 
ATOM     15  H15 SAF d   1       3.855  64.633  66.497  0.00  0.00     0.030 H 
ATOM     16  H16 SAF d   1       2.371  63.935  65.765  0.00  0.00     0.030 H 
ENDBRANCH   2  13
BRANCH   2  17
ATOM     17  C40 SAF d   1       4.229  66.423  64.126  0.00  0.00    -0.025 A 
ATOM     18  C1  SAF d   1       4.594  67.387  65.159  0.00  0.00    -0.075 A 
ATOM     19  H1  SAF d   1       4.453  67.141  66.205  0.00  0.00     0.084 H 
ATOM     20  C6  SAF d   1       5.143  68.669  64.786  0.00  0.00    -0.080 A 
ATOM     21  H4  SAF d   1       5.409  69.376  65.563  0.00  0.00     0.083 H 
ATOM     22  C5  SAF d   1       5.344  69.027  63.427  0.00  0.00    -0.051 A 
ATOM     23  H3  SAF d   1       5.764  69.985  63.143  0.00  0.00     0.087 H 
ATOM     24  C4  SAF d   1       4.962  68.054  62.457  0.00  0.00     0.066 A 
ATOM     25  C3  SAF d   1       4.433  66.807  62.802  0.00  0.00    -0.043 A 
ATOM     26  H2  SAF d   1       4.172  66.113  62.011  0.00  0.00     0.088 H 
BRANCH  24  27
ATOM     27  O4  SAF d   1       5.072  68.255  61.127  0.00  0.00    -0.361 OA
ATOM     28  H5  SAF d   1       5.982  68.415  60.906  0.00  0.00     0.217 HD
ENDBRANCH  24  27
ENDBRANCH   2  17
TORSDOF 6
