REMARK  8 active torsions:
REMARK  status: ('A' for Active; 'I' for Inactive)
REMARK    1  A    between atoms: C1_1  and  O2_2 
REMARK    2  A    between atoms: O2_2  and  C12_16 
REMARK    3  A    between atoms: C4_7  and  C7_10 
REMARK    4  A    between atoms: C7_10  and  C8_12 
REMARK    5  A    between atoms: C8_12  and  C9_13 
REMARK    6  A    between atoms: C8_12  and  C11_15 
REMARK    7  A    between atoms: C9_13  and  C10_14 
REMARK    8  A    between atoms: C12_16  and  C13_17 
ROOT
ATOM      1  C1  EAA d   1      88.319  27.938  14.887  0.00  0.00     0.092 A 
ATOM      2  C2  EAA d   1      89.514  27.376  14.454  0.00  0.00     0.090 A 
ATOM      3 CL1  EAA d   1      90.628  28.336  13.479  0.00  0.00    -0.080 Cl
ATOM      4  C3  EAA d   1      89.860  26.075  14.767  0.00  0.00     0.072 A 
ATOM      5 CL2  EAA d   1      91.383  25.432  14.156  0.00  0.00    -0.081 Cl
ATOM      6  C4  EAA d   1      89.029  25.273  15.538  0.00  0.00     0.038 A 
ATOM      7  C5  EAA d   1      87.862  25.850  16.018  0.00  0.00    -0.065 A 
ATOM      8  C6  EAA d   1      87.520  27.161  15.698  0.00  0.00    -0.048 A 
ATOM      9  H1  EAA d   1      87.204  25.269  16.654  0.00  0.00     0.085 H 
ATOM     10  H2  EAA d   1      86.603  27.581  16.096  0.00  0.00     0.087 H 
ENDROOT
BRANCH   6  11
ATOM     11  C7  EAA d   1      89.329  23.891  15.761  0.00  0.00     0.189 C 
ATOM     12  O1  EAA d   1      88.542  23.044  15.324  0.00  0.00    -0.287 OA
BRANCH  11  13
ATOM     13  C8  EAA d   1      90.486  23.510  16.479  0.00  0.00    -0.017 C 
BRANCH  13  14
ATOM     14  C9  EAA d   1      90.526  23.825  17.862  0.00  0.00    -0.041 C 
ATOM     15  H3  EAA d   1      90.824  24.880  17.949  0.00  0.00     0.039 H 
ATOM     16  H4  EAA d   1      91.296  23.187  18.321  0.00  0.00     0.039 H 
BRANCH  14  17
ATOM     17  C10 EAA d   1      89.237  23.645  18.676  0.00  0.00    -0.073 C 
ATOM     18  H5  EAA d   1      89.422  23.927  19.723  0.00  0.00     0.028 H 
ATOM     19  H6  EAA d   1      88.918  22.593  18.630  0.00  0.00     0.028 H 
ATOM     20  H7  EAA d   1      88.447  24.286  18.258  0.00  0.00     0.028 H 
ENDBRANCH  14  17
ENDBRANCH  13  14
BRANCH  13  21
ATOM     21  C11 EAA d   1      91.380  22.864  15.958  0.00  0.00    -0.112 C 
ATOM     22  H8  EAA d   1      91.335  22.630  14.895  0.00  0.00     0.067 H 
ATOM     23  H9  EAA d   1      92.223  22.521  16.556  0.00  0.00     0.067 H 
ENDBRANCH  13  21
ENDBRANCH  11  13
ENDBRANCH   6  11
BRANCH   1  24
ATOM     24  O2  EAA d   1      87.903  29.177  14.427  0.00  0.00    -0.339 OA
BRANCH  24  25
ATOM     25  C12 EAA d   1      86.596  29.675  14.853  0.00  0.00     0.106 C 
ATOM     26  H10 EAA d   1      86.573  30.767  14.720  0.00  0.00     0.091 H 
ATOM     27  H11 EAA d   1      86.455  29.432  15.916  0.00  0.00     0.091 H 
BRANCH  25  28
ATOM     28  C13 EAA d   1      85.439  29.054  14.045  0.00  0.00     0.198 C 
ATOM     29  O   EAA d   1      85.586  27.951  13.465  0.00  0.00    -0.646 OA
ATOM     30  OXT EAA d   1      84.355  29.677  14.031  0.00  0.00    -0.646 OA
ENDBRANCH  25  28
ENDBRANCH  24  25
ENDBRANCH   1  24
TORSDOF 8
