REMARK  13 active torsions:
REMARK  status: ('A' for Active; 'I' for Inactive)
REMARK    1  A    between atoms: C8_1  and  C7_2 
REMARK    2  A    between atoms: C7_2  and  C1_4 
REMARK    3  A    between atoms: C4_8  and  O14_9 
REMARK    4  A    between atoms: O14_9  and  C15_10 
REMARK    5  A    between atoms: C15_10  and  C16_11 
REMARK    6  A    between atoms: C16_11  and  C17_12 
REMARK    7  A    between atoms: C17_12  and  C18_13 
REMARK    8  A    between atoms: C18_13  and  C19_14 
REMARK    9  A    between atoms: C19_14  and  C20_15 
REMARK   10  A    between atoms: C20_15  and  N24_16 
REMARK   11  A    between atoms: N24_16  and  C27_17 
REMARK   12  A    between atoms: N24_16  and  C25_18 
REMARK   13  A    between atoms: C25_18  and  C26_19 
ROOT
ATOM      1  C16 R71 d   1      63.182  69.428  65.563  0.00  0.00    -0.045 C 
ATOM      2  H4  R71 d   1      62.225  69.330  66.096  0.00  0.00     0.036 H 
ATOM      3  H5  R71 d   1      63.293  68.595  64.853  0.00  0.00     0.036 H 
ENDROOT
BRANCH   1   4
ATOM      4  C15 R71 d   1      64.335  69.407  66.567  0.00  0.00     0.026 C 
ATOM      5  H2  R71 d   1      64.474  68.385  66.950  0.00  0.00     0.075 H 
ATOM      6  H3  R71 d   1      65.260  69.744  66.076  0.00  0.00     0.075 H 
BRANCH   4   7
ATOM      7  O14 R71 d   1      64.015  70.285  67.644  0.00  0.00    -0.351 OA
BRANCH   7   8
ATOM      8  C4  R71 d   1      65.040  70.524  68.547  0.00  0.00     0.071 A 
ATOM      9  C5  R71 d   1      65.238  69.641  69.640  0.00  0.00    -0.013 A 
ATOM     10  C6  R71 d   1      66.277  69.874  70.573  0.00  0.00     0.132 A 
ATOM     11  H1  R71 d   1      64.589  68.781  69.761  0.00  0.00     0.092 H 
ATOM     12  C1  R71 d   1      67.150  71.016  70.417  0.00  0.00     0.040 A 
ATOM     13  F22 R71 d   1      66.416  69.013  71.579  0.00  0.00    -0.205 F 
ATOM     14  C2  R71 d   1      66.932  71.887  69.316  0.00  0.00    -0.065 A 
ATOM     15  C3  R71 d   1      65.892  71.646  68.392  0.00  0.00    -0.050 A 
ATOM     16  H24 R71 d   1      67.574  72.750  69.183  0.00  0.00     0.085 H 
ATOM     17  H23 R71 d   1      65.744  72.323  67.559  0.00  0.00     0.087 H 
BRANCH  12  18
ATOM     18  C7  R71 d   1      68.298  71.330  71.383  0.00  0.00     0.130 C 
ATOM     19  O21 R71 d   1      68.873  70.302  72.011  0.00  0.00    -0.190 OA
BRANCH  18  20
ATOM     20  C8  R71 d   1      68.847  72.728  71.698  0.00  0.00     0.001 A 
ATOM     21  C13 R71 d   1      70.258  72.910  71.696  0.00  0.00    -0.069 A 
ATOM     22  C12 R71 d   1      70.830  74.172  71.996  0.00  0.00    -0.065 A 
ATOM     23  H25 R71 d   1      70.905  72.072  71.462  0.00  0.00     0.085 H 
ATOM     24  C11 R71 d   1      70.001  75.276  72.304  0.00  0.00     0.011 A 
ATOM     25  H26 R71 d   1      71.907  74.291  71.989  0.00  0.00     0.085 H 
ATOM     26 BR23 R71 d   1      70.782  76.913  72.714  0.00  0.00    -0.051 Br
ATOM     27  C10 R71 d   1      68.579  75.118  72.309  0.00  0.00    -0.065 A 
ATOM     28  C9  R71 d   1      68.004  73.847  72.007  0.00  0.00    -0.069 A 
ATOM     29  H27 R71 d   1      67.940  75.962  72.542  0.00  0.00     0.085 H 
ATOM     30  H28 R71 d   1      66.927  73.727  72.011  0.00  0.00     0.085 H 
ENDBRANCH  18  20
ENDBRANCH  12  18
ENDBRANCH   7   8
ENDBRANCH   4   7
ENDBRANCH   1   4
BRANCH   1  31
ATOM     31  C17 R71 d   1      63.218  70.764  64.804  0.00  0.00    -0.063 C 
ATOM     32  H6  R71 d   1      63.760  71.511  65.402  0.00  0.00     0.033 H 
ATOM     33  H7  R71 d   1      62.190  71.113  64.626  0.00  0.00     0.033 H 
BRANCH  31  34
ATOM     34  C18 R71 d   1      63.932  70.569  63.459  0.00  0.00    -0.063 C 
ATOM     35  H8  R71 d   1      64.802  69.910  63.596  0.00  0.00     0.033 H 
ATOM     36  H9  R71 d   1      64.267  71.544  63.075  0.00  0.00     0.033 H 
BRANCH  34  37
ATOM     37  C19 R71 d   1      62.960  69.933  62.462  0.00  0.00    -0.042 C 
ATOM     38  H10 R71 d   1      62.289  69.242  62.993  0.00  0.00     0.035 H 
ATOM     39  H11 R71 d   1      63.526  69.380  61.698  0.00  0.00     0.035 H 
BRANCH  37  40
ATOM     40  C20 R71 d   1      62.134  71.035  61.790  0.00  0.00     0.083 C 
ATOM     41  H12 R71 d   1      62.153  71.934  62.423  0.00  0.00     0.075 H 
ATOM     42  H13 R71 d   1      61.096  70.688  61.677  0.00  0.00     0.075 H 
BRANCH  40  43
ATOM     43  N24 R71 d   1      62.672  71.368  60.471  0.00  0.00    -0.072 N 
ATOM     44  H14 R71 d   1      63.540  70.874  60.335  0.00  0.00     0.279 HD
BRANCH  43  45
ATOM     45  C27 R71 d   1      62.922  72.810  60.386  0.00  0.00     0.067 C 
ATOM     46  H15 R71 d   1      63.326  73.054  59.392  0.00  0.00     0.068 H 
ATOM     47  H16 R71 d   1      63.648  73.103  61.159  0.00  0.00     0.068 H 
ATOM     48  H17 R71 d   1      61.980  73.355  60.542  0.00  0.00     0.068 H 
ENDBRANCH  43  45
BRANCH  43  49
ATOM     49  C25 R71 d   1      61.714  70.960  59.419  0.00  0.00     0.097 C 
ATOM     50  H18 R71 d   1      61.898  71.576  58.526  0.00  0.00     0.082 H 
ATOM     51  H19 R71 d   1      60.695  71.145  59.789  0.00  0.00     0.082 H 
BRANCH  49  52
ATOM     52  C26 R71 d   1      61.820  69.503  59.023  0.00  0.00    -0.087 C 
ATOM     53  C29 R71 d   1      62.984  68.961  58.651  0.00  0.00    -0.123 C 
ATOM     54  H21 R71 d   1      63.030  67.910  58.371  0.00  0.00     0.066 H 
ATOM     55  H22 R71 d   1      63.886  69.571  58.628  0.00  0.00     0.066 H 
ATOM     56  H20 R71 d   1      60.926  68.881  59.042  0.00  0.00     0.078 H 
ENDBRANCH  49  52
ENDBRANCH  43  49
ENDBRANCH  40  43
ENDBRANCH  37  40
ENDBRANCH  34  37
ENDBRANCH  31  34
ENDBRANCH   1  31
TORSDOF 13
