REMARK  1 active torsions:
REMARK  status: ('A' for Active; 'I' for Inactive)
REMARK    1  A    between atoms: C5_5  and  N1_15 
ROOT
ATOM      1  C1  ANC d   1       0.525  -0.646   5.524  0.00  0.00    -0.023 A 
ATOM      2  C2  ANC d   1       1.254  -0.273   4.429  0.00  0.00    -0.072 A 
ATOM      3  C3  ANC d   1      -0.869  -0.349   5.623  0.00  0.00     0.001 A 
ATOM      4  C4  ANC d   1       0.617   0.443   3.328  0.00  0.00    -0.080 A 
ATOM      5  C5  ANC d   1      -1.520   0.353   4.562  0.00  0.00     0.036 A 
ATOM      6  C6  ANC d   1      -0.799   0.751   3.424  0.00  0.00    -0.057 A 
ATOM      7  C7  ANC d   1      -1.066  -2.521   9.995  0.00  0.00    -0.082 A 
ATOM      8  C8  ANC d   1       0.298  -2.834   9.937  0.00  0.00    -0.082 A 
ATOM      9  C9  ANC d   1      -1.709  -1.826   8.945  0.00  0.00    -0.072 A 
ATOM     10  C10 ANC d   1       1.011  -2.436   8.803  0.00  0.00    -0.072 A 
ATOM     11  C11 ANC d   1      -1.011  -1.437   7.835  0.00  0.00    -0.025 A 
ATOM     12  C12 ANC d   1       0.370  -1.733   7.739  0.00  0.00    -0.025 A 
ATOM     13  C13 ANC d   1       1.209  -1.339   6.547  0.00  0.00    -0.061 A 
ATOM     14  C14 ANC d   1      -1.726  -0.690   6.718  0.00  0.00    -0.059 A 
ATOM     15  H1  ANC d   1       2.311  -0.510   4.378  0.00  0.00     0.084 H 
ATOM     16  H2  ANC d   1       1.189   0.739   2.456  0.00  0.00     0.083 H 
ATOM     17  H3  ANC d   1      -1.296   1.285   2.622  0.00  0.00     0.086 H 
ATOM     18  H4  ANC d   1      -1.641  -2.818  10.864  0.00  0.00     0.083 H 
ATOM     19  H5  ANC d   1       0.785  -3.368  10.745  0.00  0.00     0.083 H 
ATOM     20  H6  ANC d   1      -2.766  -1.599   9.021  0.00  0.00     0.084 H 
ATOM     21  H7  ANC d   1       2.068  -2.665   8.730  0.00  0.00     0.084 H 
ATOM     22  H8  ANC d   1       2.265  -1.572   6.481  0.00  0.00     0.086 H 
ATOM     23  H9  ANC d   1      -2.780  -0.441   6.749  0.00  0.00     0.086 H 
ENDROOT
BRANCH   5  24
ATOM     24  N1  ANC d   1      -2.990   0.693   4.621  0.00  0.00    -0.398 N 
ATOM     25  H10 ANC d   1      -3.550   0.417   5.440  0.00  0.00     0.156 HD
ATOM     26  H11 ANC d   1      -3.433   1.201   3.842  0.00  0.00     0.156 HD
ENDBRANCH   5  24
TORSDOF 1
