REMARK  10 active torsions:
REMARK  status: ('A' for Active; 'I' for Inactive)
REMARK    1  A    between atoms: C7_1  and  C6_2 
REMARK    2  A    between atoms: C6_2  and  C5_3 
REMARK    3  A    between atoms: C5_3  and  C4_4 
REMARK    4  A    between atoms: C5_3  and  C10_10 
REMARK    5  A    between atoms: C4_4  and  C3_5 
REMARK    6  A    between atoms: C3_5  and  C2_6 
REMARK    7  A    between atoms: C2_6  and  C1_7 
REMARK    8  A    between atoms: C1_7  and  C8_8 
REMARK    9  A    between atoms: C1_7  and  C9_9 
REMARK   10  A    between atoms: C1_7  and  O1_11 
ROOT
ATOM      1  C3  DHM d   1      -0.900  -1.028   5.505  0.00  0.00    -0.062 C 
ATOM      2  H9  DHM d   1      -1.758  -1.059   6.192  0.00  0.00     0.033 H 
ATOM      3  H10 DHM d   1      -1.005  -1.823   4.752  0.00  0.00     0.033 H 
ENDROOT
BRANCH   1   4
ATOM      4  C4  DHM d   1       0.368  -1.240   6.281  0.00  0.00    -0.062 C 
ATOM      5  H7  DHM d   1       1.166  -1.511   5.574  0.00  0.00     0.033 H 
ATOM      6  H8  DHM d   1       0.628  -0.297   6.785  0.00  0.00     0.033 H 
BRANCH   4   7
ATOM      7  C5  DHM d   1       0.267  -2.332   7.331  0.00  0.00    -0.058 C 
ATOM      8  H6  DHM d   1      -0.261  -3.197   6.904  0.00  0.00     0.039 H 
BRANCH   7   9
ATOM      9  C6  DHM d   1      -0.472  -1.849   8.533  0.00  0.00    -0.065 C 
ATOM     10  H4  DHM d   1       0.082  -0.967   8.887  0.00  0.00     0.033 H 
ATOM     11  H5  DHM d   1      -1.462  -1.538   8.167  0.00  0.00     0.033 H 
BRANCH   9  12
ATOM     12  C7  DHM d   1      -0.724  -2.643   9.704  0.00  0.00    -0.076 C 
ATOM     13  H1  DHM d   1      -1.286  -2.046  10.437  0.00  0.00     0.027 H 
ATOM     14  H2  DHM d   1       0.233  -2.959  10.145  0.00  0.00     0.027 H 
ATOM     15  H3  DHM d   1      -1.311  -3.531   9.426  0.00  0.00     0.027 H 
ENDBRANCH   9  12
ENDBRANCH   7   9
BRANCH   7  16
ATOM     16  C10 DHM d   1       1.652  -2.740   7.747  0.00  0.00    -0.073 C 
ATOM     17  H19 DHM d   1       1.588  -3.531   8.508  0.00  0.00     0.028 H 
ATOM     18  H20 DHM d   1       2.180  -1.871   8.166  0.00  0.00     0.028 H 
ATOM     19  H21 DHM d   1       2.202  -3.117   6.872  0.00  0.00     0.028 H 
ENDBRANCH   7  16
ENDBRANCH   4   7
ENDBRANCH   1   4
BRANCH   1  20
ATOM     20  C2  DHM d   1      -0.859   0.305   4.819  0.00  0.00    -0.037 C 
ATOM     21  H11 DHM d   1       0.141   0.435   4.380  0.00  0.00     0.037 H 
ATOM     22  H12 DHM d   1      -1.033   1.086   5.574  0.00  0.00     0.037 H 
BRANCH  20  23
ATOM     23  C1  DHM d   1      -1.894   0.478   3.707  0.00  0.00     0.051 C 
BRANCH  23  24
ATOM     24  C8  DHM d   1      -1.274   1.130   2.551  0.00  0.00    -0.048 C 
ATOM     25  H13 DHM d   1      -2.022   1.252   1.754  0.00  0.00     0.031 H 
ATOM     26  H14 DHM d   1      -0.443   0.510   2.182  0.00  0.00     0.031 H 
ATOM     27  H15 DHM d   1      -0.891   2.117   2.849  0.00  0.00     0.031 H 
ENDBRANCH  23  24
BRANCH  23  28
ATOM     28  C9  DHM d   1      -2.980   1.377   4.210  0.00  0.00    -0.048 C 
ATOM     29  H16 DHM d   1      -3.466   0.913   5.081  0.00  0.00     0.031 H 
ATOM     30  H17 DHM d   1      -3.724   1.533   3.415  0.00  0.00     0.031 H 
ATOM     31  H18 DHM d   1      -2.548   2.345   4.504  0.00  0.00     0.031 H 
ENDBRANCH  23  28
BRANCH  23  32
ATOM     32  O1  DHM d   1      -2.557  -0.785   3.192  0.00  0.00    -0.391 OA
ATOM     33  H22 DHM d   1      -2.973  -1.240   3.915  0.00  0.00     0.210 HD
ENDBRANCH  23  32
ENDBRANCH  20  23
ENDBRANCH   1  20
TORSDOF 10
