REMARK  10 active torsions:
REMARK  status: ('A' for Active; 'I' for Inactive)
REMARK    1  A    between atoms: C11_1  and  C10_2 
REMARK    2  A    between atoms: C10_2  and  C9_3 
REMARK    3  A    between atoms: C9_3  and  C8_4 
REMARK    4  A    between atoms: C8_4  and  C7_5 
REMARK    5  A    between atoms: C7_5  and  C6_6 
REMARK    6  A    between atoms: C6_6  and  C5_7 
REMARK    7  A    between atoms: C5_7  and  C4_8 
REMARK    8  A    between atoms: C4_8  and  C3_9 
REMARK    9  A    between atoms: C3_9  and  C2_10 
REMARK   10  A    between atoms: C2_10  and  C1_11 
ROOT
ATOM      1  C6  UNA d   1      -3.327  -0.415   3.369  0.00  0.00    -0.065 C 
ATOM      2  H12 UNA d   1      -3.997  -1.205   2.999  0.00  0.00     0.033 H 
ATOM      3  H13 UNA d   1      -3.836   0.558   3.303  0.00  0.00     0.033 H 
ENDROOT
BRANCH   1   4
ATOM      4  C7  UNA d   1      -2.083  -0.372   2.462  0.00  0.00    -0.065 C 
ATOM      5  H10 UNA d   1      -1.392  -1.143   2.833  0.00  0.00     0.033 H 
ATOM      6  H11 UNA d   1      -2.419  -0.637   1.448  0.00  0.00     0.033 H 
BRANCH   4   7
ATOM      7  C8  UNA d   1      -1.287   0.906   2.339  0.00  0.00    -0.065 C 
ATOM      8  H8  UNA d   1      -0.592   0.749   1.501  0.00  0.00     0.033 H 
ATOM      9  H9  UNA d   1      -2.013   1.689   2.073  0.00  0.00     0.033 H 
BRANCH   7  10
ATOM     10  C9  UNA d   1      -0.441   1.487   3.485  0.00  0.00    -0.065 C 
ATOM     11  H6  UNA d   1      -0.067   2.460   3.134  0.00  0.00     0.033 H 
ATOM     12  H7  UNA d   1      -1.126   1.641   4.332  0.00  0.00     0.033 H 
BRANCH  10  13
ATOM     13  C10 UNA d   1       0.740   0.748   4.024  0.00  0.00    -0.069 C 
ATOM     14  H4  UNA d   1       1.612   0.875   3.365  0.00  0.00     0.032 H 
ATOM     15  H5  UNA d   1       0.990   1.100   5.036  0.00  0.00     0.032 H 
BRANCH  13  16
ATOM     16  C11 UNA d   1       0.327  -0.611   4.053  0.00  0.00    -0.077 C 
ATOM     17  H1  UNA d   1       1.145  -1.235   4.442  0.00  0.00     0.027 H 
ATOM     18  H2  UNA d   1       0.069  -0.938   3.035  0.00  0.00     0.027 H 
ATOM     19  H3  UNA d   1      -0.553  -0.713   4.705  0.00  0.00     0.027 H 
ENDBRANCH  13  16
ENDBRANCH  10  13
ENDBRANCH   7  10
ENDBRANCH   4   7
ENDBRANCH   1   4
BRANCH   1  20
ATOM     20  C5  UNA d   1      -3.015  -0.700   4.857  0.00  0.00    -0.065 C 
ATOM     21  H14 UNA d   1      -2.918  -1.792   4.941  0.00  0.00     0.033 H 
ATOM     22  H15 UNA d   1      -3.899  -0.366   5.420  0.00  0.00     0.033 H 
BRANCH  20  23
ATOM     23  C4  UNA d   1      -1.776  -0.100   5.607  0.00  0.00    -0.065 C 
ATOM     24  H16 UNA d   1      -1.681   0.960   5.327  0.00  0.00     0.033 H 
ATOM     25  H17 UNA d   1      -0.877  -0.647   5.285  0.00  0.00     0.033 H 
BRANCH  23  26
ATOM     26  C3  UNA d   1      -1.870  -0.186   7.083  0.00  0.00    -0.059 C 
ATOM     27  H18 UNA d   1      -2.552  -0.997   7.377  0.00  0.00     0.033 H 
ATOM     28  H19 UNA d   1      -2.231   0.766   7.500  0.00  0.00     0.033 H 
BRANCH  26  29
ATOM     29  C2  UNA d   1      -0.499  -0.469   7.556  0.00  0.00    -0.017 C 
ATOM     30  H20 UNA d   1      -0.423  -0.167   8.611  0.00  0.00     0.043 H 
ATOM     31  H21 UNA d   1       0.208   0.121   6.954  0.00  0.00     0.043 H 
BRANCH  29  32
ATOM     32  C1  UNA d   1      -0.148  -1.830   7.453  0.00  0.00     0.088 C 
ATOM     33  O1  UNA d   1      -0.407  -2.544   8.417  0.00  0.00    -0.307 OA
ATOM     34  H22 UNA d   1       0.331  -2.229   6.560  0.00  0.00     0.143 H 
ENDBRANCH  29  32
ENDBRANCH  26  29
ENDBRANCH  23  26
ENDBRANCH  20  23
ENDBRANCH   1  20
TORSDOF 10
