REMARK  4 active torsions:
REMARK  status: ('A' for Active; 'I' for Inactive)
REMARK    1  A    between atoms: C3_2  and  O3_3 
REMARK    2  A    between atoms: C4_4  and  O4_5 
REMARK    3  A    between atoms: C_8  and  C1_12 
REMARK    4  A    between atoms: C1_12  and  O30_10 
ROOT
ATOM      1  C2  FA1 d   1      28.630  50.978  58.637  0.00  0.00     0.003 C 
ATOM      2  C3  FA1 d   1      27.886  49.745  58.561  0.00  0.00     0.067 C 
ATOM      3  C4  FA1 d   1      27.774  49.179  59.843  0.00  0.00     0.076 C 
ATOM      4  C5  FA1 d   1      27.417  50.134  60.848  0.00  0.00    -0.074 C 
ATOM      5  C6  FA1 d   1      27.528  51.548  60.629  0.00  0.00    -0.061 C 
ATOM      6  C1  FA1 d   1      28.027  52.002  59.401  0.00  0.00     0.166 C 
ATOM      7  H1  FA1 d   1      28.768  51.355  57.613  0.00  0.00     0.042 H 
ATOM      8  H2  FA1 d   1      29.611  50.756  59.081  0.00  0.00     0.042 H 
ATOM      9  H3  FA1 d   1      26.884  49.964  58.164  0.00  0.00     0.087 H 
ATOM     10  H5  FA1 d   1      28.771  48.791  60.099  0.00  0.00     0.093 H 
ATOM     11  H7  FA1 d   1      27.050  49.776  61.809  0.00  0.00     0.080 H 
ATOM     12  H8  FA1 d   1      27.230  52.255  61.402  0.00  0.00     0.082 H 
ENDROOT
BRANCH   6  13
ATOM     13  C   FA1 d   1      28.844  53.151  59.644  0.00  0.00     0.213 C 
ATOM     14  O1  FA1 d   1      30.084  53.261  59.197  0.00  0.00    -0.645 OA
ATOM     15  O2  FA1 d   1      28.437  54.204  60.305  0.00  0.00    -0.645 OA
ENDBRANCH   6  13
BRANCH   6  16
ATOM     16  O30 FA1 d   1      26.964  52.505  58.685  0.00  0.00    -0.375 OA
ATOM     17  H9  FA1 d   1      26.568  53.220  59.169  0.00  0.00     0.211 HD
ENDBRANCH   6  16
BRANCH   2  18
ATOM     18  O3  FA1 d   1      28.497  48.803  57.752  0.00  0.00    -0.393 OA
ATOM     19  H4  FA1 d   1      27.970  48.013  57.735  0.00  0.00     0.210 HD
ENDBRANCH   2  18
BRANCH   3  20
ATOM     20  O4  FA1 d   1      26.896  48.119  59.903  0.00  0.00    -0.389 OA
ATOM     21  H6  FA1 d   1      26.866  47.784  60.791  0.00  0.00     0.210 HD
ENDBRANCH   3  20
TORSDOF 4
