REMARK  30 active torsions:
REMARK  status: ('A' for Active; 'I' for Inactive)
REMARK    1  A    between atoms: C2_1  and  O2_8 
REMARK    2  A    between atoms: C3_2  and  O3_9 
REMARK    3  A    between atoms: O4_10  and  C4_3 
REMARK    4  A    between atoms: C5_4  and  C6_5 
REMARK    5  A    between atoms: C6_5  and  O6_12 
REMARK    6  A    between atoms: C1_6  and  O1_7 
REMARK    7  A    between atoms: C1_18  and  O4_10 
REMARK    8  A    between atoms: C2_13  and  O2_19 
REMARK    9  A    between atoms: C3_14  and  O3_20 
REMARK   10  A    between atoms: O4_21  and  C4_15 
REMARK   11  A    between atoms: C5_16  and  C6_17 
REMARK   12  A    between atoms: C6_17  and  O6_23 
REMARK   13  A    between atoms: C1_29  and  O4_21 
REMARK   14  A    between atoms: C2_24  and  O2_30 
REMARK   15  A    between atoms: C3_25  and  O3_31 
REMARK   16  A    between atoms: O4_32  and  C4_26 
REMARK   17  A    between atoms: C5_27  and  C6_28 
REMARK   18  A    between atoms: C6_28  and  O6_34 
REMARK   19  A    between atoms: C1_40  and  O4_32 
REMARK   20  A    between atoms: C2_35  and  O2_41 
REMARK   21  A    between atoms: C3_36  and  O3_42 
REMARK   22  A    between atoms: O4_43  and  C4_37 
REMARK   23  A    between atoms: C5_38  and  C6_39 
REMARK   24  A    between atoms: C6_39  and  O6_45 
REMARK   25  A    between atoms: C1_51  and  O4_43 
REMARK   26  A    between atoms: C2_46  and  O2_52 
REMARK   27  A    between atoms: C3_47  and  O3_53 
REMARK   28  A    between atoms: C4_48  and  O4_54 
REMARK   29  A    between atoms: C5_49  and  C6_50 
REMARK   30  A    between atoms: C6_50  and  O6_56 
ROOT
ATOM      1  C2  NON d   1     -15.042  30.507  17.619  0.00  0.00     0.110 C 
ATOM      2  C3  NON d   1     -16.311  30.059  16.901  0.00  0.00     0.092 C 
ATOM      3  C4  NON d   1     -16.548  28.551  17.002  0.00  0.00     0.096 C 
ATOM      4  C5  NON d   1     -16.386  28.052  18.425  0.00  0.00     0.089 C 
ATOM      5  C1  NON d   1     -15.003  29.855  18.998  0.00  0.00     0.159 C 
ATOM      6  O5  NON d   1     -15.075  28.442  18.854  0.00  0.00    -0.348 OA
ATOM      7  H22 NON d   1     -14.171  30.170  17.039  0.00  0.00     0.094 H 
ATOM      8  H23 NON d   1     -17.173  30.600  17.319  0.00  0.00     0.091 H 
ATOM      9  H24 NON d   1     -15.823  28.040  16.352  0.00  0.00     0.091 H 
ATOM     10  H25 NON d   1     -17.138  28.525  19.074  0.00  0.00     0.090 H 
ATOM     11  H28 NON d   1     -15.887  30.177  19.568  0.00  0.00     0.133 H 
ENDROOT
BRANCH   3  12
ATOM     12  O4  NON d   1     -17.849  28.217  16.603  0.00  0.00    -0.348 OA
BRANCH  12  13
ATOM     13  C1  NON d   1     -18.059  27.565  15.334  0.00  0.00     0.159 C 
ATOM     14  C2  NON d   1     -19.564  27.332  15.145  0.00  0.00     0.110 C 
ATOM     15  C3  NON d   1     -19.857  26.740  13.759  0.00  0.00     0.092 C 
ATOM     16  H32 NON d   1     -20.084  28.296  15.250  0.00  0.00     0.094 H 
ATOM     17  C4  NON d   1     -19.133  27.511  12.633  0.00  0.00     0.096 C 
ATOM     18  H33 NON d   1     -19.462  25.713  13.743  0.00  0.00     0.091 H 
ATOM     19  C5  NON d   1     -17.654  27.653  13.013  0.00  0.00     0.089 C 
ATOM     20  H34 NON d   1     -19.585  28.506  12.508  0.00  0.00     0.091 H 
ATOM     21  O5  NON d   1     -17.566  28.312  14.256  0.00  0.00    -0.348 OA
ATOM     22  H35 NON d   1     -17.200  26.653  13.083  0.00  0.00     0.090 H 
ATOM     23  H38 NON d   1     -17.542  26.594  15.350  0.00  0.00     0.133 H 
BRANCH  14  24
ATOM     24  O2  NON d   1     -20.069  26.424  16.094  0.00  0.00    -0.388 OA
ATOM     25  H39 NON d   1     -21.000  26.302  15.950  0.00  0.00     0.210 HD
ENDBRANCH  14  24
BRANCH  15  26
ATOM     26  O3  NON d   1     -21.263  26.655  13.589  0.00  0.00    -0.390 OA
ATOM     27  H40 NON d   1     -21.456  26.208  12.774  0.00  0.00     0.210 HD
ENDBRANCH  15  26
BRANCH  17  28
ATOM     28  O4  NON d   1     -19.240  26.778  11.422  0.00  0.00    -0.348 OA
BRANCH  28  29
ATOM     29  C1  NON d   1     -19.609  27.550  10.291  0.00  0.00     0.159 C 
ATOM     30  C2  NON d   1     -19.336  26.640   9.115  0.00  0.00     0.110 C 
ATOM     31  C3  NON d   1     -19.720  27.399   7.843  0.00  0.00     0.092 C 
ATOM     32  H42 NON d   1     -19.977  25.749   9.191  0.00  0.00     0.094 H 
ATOM     33  C4  NON d   1     -21.155  27.976   7.963  0.00  0.00     0.090 C 
ATOM     34  H43 NON d   1     -19.033  28.249   7.722  0.00  0.00     0.091 H 
ATOM     35  C5  NON d   1     -21.403  28.754   9.268  0.00  0.00     0.089 C 
ATOM     36  H44 NON d   1     -21.854  27.126   7.980  0.00  0.00     0.091 H 
ATOM     37  O5  NON d   1     -20.968  27.911  10.333  0.00  0.00    -0.348 OA
ATOM     38  H45 NON d   1     -20.853  29.706   9.251  0.00  0.00     0.090 H 
ATOM     39  H48 NON d   1     -18.994  28.460  10.229  0.00  0.00     0.133 H 
BRANCH  30  40
ATOM     40  O2  NON d   1     -17.983  26.207   9.151  0.00  0.00    -0.388 OA
ATOM     41  H49 NON d   1     -17.824  25.735   9.960  0.00  0.00     0.210 HD
ENDBRANCH  30  40
BRANCH  31  42
ATOM     42  O3  NON d   1     -19.536  26.526   6.728  0.00  0.00    -0.390 OA
ATOM     43  H50 NON d   1     -19.717  26.999   5.924  0.00  0.00     0.210 HD
ENDBRANCH  31  42
BRANCH  33  44
ATOM     44  O4  NON d   1     -21.403  28.692   6.796  0.00  0.00    -0.390 OA
ATOM     45  H51 NON d   1     -20.840  29.457   6.769  0.00  0.00     0.210 HD
ENDBRANCH  33  44
BRANCH  35  46
ATOM     46  C6  NON d   1     -22.876  28.997   9.543  0.00  0.00     0.043 C 
ATOM     47  H46 NON d   1     -23.265  29.712   8.803  0.00  0.00     0.078 H 
ATOM     48  H47 NON d   1     -22.986  29.419  10.553  0.00  0.00     0.078 H 
BRANCH  46  49
ATOM     49  O6  NON d   1     -23.622  27.799   9.461  0.00  0.00    -0.398 OA
ATOM     50  H52 NON d   1     -23.294  27.179  10.101  0.00  0.00     0.209 HD
ENDBRANCH  46  49
ENDBRANCH  35  46
ENDBRANCH  28  29
ENDBRANCH  17  28
BRANCH  19  51
ATOM     51  C6  NON d   1     -16.888  28.488  11.998  0.00  0.00     0.043 C 
ATOM     52  H36 NON d   1     -16.842  27.957  11.036  0.00  0.00     0.078 H 
ATOM     53  H37 NON d   1     -15.867  28.675  12.362  0.00  0.00     0.078 H 
BRANCH  51  54
ATOM     54  O6  NON d   1     -17.582  29.732  11.835  0.00  0.00    -0.398 OA
ATOM     55  H41 NON d   1     -17.120  30.271  11.204  0.00  0.00     0.209 HD
ENDBRANCH  51  54
ENDBRANCH  19  51
ENDBRANCH  12  13
ENDBRANCH   3  12
BRANCH   2  56
ATOM     56  O3  NON d   1     -16.175  30.329  15.531  0.00  0.00    -0.390 OA
ATOM     57  H30 NON d   1     -16.970  30.072  15.078  0.00  0.00     0.210 HD
ENDBRANCH   2  56
BRANCH   4  58
ATOM     58  C6  NON d   1     -16.582  26.534  18.469  0.00  0.00     0.043 C 
ATOM     59  H26 NON d   1     -17.625  26.290  18.218  0.00  0.00     0.078 H 
ATOM     60  H27 NON d   1     -16.351  26.162  19.478  0.00  0.00     0.078 H 
BRANCH  58  61
ATOM     61  O6  NON d   1     -15.715  25.925  17.531  0.00  0.00    -0.398 OA
ATOM     62  H31 NON d   1     -14.815  26.137  17.749  0.00  0.00     0.209 HD
ENDBRANCH  58  61
ENDBRANCH   4  58
BRANCH   1  63
ATOM     63  O2  NON d   1     -14.979  31.906  17.741  0.00  0.00    -0.388 OA
ATOM     64  H29 NON d   1     -14.171  32.149  18.177  0.00  0.00     0.210 HD
ENDBRANCH   1  63
BRANCH   5  65
ATOM     65  O4  NON d   1     -13.842  30.324  19.690  0.00  0.00    -0.348 OA
BRANCH  65  66
ATOM     66  C4  NON d   1     -13.947  30.387  21.095  0.00  0.00     0.096 C 
ATOM     67  C3  NON d   1     -13.536  29.046  21.680  0.00  0.00     0.092 C 
ATOM     68  C2  NON d   1     -13.327  29.117  23.206  0.00  0.00     0.110 C 
ATOM     69  H13 NON d   1     -12.615  28.688  21.197  0.00  0.00     0.091 H 
ATOM     70  C1  NON d   1     -12.491  30.307  23.688  0.00  0.00     0.159 C 
ATOM     71  H12 NON d   1     -14.318  29.200  23.677  0.00  0.00     0.094 H 
ATOM     72  O5  NON d   1     -13.000  31.433  23.050  0.00  0.00    -0.348 OA
ATOM     73  H18 NON d   1     -11.440  30.158  23.401  0.00  0.00     0.133 H 
ATOM     74  C5  NON d   1     -12.958  31.423  21.627  0.00  0.00     0.089 C 
ATOM     75  H15 NON d   1     -11.946  31.137  21.304  0.00  0.00     0.090 H 
ATOM     76  H14 NON d   1     -14.975  30.643  21.390  0.00  0.00     0.091 H 
BRANCH  67  77
ATOM     77  O3  NON d   1     -14.608  28.179  21.420  0.00  0.00    -0.390 OA
ATOM     78  H20 NON d   1     -14.747  28.121  20.482  0.00  0.00     0.210 HD
ENDBRANCH  67  77
BRANCH  68  79
ATOM     79  O2  NON d   1     -12.730  27.910  23.616  0.00  0.00    -0.388 OA
ATOM     80  H19 NON d   1     -13.255  27.179  23.312  0.00  0.00     0.210 HD
ENDBRANCH  68  79
BRANCH  70  81
ATOM     81  O4  NON d   1     -12.566  30.471  25.149  0.00  0.00    -0.348 OA
BRANCH  81  82
ATOM     82  C4  NON d   1     -11.494  31.246  25.653  0.00  0.00     0.096 C 
ATOM     83  C3  NON d   1     -12.038  32.592  26.187  0.00  0.00     0.092 C 
ATOM     84  C2  NON d   1     -10.996  33.341  27.027  0.00  0.00     0.110 C 
ATOM     85  H2  NON d   1     -12.867  32.349  26.868  0.00  0.00     0.091 H 
ATOM     86  C1  NON d   1     -10.467  32.372  28.084  0.00  0.00     0.156 C 
ATOM     87  H1  NON d   1     -10.173  33.691  26.387  0.00  0.00     0.094 H 
ATOM     88  O5  NON d   1      -9.808  31.290  27.452  0.00  0.00    -0.349 OA
ATOM     89  H7  NON d   1     -11.312  31.988  28.674  0.00  0.00     0.133 H 
ATOM     90  C5  NON d   1     -10.708  30.453  26.718  0.00  0.00     0.089 C 
ATOM     91  H4  NON d   1     -11.433  30.034  27.431  0.00  0.00     0.090 H 
ATOM     92  H3  NON d   1     -10.805  31.465  24.824  0.00  0.00     0.091 H 
BRANCH  83  93
ATOM     93  O3  NON d   1     -12.595  33.387  25.141  0.00  0.00    -0.390 OA
ATOM     94  H10 NON d   1     -13.311  32.915  24.733  0.00  0.00     0.210 HD
ENDBRANCH  83  93
BRANCH  84  95
ATOM     95  O2  NON d   1     -11.604  34.434  27.662  0.00  0.00    -0.388 OA
ATOM     96  H9  NON d   1     -10.965  34.877  28.209  0.00  0.00     0.210 HD
ENDBRANCH  84  95
BRANCH  86  97
ATOM     97  O1  NON d   1      -9.562  33.031  28.945  0.00  0.00    -0.369 OA
ATOM     98  H8  NON d   1      -9.250  32.420  29.602  0.00  0.00     0.212 HD
ENDBRANCH  86  97
BRANCH  90  99
ATOM     99  C6  NON d   1      -9.957  29.291  26.064  0.00  0.00     0.043 C 
ATOM    100  H5  NON d   1      -8.915  29.593  25.880  0.00  0.00     0.078 H 
ATOM    101  H6  NON d   1     -10.441  29.042  25.108  0.00  0.00     0.078 H 
BRANCH  99 102
ATOM    102  O6  NON d   1      -9.968  28.157  26.895  0.00  0.00    -0.398 OA
ATOM    103  H11 NON d   1      -9.497  27.450  26.470  0.00  0.00     0.209 HD
ENDBRANCH  99 102
ENDBRANCH  90  99
ENDBRANCH  81  82
ENDBRANCH  70  81
BRANCH  74 104
ATOM    104  C6  NON d   1     -13.262  32.824  21.084  0.00  0.00     0.043 C 
ATOM    105  H16 NON d   1     -13.350  32.770  19.989  0.00  0.00     0.078 H 
ATOM    106  H17 NON d   1     -12.434  33.497  21.352  0.00  0.00     0.078 H 
BRANCH 104 107
ATOM    107  O6  NON d   1     -14.477  33.349  21.620  0.00  0.00    -0.398 OA
ATOM    108  H21 NON d   1     -14.632  34.215  21.262  0.00  0.00     0.209 HD
ENDBRANCH 104 107
ENDBRANCH  74 104
ENDBRANCH  65  66
ENDBRANCH   5  65
TORSDOF 30
