REMARK WARNING: 32 MAX_TORS EXCEEDED!!!
REMARK  36 active torsions:
REMARK  status: ('A' for Active; 'I' for Inactive)
REMARK    1  A    between atoms: C2_1  and  O2_7 
REMARK    2  A    between atoms: C3_2  and  O3_8 
REMARK    3  A    between atoms: C4_3  and  O4_9 
REMARK    4  A    between atoms: C5_4  and  C6_5 
REMARK    5  A    between atoms: C6_5  and  O6_11 
REMARK    6  A    between atoms: O3_19  and  C1_6 
REMARK    7  A    between atoms: C2_12  and  O2_18 
REMARK    8  A    between atoms: C3_13  and  O3_19 
REMARK    9  A    between atoms: C4_14  and  O4_20 
REMARK   10  A    between atoms: C5_15  and  C6_16 
REMARK   11  A    between atoms: C6_16  and  O6_22 
REMARK   12  A    between atoms: O3_30  and  C1_17 
REMARK   13  A    between atoms: C2_23  and  O2_29 
REMARK   14  A    between atoms: C3_24  and  O3_30 
REMARK   15  A    between atoms: C4_25  and  O4_31 
REMARK   16  A    between atoms: C5_26  and  C6_27 
REMARK   17  A    between atoms: C6_27  and  O6_33 
REMARK   18  A    between atoms: O3_41  and  C1_28 
REMARK   19  A    between atoms: C2_34  and  O2_40 
REMARK   20  A    between atoms: C3_35  and  O3_41 
REMARK   21  A    between atoms: C4_36  and  O4_42 
REMARK   22  A    between atoms: C5_37  and  C6_38 
REMARK   23  A    between atoms: C6_38  and  O6_44 
REMARK   24  A    between atoms: O3_52  and  C1_39 
REMARK   25  A    between atoms: C2_45  and  O2_51 
REMARK   26  A    between atoms: C3_46  and  O3_52 
REMARK   27  A    between atoms: C4_47  and  O4_53 
REMARK   28  A    between atoms: C5_48  and  C6_49 
REMARK   29  A    between atoms: C6_49  and  O6_55 
REMARK   30  A    between atoms: O3_64  and  C1_50 
REMARK   31  A    between atoms: C2_56  and  O2_63 
REMARK   32  A    between atoms: C3_57  and  O3_64 
REMARK   33  A    between atoms: C4_58  and  O4_65 
REMARK   34  A    between atoms: C5_59  and  C6_60 
REMARK   35  A    between atoms: C6_60  and  O6_67 
REMARK   36  A    between atoms: C1_61  and  O1_62 
ROOT
ATOM      1  O3  NON d   1      53.012  18.924   7.959  0.00  0.00    -0.348 OA
ENDROOT
BRANCH   1   2
ATOM      2  C1  NON d   1      52.295  20.391   7.879  0.00  0.00     0.159 C 
ATOM      3  C2  NON d   1      53.350  21.327   7.310  0.00  0.00     0.110 C 
ATOM      4  C3  NON d   1      52.542  22.600   7.103  0.00  0.00     0.098 C 
ATOM      5  H22 NON d   1      53.715  20.947   6.345  0.00  0.00     0.094 H 
ATOM      6  C4  NON d   1      51.405  22.397   6.185  0.00  0.00     0.090 C 
ATOM      7  H23 NON d   1      52.224  23.065   8.048  0.00  0.00     0.091 H 
ATOM      8  C5  NON d   1      50.509  21.368   6.860  0.00  0.00     0.089 C 
ATOM      9  H24 NON d   1      51.750  22.045   5.202  0.00  0.00     0.091 H 
ATOM     10  O5  NON d   1      51.283  20.193   6.917  0.00  0.00    -0.348 OA
ATOM     11  H25 NON d   1      50.321  21.709   7.889  0.00  0.00     0.090 H 
ATOM     12  H28 NON d   1      51.903  20.742   8.845  0.00  0.00     0.133 H 
BRANCH   3  13
ATOM     13  O2  NON d   1      54.466  21.499   8.159  0.00  0.00    -0.388 OA
ATOM     14  H29 NON d   1      55.086  22.091   7.750  0.00  0.00     0.210 HD
ENDBRANCH   3  13
BRANCH   4  15
ATOM     15  O3  NON d   1      53.481  23.340   6.383  0.00  0.00    -0.348 OA
BRANCH  15  16
ATOM     16  C1  NON d   1      53.818  24.970   6.724  0.00  0.00     0.159 C 
ATOM     17  C2  NON d   1      55.276  25.359   6.390  0.00  0.00     0.110 C 
ATOM     18  C3  NON d   1      55.316  26.877   6.357  0.00  0.00     0.098 C 
ATOM     19  H12 NON d   1      55.554  24.951   5.407  0.00  0.00     0.094 H 
ATOM     20  C4  NON d   1      54.093  27.505   5.659  0.00  0.00     0.090 C 
ATOM     21  H13 NON d   1      55.349  27.248   7.392  0.00  0.00     0.091 H 
ATOM     22  C5  NON d   1      52.737  26.799   5.816  0.00  0.00     0.089 C 
ATOM     23  H14 NON d   1      54.331  27.560   4.587  0.00  0.00     0.091 H 
ATOM     24  O5  NON d   1      52.876  25.404   5.761  0.00  0.00    -0.348 OA
ATOM     25  H15 NON d   1      52.326  27.070   6.800  0.00  0.00     0.090 H 
ATOM     26  H18 NON d   1      53.577  25.274   7.753  0.00  0.00     0.133 H 
BRANCH  17  27
ATOM     27  O2  NON d   1      56.181  24.879   7.364  0.00  0.00    -0.388 OA
ATOM     28  H19 NON d   1      56.126  23.931   7.406  0.00  0.00     0.210 HD
ENDBRANCH  17  27
BRANCH  18  29
ATOM     29  O3  NON d   1      56.495  27.270   5.682  0.00  0.00    -0.348 OA
BRANCH  29  30
ATOM     30  C1  NON d   1      58.186  27.107   5.861  0.00  0.00     0.159 C 
ATOM     31  C2  NON d   1      59.247  27.241   4.739  0.00  0.00     0.110 C 
ATOM     32  C3  NON d   1      60.667  27.442   5.282  0.00  0.00     0.092 C 
ATOM     33  H1  NON d   1      58.980  28.096   4.100  0.00  0.00     0.094 H 
ATOM     34  C4  NON d   1      60.694  28.499   6.392  0.00  0.00     0.090 C 
ATOM     35  H2  NON d   1      61.003  26.483   5.704  0.00  0.00     0.091 H 
ATOM     36  C5  NON d   1      59.516  28.344   7.398  0.00  0.00     0.089 C 
ATOM     37  H3  NON d   1      60.548  29.476   5.908  0.00  0.00     0.091 H 
ATOM     38  O5  NON d   1      58.211  28.185   6.792  0.00  0.00    -0.348 OA
ATOM     39  H4  NON d   1      59.708  27.425   7.971  0.00  0.00     0.090 H 
ATOM     40  H7  NON d   1      58.403  26.142   6.343  0.00  0.00     0.133 H 
BRANCH  31  41
ATOM     41  O2  NON d   1      59.266  26.060   3.976  0.00  0.00    -0.388 OA
ATOM     42  H8  NON d   1      59.916  26.140   3.288  0.00  0.00     0.210 HD
ENDBRANCH  31  41
BRANCH  32  43
ATOM     43  O3  NON d   1      61.581  27.828   4.273  0.00  0.00    -0.390 OA
ATOM     44  H9  NON d   1      62.454  27.888   4.644  0.00  0.00     0.210 HD
ENDBRANCH  32  43
BRANCH  34  45
ATOM     45  O4  NON d   1      62.005  28.532   6.988  0.00  0.00    -0.390 OA
ATOM     46  H10 NON d   1      62.659  28.628   6.306  0.00  0.00     0.210 HD
ENDBRANCH  34  45
BRANCH  36  47
ATOM     47  C6  NON d   1      59.526  29.511   8.383  0.00  0.00     0.043 C 
ATOM     48  H5  NON d   1      60.487  30.041   8.317  0.00  0.00     0.078 H 
ATOM     49  H6  NON d   1      59.386  29.132   9.406  0.00  0.00     0.078 H 
BRANCH  47  50
ATOM     50  O6  NON d   1      58.479  30.390   8.058  0.00  0.00    -0.398 OA
ATOM     51  H11 NON d   1      57.651  29.928   8.114  0.00  0.00     0.209 HD
ENDBRANCH  47  50
ENDBRANCH  36  47
ENDBRANCH  29  30
ENDBRANCH  18  29
BRANCH  20  52
ATOM     52  O4  NON d   1      53.841  28.800   6.158  0.00  0.00    -0.390 OA
ATOM     53  H20 NON d   1      54.634  29.320   6.101  0.00  0.00     0.210 HD
ENDBRANCH  20  52
BRANCH  22  54
ATOM     54  C6  NON d   1      51.747  27.241   4.740  0.00  0.00     0.043 C 
ATOM     55  H16 NON d   1      52.293  27.644   3.874  0.00  0.00     0.078 H 
ATOM     56  H17 NON d   1      51.078  28.015   5.144  0.00  0.00     0.078 H 
BRANCH  54  57
ATOM     57  O6  NON d   1      50.994  26.115   4.349  0.00  0.00    -0.398 OA
ATOM     58  H21 NON d   1      51.578  25.449   4.004  0.00  0.00     0.209 HD
ENDBRANCH  54  57
ENDBRANCH  22  54
ENDBRANCH  15  16
ENDBRANCH   4  15
BRANCH   6  59
ATOM     59  O4  NON d   1      50.673  23.599   6.053  0.00  0.00    -0.390 OA
ATOM     60  H30 NON d   1      51.217  24.255   5.633  0.00  0.00     0.210 HD
ENDBRANCH   6  59
BRANCH   8  61
ATOM     61  C6  NON d   1      49.117  21.153   6.215  0.00  0.00     0.043 C 
ATOM     62  H26 NON d   1      49.240  20.737   5.204  0.00  0.00     0.078 H 
ATOM     63  H27 NON d   1      48.587  22.115   6.154  0.00  0.00     0.078 H 
BRANCH  61  64
ATOM     64  O6  NON d   1      48.372  20.254   7.008  0.00  0.00    -0.398 OA
ATOM     65  H31 NON d   1      48.831  19.424   7.060  0.00  0.00     0.209 HD
ENDBRANCH  61  64
ENDBRANCH   8  61
ENDBRANCH   1   2
BRANCH   1  66
ATOM     66  C3  NON d   1      52.973  18.340   9.220  0.00  0.00     0.098 C 
ATOM     67  C2  NON d   1      54.428  18.201   9.593  0.00  0.00     0.110 C 
ATOM     68  C1  NON d   1      54.451  17.305  10.839  0.00  0.00     0.159 C 
ATOM     69  H32 NON d   1      54.981  17.713   8.777  0.00  0.00     0.094 H 
ATOM     70  O5  NON d   1      53.839  16.061  10.562  0.00  0.00    -0.348 OA
ATOM     71  H38 NON d   1      53.951  17.808  11.680  0.00  0.00     0.133 H 
ATOM     72  C5  NON d   1      52.440  16.184  10.322  0.00  0.00     0.089 C 
ATOM     73  C4  NON d   1      52.230  17.051   9.063  0.00  0.00     0.090 C 
ATOM     74  H35 NON d   1      51.962  16.675  11.182  0.00  0.00     0.090 H 
ATOM     75  H34 NON d   1      52.642  16.505   8.202  0.00  0.00     0.091 H 
ATOM     76  H33 NON d   1      52.455  18.977   9.952  0.00  0.00     0.091 H 
BRANCH  67  77
ATOM     77  O2  NON d   1      55.011  19.495   9.835  0.00  0.00    -0.388 OA
ATOM     78  H39 NON d   1      54.974  20.012   9.039  0.00  0.00     0.210 HD
ENDBRANCH  67  77
BRANCH  68  79
ATOM     79  O3  NON d   1      55.839  16.995  11.159  0.00  0.00    -0.348 OA
BRANCH  79  80
ATOM     80  C3  NON d   1      56.104  16.199  12.300  0.00  0.00     0.098 C 
ATOM     81  C2  NON d   1      56.962  17.024  13.217  0.00  0.00     0.110 C 
ATOM     82  C1  NON d   1      57.252  16.127  14.425  0.00  0.00     0.159 C 
ATOM     83  H42 NON d   1      57.904  17.280  12.711  0.00  0.00     0.094 H 
ATOM     84  O5  NON d   1      58.094  15.105  13.938  0.00  0.00    -0.348 OA
ATOM     85  H48 NON d   1      56.395  15.864  15.062  0.00  0.00     0.133 H 
ATOM     86  C5  NON d   1      57.459  14.211  13.048  0.00  0.00     0.089 C 
ATOM     87  C4  NON d   1      56.878  14.965  11.847  0.00  0.00     0.090 C 
ATOM     88  H45 NON d   1      56.656  13.673  13.573  0.00  0.00     0.090 H 
ATOM     89  H44 NON d   1      57.696  15.263  11.174  0.00  0.00     0.091 H 
ATOM     90  H43 NON d   1      55.170  15.905  12.801  0.00  0.00     0.091 H 
BRANCH  81  91
ATOM     91  O2  NON d   1      56.324  18.216  13.598  0.00  0.00    -0.388 OA
ATOM     92  H49 NON d   1      56.882  18.694  14.200  0.00  0.00     0.210 HD
ENDBRANCH  81  91
BRANCH  82  93
ATOM     93  O3  NON d   1      58.495  16.806  15.035  0.00  0.00    -0.348 OA
BRANCH  93  94
ATOM     94  C3  NON d   1      58.961  17.115  16.330  0.00  0.00     0.098 C 
ATOM     95  C2  NON d   1      60.424  16.721  16.433  0.00  0.00     0.110 C 
ATOM     96  C1  NON d   1      60.957  17.283  17.734  0.00  0.00     0.156 C 
ATOM     97  H52 NON d   1      60.499  15.624  16.467  0.00  0.00     0.094 H 
ATOM     98  O5  NON d   1      60.239  16.616  18.749  0.00  0.00    -0.349 OA
ATOM     99  H58 NON d   1      60.810  18.372  17.793  0.00  0.00     0.133 H 
ATOM    100  C5  NON d   1      58.850  16.924  18.768  0.00  0.00     0.089 C 
ATOM    101  C4  NON d   1      58.182  16.461  17.468  0.00  0.00     0.090 C 
ATOM    102  H55 NON d   1      58.705  18.009  18.872  0.00  0.00     0.090 H 
ATOM    103  H54 NON d   1      58.212  15.364  17.394  0.00  0.00     0.091 H 
ATOM    104  H53 NON d   1      58.880  18.204  16.459  0.00  0.00     0.091 H 
BRANCH  95 105
ATOM    105  O2  NON d   1      61.145  17.173  15.307  0.00  0.00    -0.388 OA
ATOM    106  H60 NON d   1      60.772  16.793  14.520  0.00  0.00     0.210 HD
ENDBRANCH  95 105
BRANCH  96 107
ATOM    107  O1  NON d   1      62.329  16.962  17.830  0.00  0.00    -0.369 OA
ATOM    108  H59 NON d   1      62.807  17.413  17.145  0.00  0.00     0.212 HD
ENDBRANCH  96 107
BRANCH 100 109
ATOM    109  C6  NON d   1      58.294  16.212  19.994  0.00  0.00     0.043 C 
ATOM    110  H56 NON d   1      58.974  15.394  20.276  0.00  0.00     0.078 H 
ATOM    111  H57 NON d   1      57.303  15.799  19.754  0.00  0.00     0.078 H 
BRANCH 109 112
ATOM    112  O6  NON d   1      58.172  17.110  21.080  0.00  0.00    -0.398 OA
ATOM    113  H62 NON d   1      57.824  16.648  21.834  0.00  0.00     0.209 HD
ENDBRANCH 109 112
ENDBRANCH 100 109
BRANCH 101 114
ATOM    114  O4  NON d   1      56.851  16.920  17.368  0.00  0.00    -0.390 OA
ATOM    115  H61 NON d   1      56.843  17.870  17.386  0.00  0.00     0.210 HD
ENDBRANCH 101 114
ENDBRANCH  93  94
ENDBRANCH  82  93
BRANCH  86 116
ATOM    116  C6  NON d   1      58.508  13.222  12.532  0.00  0.00     0.043 C 
ATOM    117  H46 NON d   1      59.513  13.512  12.872  0.00  0.00     0.078 H 
ATOM    118  H47 NON d   1      58.491  13.178  11.433  0.00  0.00     0.078 H 
BRANCH 116 119
ATOM    119  O6  NON d   1      58.140  11.987  13.080  0.00  0.00    -0.398 OA
ATOM    120  H51 NON d   1      58.755  11.320  12.797  0.00  0.00     0.209 HD
ENDBRANCH 116 119
ENDBRANCH  86 116
BRANCH  87 121
ATOM    121  O4  NON d   1      55.970  14.137  11.166  0.00  0.00    -0.390 OA
ATOM    122  H50 NON d   1      55.267  13.889  11.754  0.00  0.00     0.210 HD
ENDBRANCH  87 121
ENDBRANCH  79  80
ENDBRANCH  68  79
BRANCH  72 123
ATOM    123  C6  NON d   1      51.830  14.796  10.140  0.00  0.00     0.043 C 
ATOM    124  H36 NON d   1      52.384  14.259   9.356  0.00  0.00     0.078 H 
ATOM    125  H37 NON d   1      50.777  14.902   9.839  0.00  0.00     0.078 H 
BRANCH 123 126
ATOM    126  O6  NON d   1      51.896  14.051  11.352  0.00  0.00    -0.398 OA
ATOM    127  H41 NON d   1      52.804  13.955  11.614  0.00  0.00     0.209 HD
ENDBRANCH 123 126
ENDBRANCH  72 123
BRANCH  73 128
ATOM    128  O4  NON d   1      50.878  17.331   8.795  0.00  0.00    -0.390 OA
ATOM    129  H40 NON d   1      50.407  16.517   8.662  0.00  0.00     0.210 HD
ENDBRANCH  73 128
ENDBRANCH   1  66
TORSDOF 36
