REMARK WARNING: 32 MAX_TORS EXCEEDED!!!
REMARK  79 active torsions:
REMARK  status: ('A' for Active; 'I' for Inactive)
REMARK    1  A    between atoms: N_1  and  CA_2 
REMARK    2  A    between atoms: CA_2  and  C_3 
REMARK    3  A    between atoms: CA_2  and  CB_5 
REMARK       I    between atoms: C_3  and  N_6 
REMARK    4  A    between atoms: N_6  and  CA_7 
REMARK    5  A    between atoms: CA_7  and  C_8 
REMARK    6  A    between atoms: CA_7  and  CB_10 
REMARK       I    between atoms: C_8  and  N_17 
REMARK    7  A    between atoms: CB_10  and  CG_11 
REMARK    8  A    between atoms: CG_11  and  CD_12 
REMARK    9  A    between atoms: CD_12  and  NE_13 
REMARK       I    between atoms: NE_13  and  CZ_14 
REMARK       I    between atoms: CZ_14  and  NH1_15 
REMARK       I    between atoms: CZ_14  and  NH2_16 
REMARK   10  A    between atoms: N_17  and  CA_18 
REMARK   11  A    between atoms: CA_18  and  C_19 
REMARK   12  A    between atoms: CA_18  and  CB_21 
REMARK       I    between atoms: C_19  and  N_24 
REMARK   13  A    between atoms: CB_21  and  OG1_22 
REMARK   14  A    between atoms: CB_21  and  CG2_23 
REMARK   15  A    between atoms: N_24  and  CA_25 
REMARK   16  A    between atoms: CA_25  and  CB_26 
REMARK   17  A    between atoms: CA_25  and  C_33 
REMARK   18  A    between atoms: CB_26  and  CG_27 
REMARK   19  A    between atoms: CG_27  and  CD_28 
REMARK   20  A    between atoms: CD_28  and  CE_29 
REMARK   21  A    between atoms: CE_29  and  NZ_30 
REMARK   22  A    between atoms: NZ_30  and  CH1_31 
REMARK   23  A    between atoms: NZ_30  and  CH2_32 
REMARK       I    between atoms: C_33  and  N_35 
REMARK   24  A    between atoms: N_35  and  CA_36 
REMARK   25  A    between atoms: CA_36  and  C_37 
REMARK   26  A    between atoms: CA_36  and  CB_39 
REMARK       I    between atoms: C_37  and  N_44 
REMARK   27  A    between atoms: CB_39  and  CG_40 
REMARK   28  A    between atoms: CG_40  and  CD_41 
REMARK       I    between atoms: CD_41  and  NE2_43 
REMARK   29  A    between atoms: N_44  and  CA_45 
REMARK   30  A    between atoms: CA_45  and  C_46 
REMARK   31  A    between atoms: CA_45  and  CB_48 
REMARK       I    between atoms: C_46  and  N_51 
REMARK   32  A    between atoms: CB_48  and  OG1_49 
REMARK   33  A    between atoms: CB_48  and  CG2_50 
REMARK   34  A    between atoms: N_51  and  CA_52 
REMARK   35  A    between atoms: CA_52  and  C_53 
REMARK   36  A    between atoms: CA_52  and  CB_55 
REMARK       I    between atoms: C_53  and  N_56 
REMARK   37  A    between atoms: N_56  and  CA_57 
REMARK   38  A    between atoms: CA_57  and  C_58 
REMARK   39  A    between atoms: CA_57  and  CB_60 
REMARK       I    between atoms: C_58  and  N_67 
REMARK   40  A    between atoms: CB_60  and  CG_61 
REMARK   41  A    between atoms: CG_61  and  CD_62 
REMARK   42  A    between atoms: CD_62  and  NE_63 
REMARK       I    between atoms: NE_63  and  CZ_64 
REMARK       I    between atoms: CZ_64  and  NH1_65 
REMARK   43  A    between atoms: N_67  and  CA_68 
REMARK   44  A    between atoms: CA_68  and  CB_69 
REMARK   45  A    between atoms: CA_68  and  C_76 
REMARK   46  A    between atoms: CB_69  and  CG_70 
REMARK   47  A    between atoms: CG_70  and  CD_71 
REMARK   48  A    between atoms: CD_71  and  CE_72 
REMARK   49  A    between atoms: CE_72  and  NZ_73 
REMARK   50  A    between atoms: NZ_73  and  CH1_74 
REMARK   51  A    between atoms: NZ_73  and  CH2_75 
REMARK       I    between atoms: C_76  and  N_78 
REMARK   52  A    between atoms: N_78  and  CA_79 
REMARK   53  A    between atoms: CA_79  and  C_80 
REMARK   54  A    between atoms: CA_79  and  CB_82 
REMARK       I    between atoms: C_80  and  N_84 
REMARK   55  A    between atoms: CB_82  and  OG_83 
REMARK   56  A    between atoms: N_84  and  CA_85 
REMARK   57  A    between atoms: CA_85  and  C_86 
REMARK   58  A    between atoms: CA_85  and  CB_88 
REMARK       I    between atoms: C_86  and  N_91 
REMARK   59  A    between atoms: CB_88  and  OG1_89 
REMARK   60  A    between atoms: CB_88  and  CG2_90 
REMARK   61  A    between atoms: N_91  and  CA_92 
REMARK   62  A    between atoms: CA_92  and  C_93 
REMARK       I    between atoms: C_93  and  N_95 
REMARK   63  A    between atoms: N_95  and  CA_96 
REMARK   64  A    between atoms: CA_96  and  C_97 
REMARK       I    between atoms: C_97  and  N_99 
REMARK   65  A    between atoms: N_99  and  CA_100 
REMARK   66  A    between atoms: CA_100  and  C_101 
REMARK   67  A    between atoms: CA_100  and  CB_103 
REMARK       I    between atoms: C_101  and  N_108 
REMARK   68  A    between atoms: CB_103  and  CG_104 
REMARK   69  A    between atoms: CG_104  and  CD_105 
REMARK   70  A    between atoms: CD_105  and  CE_106 
REMARK   71  A    between atoms: CE_106  and  NZ_107 
REMARK   72  A    between atoms: N_108  and  CA_109 
REMARK   73  A    between atoms: CA_109  and  C_110 
REMARK   74  A    between atoms: CA_109  and  CB_112 
REMARK       I    between atoms: C_110  and  N_113 
REMARK   75  A    between atoms: CA_114  and  C_115 
REMARK       I    between atoms: C_115  and  N_120 
REMARK   76  A    between atoms: N_120  and  CA_121 
REMARK   77  A    between atoms: CA_121  and  C_122 
REMARK       I    between atoms: C_122  and  N_124 
REMARK   78  A    between atoms: N_124  and  CA_125 
REMARK   79  A    between atoms: CA_125  and  C_126 
ROOT
ATOM      1  CA  ARG d   1      -5.980  -3.919   2.034  0.00  0.00     0.089 C 
ATOM      2  H66 ARG d   1      -6.360  -4.736   1.403  0.00  0.00     0.087 H 
ENDROOT
BRANCH   1   3
ATOM      3  N   ARG d   1      -4.628  -4.251   2.464  0.00  0.00    -0.346 N 
ATOM      4  C   ALA d   1      -3.686  -4.599   1.592  0.00  0.00     0.240 C 
ATOM      5  O   ALA d   1      -3.886  -4.664   0.378  0.00  0.00    -0.271 OA
ATOM      6  H65 ARG d   1      -4.403  -4.216   3.438  0.00  0.00     0.163 HD
BRANCH   4   7
ATOM      7  CA  ALA d   1      -2.315  -4.914   2.175  0.00  0.00     0.086 C 
ATOM      8  H61 ALA d   1      -2.404  -4.946   3.271  0.00  0.00     0.086 H 
BRANCH   7   9
ATOM      9  N   ALA d   1      -1.834  -6.213   1.717  0.00  0.00    -0.346 N 
ATOM     10  C   THR d   1      -1.251  -7.069   2.551  0.00  0.00     0.243 C 
ATOM     11  O   THR d   1      -1.081  -6.826   3.744  0.00  0.00    -0.271 OA
ATOM     12  H60 ALA d   1      -1.945  -6.465   0.756  0.00  0.00     0.163 HD
BRANCH  10  13
ATOM     13  CA  THR d   1      -0.791  -8.396   1.957  0.00  0.00     0.113 C 
ATOM     14  H54 THR d   1      -0.608  -8.261   0.881  0.00  0.00     0.091 H 
BRANCH  13  15
ATOM     15  N   THR d   1       0.453  -8.837   2.581  0.00  0.00    -0.344 N 
ATOM     16  C   GLN d   1       1.355  -9.571   1.932  0.00  0.00     0.241 C 
ATOM     17  O   GLN d   1       1.216  -9.934   0.764  0.00  0.00    -0.271 OA
ATOM     18  H53 THR d   1       0.634  -8.579   3.530  0.00  0.00     0.163 HD
BRANCH  16  19
ATOM     19  CA  GLN d   1       2.602  -9.948   2.730  0.00  0.00     0.090 C 
ATOM     20  H46 GLN d   1       2.378  -9.820   3.799  0.00  0.00     0.087 H 
BRANCH  19  21
ATOM     21  N   GLN d   1       2.986 -11.339   2.509  0.00  0.00    -0.346 N 
ATOM     22  C   MLY d   1       2.115 -12.338   2.622  0.00  0.00     0.241 C 
ATOM     23  O   MLY d   1       0.932 -12.171   2.920  0.00  0.00    -0.271 OA
ATOM     24  H45 GLN d   1       3.933 -11.547   2.265  0.00  0.00     0.163 HD
BRANCH  22  25
ATOM     25  CA  MLY d   1       2.667 -13.739   2.369  0.00  0.00     0.089 C 
ATOM     26  H29 MLY d   1       3.743 -13.733   2.597  0.00  0.00     0.087 H 
BRANCH  25  27
ATOM     27  N   MLY d   1       2.021 -14.716   3.238  0.00  0.00    -0.346 N 
ATOM     28  C   THR d   1       2.414 -14.901   4.494  0.00  0.00     0.243 C 
ATOM     29  O   THR d   1       3.340 -14.273   5.006  0.00  0.00    -0.271 OA
ATOM     30  H28 MLY d   1       1.263 -15.261   2.880  0.00  0.00     0.163 HD
BRANCH  28  31
ATOM     31  CA  THR d   1       1.645 -15.950   5.290  0.00  0.00     0.113 C 
ATOM     32  H22 THR d   1       1.008 -16.516   4.594  0.00  0.00     0.091 H 
BRANCH  31  33
ATOM     33  N   THR d   1       2.545 -16.893   5.942  0.00  0.00    -0.344 N 
ATOM     34  C   ARG d   1       3.292 -17.745   5.245  0.00  0.00     0.241 C 
ATOM     35  O   ARG d   1       3.271 -17.802   4.015  0.00  0.00    -0.271 OA
ATOM     36  H21 THR d   1       2.603 -16.900   6.940  0.00  0.00     0.163 HD
BRANCH  34  37
ATOM     37  CA  ARG d   1       4.178 -18.684   6.060  0.00  0.00     0.089 C 
ATOM     38  H9  ARG d   1       3.739 -18.776   7.064  0.00  0.00     0.087 H 
BRANCH  37  39
ATOM     39  N   ARG d   1       4.226 -20.015   5.466  0.00  0.00    -0.346 N 
ATOM     40  C   ALA d   1       3.119 -20.718   5.238  0.00  0.00     0.248 C 
ATOM     41  O   ALA d   1       1.993 -20.300   5.508  0.00  0.00    -0.271 OA
ATOM     42  H8  ARG d   1       5.112 -20.409   5.224  0.00  0.00     0.163 HD
BRANCH  40  43
ATOM     43  CA  ALA d   1       3.309 -22.095   4.611  0.00  0.00     0.172 C 
ATOM     44  H4  ALA d   1       2.356 -22.400   4.154  0.00  0.00     0.098 H 
BRANCH  43  45
ATOM     45  N   ALA d   1       4.346 -22.060   3.547  0.00  0.00    -0.067 N 
ATOM     46  H1  ALA d   1       4.451 -22.981   3.150  0.00  0.00     0.275 HD
ATOM     47  H2  ALA d   1       5.224 -21.762   3.943  0.00  0.00     0.275 HD
ATOM     48  H3  ALA d   1       4.066 -21.413   2.826  0.00  0.00     0.275 HD
ENDBRANCH  43  45
BRANCH  43  49
ATOM     49  CB  ALA d   1       3.680 -23.115   5.677  0.00  0.00    -0.042 C 
ATOM     50  H5  ALA d   1       2.904 -23.129   6.457  0.00  0.00     0.030 H 
ATOM     51  H6  ALA d   1       4.646 -22.841   6.126  0.00  0.00     0.030 H 
ATOM     52  H7  ALA d   1       3.758 -24.112   5.219  0.00  0.00     0.030 H 
ENDBRANCH  43  49
ENDBRANCH  40  43
ENDBRANCH  37  39
BRANCH  37  53
ATOM     53  CB  ARG d   1       5.595 -18.112   6.212  0.00  0.00    -0.036 C 
ATOM     54  H10 ARG d   1       6.075 -18.608   7.068  0.00  0.00     0.036 H 
ATOM     55  H11 ARG d   1       5.510 -17.034   6.414  0.00  0.00     0.036 H 
BRANCH  53  56
ATOM     56  CG  ARG d   1       6.490 -18.298   4.991  0.00  0.00    -0.048 C 
ATOM     57  H12 ARG d   1       6.376 -19.328   4.622  0.00  0.00     0.035 H 
ATOM     58  H13 ARG d   1       7.535 -18.129   5.289  0.00  0.00     0.035 H 
BRANCH  56  59
ATOM     59  CD  ARG d   1       6.139 -17.334   3.869  0.00  0.00     0.009 C 
ATOM     60  H14 ARG d   1       5.103 -17.522   3.550  0.00  0.00     0.064 H 
ATOM     61  H15 ARG d   1       6.820 -17.510   3.023  0.00  0.00     0.064 H 
BRANCH  59  62
ATOM     62  NE  ARG d   1       6.258 -15.941   4.288  0.00  0.00    -0.227 N 
ATOM     63  CZ  ARG d   1       6.018 -14.907   3.490  0.00  0.00     0.665 C 
ATOM     64  NH1 ARG d   1       5.650 -15.106   2.232  0.00  0.00    -0.235 N 
ATOM     65  NH2 ARG d   1       6.148 -13.670   3.948  0.00  0.00    -0.235 N 
ATOM     66  H17 ARG d   1       5.465 -14.301   1.616  0.00  0.00     0.174 HD
ATOM     67  H18 ARG d   1       5.549 -16.065   1.870  0.00  0.00     0.174 HD
ATOM     68  H19 ARG d   1       6.434 -13.510   4.925  0.00  0.00     0.174 HD
ATOM     69  H20 ARG d   1       5.963 -12.869   3.327  0.00  0.00     0.174 HD
ATOM     70  H16 ARG d   1       6.545 -15.749   5.258  0.00  0.00     0.177 HD
ENDBRANCH  59  62
ENDBRANCH  56  59
ENDBRANCH  53  56
ENDBRANCH  37  53
ENDBRANCH  34  37
ENDBRANCH  31  33
BRANCH  31  71
ATOM     71  CB  THR d   1       0.736 -15.240   6.314  0.00  0.00     0.060 C 
ATOM     72  H23 THR d   1       0.093 -15.992   6.795  0.00  0.00     0.086 H 
BRANCH  71  73
ATOM     73  OG1 THR d   1      -0.093 -14.278   5.650  0.00  0.00    -0.393 OA
ATOM     74  H24 THR d   1      -0.649 -13.846   6.288  0.00  0.00     0.210 HD
ENDBRANCH  71  73
BRANCH  71  75
ATOM     75  CG2 THR d   1       1.563 -14.547   7.388  0.00  0.00    -0.050 C 
ATOM     76  H25 THR d   1       0.892 -14.050   8.104  0.00  0.00     0.031 H 
ATOM     77  H26 THR d   1       2.219 -13.799   6.920  0.00  0.00     0.031 H 
ATOM     78  H27 THR d   1       2.176 -15.292   7.917  0.00  0.00     0.031 H 
ENDBRANCH  71  75
ENDBRANCH  31  71
ENDBRANCH  28  31
ENDBRANCH  25  27
BRANCH  25  79
ATOM     79  CB  MLY d   1       2.487 -14.126   0.901  0.00  0.00    -0.038 C 
ATOM     80  H30 MLY d   1       3.012 -15.077   0.726  0.00  0.00     0.036 H 
ATOM     81  H31 MLY d   1       2.936 -13.339   0.277  0.00  0.00     0.036 H 
BRANCH  79  82
ATOM     82  CG  MLY d   1       1.036 -14.297   0.485  0.00  0.00    -0.061 C 
ATOM     83  H32 MLY d   1       0.534 -13.319   0.524  0.00  0.00     0.033 H 
ATOM     84  H33 MLY d   1       0.543 -14.990   1.182  0.00  0.00     0.033 H 
BRANCH  82  85
ATOM     85  CD  MLY d   1       0.928 -14.853  -0.926  0.00  0.00    -0.042 C 
ATOM     86  H34 MLY d   1       1.470 -15.809  -0.976  0.00  0.00     0.035 H 
ATOM     87  H35 MLY d   1       1.381 -14.137  -1.628  0.00  0.00     0.035 H 
BRANCH  85  88
ATOM     88  CE  MLY d   1      -0.520 -15.086  -1.325  0.00  0.00     0.083 C 
ATOM     89  H36 MLY d   1      -1.044 -14.119  -1.343  0.00  0.00     0.075 H 
ATOM     90  H37 MLY d   1      -0.992 -15.745  -0.582  0.00  0.00     0.075 H 
BRANCH  88  91
ATOM     91  NZ  MLY d   1      -0.630 -15.719  -2.668  0.00  0.00    -0.079 N 
ATOM     92  H38 MLY d   1       0.184 -16.287  -2.842  0.00  0.00     0.278 HD
BRANCH  91  93
ATOM     93  CH1 MLY d   1      -1.734 -16.486  -2.709  0.00  0.00     0.066 C 
ATOM     94  H39 MLY d   1      -1.818 -16.955  -3.700  0.00  0.00     0.068 H 
ATOM     95  H40 MLY d   1      -2.621 -15.863  -2.522  0.00  0.00     0.068 H 
ATOM     96  H41 MLY d   1      -1.666 -17.268  -1.938  0.00  0.00     0.068 H 
ENDBRANCH  91  93
BRANCH  91  97
ATOM     97  CH2 MLY d   1      -0.721 -14.760  -3.605  0.00  0.00     0.066 C 
ATOM     98  H42 MLY d   1       0.181 -14.131  -3.574  0.00  0.00     0.068 H 
ATOM     99  H43 MLY d   1      -1.608 -14.139  -3.410  0.00  0.00     0.068 H 
ATOM    100  H44 MLY d   1      -0.810 -15.225  -4.598  0.00  0.00     0.068 H 
ENDBRANCH  91  97
ENDBRANCH  88  91
ENDBRANCH  85  88
ENDBRANCH  82  85
ENDBRANCH  79  82
ENDBRANCH  25  79
ENDBRANCH  22  25
ENDBRANCH  19  21
BRANCH  19 101
ATOM    101  CB  GLN d   1       3.756  -9.016   2.360  0.00  0.00    -0.030 C 
ATOM    102  H47 GLN d   1       3.368  -7.988   2.306  0.00  0.00     0.037 H 
ATOM    103  H48 GLN d   1       4.141  -9.315   1.374  0.00  0.00     0.037 H 
BRANCH 101 104
ATOM    104  CG  GLN d   1       4.908  -9.043   3.354  0.00  0.00     0.011 C 
ATOM    105  H49 GLN d   1       4.533  -8.716   4.335  0.00  0.00     0.047 H 
ATOM    106  H50 GLN d   1       5.686  -8.347   3.009  0.00  0.00     0.047 H 
BRANCH 104 107
ATOM    107  CD  GLN d   1       5.523 -10.420   3.505  0.00  0.00     0.215 C 
ATOM    108  OE1 GLN d   1       6.024 -10.999   2.542  0.00  0.00    -0.274 OA
ATOM    109  NE2 GLN d   1       5.489 -10.952   4.722  0.00  0.00    -0.370 N 
ATOM    110  H51 GLN d   1       5.880 -11.858   4.883  0.00  0.00     0.159 HD
ATOM    111  H52 GLN d   1       5.073 -10.446   5.478  0.00  0.00     0.159 HD
ENDBRANCH 104 107
ENDBRANCH 101 104
ENDBRANCH  19 101
ENDBRANCH  16  19
ENDBRANCH  13  15
BRANCH  13 112
ATOM    112  CB  THR d   1      -1.921  -9.430   2.142  0.00  0.00     0.060 C 
ATOM    113  H55 THR d   1      -2.843  -9.021   1.704  0.00  0.00     0.086 H 
BRANCH 112 114
ATOM    114  OG1 THR d   1      -2.139  -9.672   3.536  0.00  0.00    -0.393 OA
ATOM    115  H56 THR d   1      -2.836 -10.309   3.640  0.00  0.00     0.210 HD
ENDBRANCH 112 114
BRANCH 112 116
ATOM    116  CG2 THR d   1      -1.593 -10.739   1.443  0.00  0.00    -0.050 C 
ATOM    117  H57 THR d   1      -2.417 -11.452   1.594  0.00  0.00     0.031 H 
ATOM    118  H58 THR d   1      -0.665 -11.156   1.862  0.00  0.00     0.031 H 
ATOM    119  H59 THR d   1      -1.459 -10.556   0.367  0.00  0.00     0.031 H 
ENDBRANCH 112 116
ENDBRANCH  13 112
ENDBRANCH  10  13
ENDBRANCH   7   9
BRANCH   7 120
ATOM    120  CB  ALA d   1      -1.321  -3.822   1.803  0.00  0.00    -0.049 C 
ATOM    121  H62 ALA d   1      -1.696  -2.849   2.154  0.00  0.00     0.030 H 
ATOM    122  H63 ALA d   1      -1.198  -3.795   0.710  0.00  0.00     0.030 H 
ATOM    123  H64 ALA d   1      -0.350  -4.033   2.276  0.00  0.00     0.030 H 
ENDBRANCH   7 120
ENDBRANCH   4   7
ENDBRANCH   1   3
BRANCH   1 124
ATOM    124  C   ARG d   1      -5.975  -2.632   1.219  0.00  0.00     0.241 C 
ATOM    125  O   ARG d   1      -5.568  -1.579   1.711  0.00  0.00    -0.271 OA
ATOM    126  N   MLY d   1      -6.422  -2.720  -0.030  0.00  0.00    -0.346 N 
ATOM    127  H78 MLY d   1      -6.740  -3.603  -0.375  0.00  0.00     0.163 HD
BRANCH 126 128
ATOM    128  CA  MLY d   1      -6.458  -1.556  -0.908  0.00  0.00     0.089 C 
ATOM    129  H79 MLY d   1      -5.614  -0.901  -0.646  0.00  0.00     0.087 H 
BRANCH 128 130
ATOM    130  CB  MLY d   1      -6.307  -1.985  -2.367  0.00  0.00    -0.038 C 
ATOM    131  H80 MLY d   1      -5.352  -2.520  -2.475  0.00  0.00     0.036 H 
ATOM    132  H81 MLY d   1      -6.295  -1.083  -2.996  0.00  0.00     0.036 H 
BRANCH 130 133
ATOM    133  CG  MLY d   1      -7.426  -2.894  -2.851  0.00  0.00    -0.061 C 
ATOM    134  H82 MLY d   1      -8.393  -2.417  -2.632  0.00  0.00     0.033 H 
ATOM    135  H83 MLY d   1      -7.361  -3.854  -2.318  0.00  0.00     0.033 H 
BRANCH 133 136
ATOM    136  CD  MLY d   1      -7.333  -3.154  -4.346  0.00  0.00    -0.042 C 
ATOM    137  H84 MLY d   1      -8.159  -3.816  -4.646  0.00  0.00     0.035 H 
ATOM    138  H85 MLY d   1      -6.372  -3.644  -4.564  0.00  0.00     0.035 H 
BRANCH 136 139
ATOM    139  CE  MLY d   1      -7.422  -1.856  -5.148  0.00  0.00     0.083 C 
ATOM    140  H86 MLY d   1      -6.535  -1.245  -4.924  0.00  0.00     0.075 H 
ATOM    141  H87 MLY d   1      -8.328  -1.315  -4.839  0.00  0.00     0.075 H 
BRANCH 139 142
ATOM    142  NZ  MLY d   1      -7.484  -2.083  -6.628  0.00  0.00    -0.079 N 
ATOM    143  H88 MLY d   1      -7.487  -1.193  -7.102  0.00  0.00     0.278 HD
BRANCH 142 144
ATOM    144  CH1 MLY d   1      -6.414  -2.799  -7.028  0.00  0.00     0.066 C 
ATOM    145  H89 MLY d   1      -6.467  -2.961  -8.115  0.00  0.00     0.068 H 
ATOM    146  H90 MLY d   1      -6.409  -3.771  -6.512  0.00  0.00     0.068 H 
ATOM    147  H91 MLY d   1      -5.493  -2.249  -6.784  0.00  0.00     0.068 H 
ENDBRANCH 142 144
BRANCH 142 148
ATOM    148  CH2 MLY d   1      -8.611  -2.756  -6.932  0.00  0.00     0.066 C 
ATOM    149  H92 MLY d   1      -9.485  -2.173  -6.606  0.00  0.00     0.068 H 
ATOM    150  H93 MLY d   1      -8.607  -3.729  -6.419  0.00  0.00     0.068 H 
ATOM    151  H94 MLY d   1      -8.661  -2.915  -8.019  0.00  0.00     0.068 H 
ENDBRANCH 142 148
ENDBRANCH 139 142
ENDBRANCH 136 139
ENDBRANCH 133 136
ENDBRANCH 130 133
ENDBRANCH 128 130
BRANCH 128 152
ATOM    152  C   MLY d   1      -7.751  -0.766  -0.735  0.00  0.00     0.241 C 
ATOM    153  O   MLY d   1      -8.200  -0.091  -1.662  0.00  0.00    -0.271 OA
ATOM    154  N   SER d   1      -8.344  -0.849   0.454  0.00  0.00    -0.344 N 
ATOM    155  H95 SER d   1      -7.930  -1.415   1.167  0.00  0.00     0.163 HD
BRANCH 154 156
ATOM    156  CA  SER d   1      -9.583  -0.135   0.744  0.00  0.00     0.109 C 
ATOM    157  H96 SER d   1     -10.000  -0.526   1.684  0.00  0.00     0.090 H 
BRANCH 156 158
ATOM    158  C   SER d   1     -10.608  -0.350  -0.370  0.00  0.00     0.243 C 
ATOM    159  O   SER d   1     -11.246   0.596  -0.833  0.00  0.00    -0.271 OA
ATOM    160  N   THR d   1     -10.754  -1.600  -0.802  0.00  0.00    -0.344 N 
ATOM    161 0H10 THR d   1     -10.207  -2.327  -0.386  0.00  0.00     0.163 HD
BRANCH 160 162
ATOM    162  CA  THR d   1     -11.691  -1.937  -1.867  0.00  0.00     0.113 C 
ATOM    163 1H10 THR d   1     -11.414  -1.359  -2.761  0.00  0.00     0.091 H 
BRANCH 162 164
ATOM    164  C   THR d   1     -13.123  -1.578  -1.482  0.00  0.00     0.243 C 
ATOM    165  O   THR d   1     -13.803  -0.849  -2.205  0.00  0.00    -0.271 OA
ATOM    166  N   GLY d   1     -13.573  -2.096  -0.343  0.00  0.00    -0.350 N 
ATOM    167 7H10 GLY d   1     -12.974  -2.680   0.205  0.00  0.00     0.163 HD
BRANCH 166 168
ATOM    168  CA  GLY d   1     -14.924  -1.823   0.115  0.00  0.00     0.069 C 
ATOM    169 8H10 GLY d   1     -15.004  -0.755   0.367  0.00  0.00     0.078 H 
ATOM    170 9H10 GLY d   1     -15.122  -2.427   1.013  0.00  0.00     0.078 H 
BRANCH 168 171
ATOM    171  C   GLY d   1     -15.964  -2.155  -0.936  0.00  0.00     0.235 C 
ATOM    172  O   GLY d   1     -15.820  -3.133  -1.670  0.00  0.00    -0.272 OA
ATOM    173  N   GLY d   1     -17.009  -1.333  -1.018  0.00  0.00    -0.351 N 
ATOM    174 0H11 GLY d   1     -17.073  -0.551  -0.397  0.00  0.00     0.163 HD
BRANCH 173 175
ATOM    175  CA  GLY d   1     -18.057  -1.559  -1.999  0.00  0.00     0.069 C 
ATOM    176 1H11 GLY d   1     -17.646  -1.373  -3.002  0.00  0.00     0.078 H 
ATOM    177 2H11 GLY d   1     -18.879  -0.855  -1.804  0.00  0.00     0.078 H 
BRANCH 175 178
ATOM    178  C   GLY d   1     -18.607  -2.972  -1.954  0.00  0.00     0.236 C 
ATOM    179  O   GLY d   1     -18.947  -3.479  -0.886  0.00  0.00    -0.272 OA
ATOM    180  N   LYS d   1     -18.686  -3.607  -3.120  0.00  0.00    -0.346 N 
ATOM    181 3H11 LYS d   1     -18.390  -3.136  -3.951  0.00  0.00     0.163 HD
BRANCH 180 182
ATOM    182  CA  LYS d   1     -19.192  -4.971  -3.219  0.00  0.00     0.089 C 
ATOM    183 4H11 LYS d   1     -18.697  -5.582  -2.450  0.00  0.00     0.087 H 
BRANCH 182 184
ATOM    184  C   LYS d   1     -18.874  -5.564  -4.589  0.00  0.00     0.241 C 
ATOM    185  O   LYS d   1     -19.018  -4.896  -5.613  0.00  0.00    -0.271 OA
ATOM    186  N   ALA d   1     -18.436  -6.820  -4.596  0.00  0.00    -0.346 N 
ATOM    187 6H12 ALA d   1     -18.340  -7.307  -3.728  0.00  0.00     0.163 HD
BRANCH 186 188
ATOM    188  CA  ALA d   1     -18.092  -7.505  -5.838  0.00  0.00     0.086 C 
ATOM    189 7H12 ALA d   1     -17.289  -6.939  -6.333  0.00  0.00     0.086 H 
BRANCH 188 190
ATOM    190  C   ALA d   1     -19.288  -7.565  -6.786  0.00  0.00     0.243 C 
ATOM    191  O   ALA d   1     -20.409  -7.849  -6.365  0.00  0.00    -0.271 OA
ATOM    192  N   PRO d   1     -19.063  -7.301  -8.087  0.00  0.00    -0.337 N 
ATOM    193  CA  PRO d   1     -20.129  -7.330  -9.095  0.00  0.00     0.091 C 
ATOM    194  CD  PRO d   1     -17.756  -6.959  -8.678  0.00  0.00    -0.001 C 
ATOM    195  CB  PRO d   1     -19.425  -6.880 -10.380  0.00  0.00    -0.036 C 
ATOM    196 1H13 PRO d   1     -20.933  -6.630  -8.825  0.00  0.00     0.087 H 
ATOM    197  CG  PRO d   1     -17.983  -7.167 -10.148  0.00  0.00    -0.048 C 
ATOM    198 2H13 PRO d   1     -19.583  -5.805 -10.552  0.00  0.00     0.036 H 
ATOM    199 3H13 PRO d   1     -19.798  -7.448 -11.245  0.00  0.00     0.036 H 
ATOM    200 4H13 PRO d   1     -17.356  -6.478 -10.734  0.00  0.00     0.035 H 
ATOM    201 5H13 PRO d   1     -17.749  -8.204 -10.429  0.00  0.00     0.035 H 
ATOM    202 6H13 PRO d   1     -16.966  -7.626  -8.302  0.00  0.00     0.064 H 
ATOM    203 7H13 PRO d   1     -17.487  -5.914  -8.464  0.00  0.00     0.064 H 
BRANCH 193 204
ATOM    204  C   PRO d   1     -20.719  -8.726  -9.269  0.00  0.00     0.241 C 
ATOM    205  O   PRO d   1     -21.937  -8.889  -9.351  0.00  0.00    -0.271 OA
ATOM    206  N   GLY d   1     -19.846  -9.727  -9.326  0.00  0.00    -0.351 N 
ATOM    207 8H13 GLY d   1     -18.867  -9.533  -9.257  0.00  0.00     0.163 HD
BRANCH 206 208
ATOM    208  CA  GLY d   1     -20.296 -11.098  -9.488  0.00  0.00     0.069 C 
ATOM    209 9H13 GLY d   1     -20.997 -11.337  -8.675  0.00  0.00     0.078 H 
ATOM    210 0H14 GLY d   1     -19.423 -11.765  -9.428  0.00  0.00     0.078 H 
BRANCH 208 211
ATOM    211  C   GLY d   1     -20.994 -11.329 -10.814  0.00  0.00     0.235 C 
ATOM    212  O   GLY d   1     -20.537 -10.855 -11.855  0.00  0.00    -0.272 OA
ATOM    213  N   GLY d   1     -22.103 -12.061 -10.777  0.00  0.00    -0.350 N 
ATOM    214 1H14 GLY d   1     -22.428 -12.421  -9.902  0.00  0.00     0.163 HD
BRANCH 213 215
ATOM    215  CA  GLY d   1     -22.848 -12.344 -11.990  0.00  0.00     0.075 C 
ATOM    216 2H14 GLY d   1     -22.176 -12.832 -12.711  0.00  0.00     0.080 H 
ATOM    217 3H14 GLY d   1     -23.210 -11.395 -12.411  0.00  0.00     0.080 H 
BRANCH 215 218
ATOM    218  C   GLY d   1     -24.037 -13.251 -11.743  0.00  0.00     0.191 C 
ATOM    219  O   GLY d   1     -24.934 -12.856 -10.967  0.00  0.00    -0.647 OA
ATOM    220  OXT GLY d   1     -24.073 -14.355 -12.325  0.00  0.00    -0.647 OA
ENDBRANCH 215 218
ENDBRANCH 213 215
ENDBRANCH 208 211
ENDBRANCH 206 208
ENDBRANCH 193 204
ENDBRANCH 188 190
BRANCH 188 221
ATOM    221  CB  ALA d   1     -17.581  -8.906  -5.541  0.00  0.00    -0.049 C 
ATOM    222 8H12 ALA d   1     -17.326  -9.411  -6.484  0.00  0.00     0.030 H 
ATOM    223 9H12 ALA d   1     -18.362  -9.478  -5.019  0.00  0.00     0.030 H 
ATOM    224 0H13 ALA d   1     -16.686  -8.843  -4.905  0.00  0.00     0.030 H 
ENDBRANCH 188 221
ENDBRANCH 186 188
ENDBRANCH 182 184
BRANCH 182 225
ATOM    225  CB  LYS d   1     -20.703  -5.005  -2.969  0.00  0.00    -0.038 C 
ATOM    226 5H11 LYS d   1     -20.897  -4.607  -1.962  0.00  0.00     0.036 H 
ATOM    227 6H11 LYS d   1     -21.040  -6.051  -3.022  0.00  0.00     0.036 H 
BRANCH 225 228
ATOM    228  CG  LYS d   1     -21.509  -4.191  -3.969  0.00  0.00    -0.061 C 
ATOM    229 7H11 LYS d   1     -21.307  -4.568  -4.982  0.00  0.00     0.033 H 
ATOM    230 8H11 LYS d   1     -21.202  -3.137  -3.902  0.00  0.00     0.033 H 
BRANCH 228 231
ATOM    231  CD  LYS d   1     -23.001  -4.290  -3.694  0.00  0.00    -0.043 C 
ATOM    232 9H11 LYS d   1     -23.207  -3.888  -2.691  0.00  0.00     0.035 H 
ATOM    233 0H12 LYS d   1     -23.302  -5.347  -3.734  0.00  0.00     0.035 H 
BRANCH 231 234
ATOM    234  CE  LYS d   1     -23.809  -3.507  -4.715  0.00  0.00     0.080 C 
ATOM    235 1H12 LYS d   1     -24.879  -3.623  -4.486  0.00  0.00     0.075 H 
ATOM    236 2H12 LYS d   1     -23.602  -3.911  -5.717  0.00  0.00     0.075 H 
BRANCH 234 237
ATOM    237  NZ  LYS d   1     -23.470  -2.058  -4.702  0.00  0.00    -0.079 N 
ATOM    238 3H12 LYS d   1     -24.026  -1.577  -5.391  0.00  0.00     0.274 HD
ATOM    239 4H12 LYS d   1     -22.492  -1.940  -4.917  0.00  0.00     0.274 HD
ATOM    240 5H12 LYS d   1     -23.662  -1.676  -3.789  0.00  0.00     0.274 HD
ENDBRANCH 234 237
ENDBRANCH 231 234
ENDBRANCH 228 231
ENDBRANCH 225 228
ENDBRANCH 182 225
ENDBRANCH 180 182
ENDBRANCH 175 178
ENDBRANCH 173 175
ENDBRANCH 168 171
ENDBRANCH 166 168
ENDBRANCH 162 164
BRANCH 162 241
ATOM    241  CB  THR d   1     -11.629  -3.437  -2.215  0.00  0.00     0.060 C 
ATOM    242 2H10 THR d   1     -11.914  -4.017  -1.325  0.00  0.00     0.086 H 
BRANCH 241 243
ATOM    243  OG1 THR d   1     -10.297  -3.797  -2.597  0.00  0.00    -0.393 OA
ATOM    244 3H10 THR d   1     -10.269  -4.723  -2.809  0.00  0.00     0.210 HD
ENDBRANCH 241 243
BRANCH 241 245
ATOM    245  CG2 THR d   1     -12.590  -3.773  -3.345  0.00  0.00    -0.050 C 
ATOM    246 4H10 THR d   1     -12.526  -4.847  -3.573  0.00  0.00     0.031 H 
ATOM    247 5H10 THR d   1     -12.322  -3.192  -4.239  0.00  0.00     0.031 H 
ATOM    248 6H10 THR d   1     -13.617  -3.523  -3.039  0.00  0.00     0.031 H 
ENDBRANCH 241 245
ENDBRANCH 162 241
ENDBRANCH 160 162
ENDBRANCH 156 158
BRANCH 156 249
ATOM    249  CB  SER d   1      -9.303   1.361   0.917  0.00  0.00     0.044 C 
ATOM    250  H97 SER d   1      -8.884   1.758  -0.019  0.00  0.00     0.077 H 
ATOM    251  H98 SER d   1      -8.576   1.498   1.731  0.00  0.00     0.077 H 
BRANCH 249 252
ATOM    252  OG  SER d   1     -10.489   2.072   1.231  0.00  0.00    -0.398 OA
ATOM    253  H99 SER d   1     -11.119   1.960   0.529  0.00  0.00     0.209 HD
ENDBRANCH 249 252
ENDBRANCH 156 249
ENDBRANCH 154 156
ENDBRANCH 128 152
ENDBRANCH 126 128
ENDBRANCH   1 124
BRANCH   1 254
ATOM    254  CB  ARG d   1      -6.898  -3.767   3.249  0.00  0.00    -0.036 C 
ATOM    255  H67 ARG d   1      -7.918  -3.564   2.891  0.00  0.00     0.036 H 
ATOM    256  H68 ARG d   1      -6.543  -2.915   3.848  0.00  0.00     0.036 H 
BRANCH 254 257
ATOM    257  CG  ARG d   1      -6.938  -4.999   4.141  0.00  0.00    -0.048 C 
ATOM    258  H69 ARG d   1      -5.921  -5.211   4.503  0.00  0.00     0.035 H 
ATOM    259  H70 ARG d   1      -7.304  -5.854   3.553  0.00  0.00     0.035 H 
BRANCH 257 260
ATOM    260  CD  ARG d   1      -7.855  -4.793   5.336  0.00  0.00     0.009 C 
ATOM    261  H71 ARG d   1      -8.883  -4.652   4.972  0.00  0.00     0.064 H 
ATOM    262  H72 ARG d   1      -7.531  -3.893   5.879  0.00  0.00     0.064 H 
BRANCH 260 263
ATOM    263  NE  ARG d   1      -7.834  -5.930   6.256  0.00  0.00    -0.227 N 
ATOM    264  CZ  ARG d   1      -8.243  -7.156   5.934  0.00  0.00     0.665 C 
ATOM    265  NH1 ARG d   1      -8.718  -7.407   4.722  0.00  0.00    -0.235 N 
ATOM    266  NH2 ARG d   1      -8.181  -8.132   6.831  0.00  0.00    -0.235 N 
ATOM    267  H74 ARG d   1      -9.033  -8.357   4.479  0.00  0.00     0.174 HD
ATOM    268  H75 ARG d   1      -8.772  -6.652   4.024  0.00  0.00     0.174 HD
ATOM    269  H76 ARG d   1      -7.813  -7.942   7.774  0.00  0.00     0.174 HD
ATOM    270  H77 ARG d   1      -8.501  -9.079   6.584  0.00  0.00     0.174 HD
ATOM    271  H73 ARG d   1      -7.481  -5.773   7.211  0.00  0.00     0.177 HD
ENDBRANCH 260 263
ENDBRANCH 257 260
ENDBRANCH 254 257
ENDBRANCH   1 254
TORSDOF 79
