REMARK WARNING: 32 MAX_TORS EXCEEDED!!!
REMARK  44 active torsions:
REMARK  status: ('A' for Active; 'I' for Inactive)
REMARK    1  A    between atoms: N_1  and  CA_2 
REMARK    2  A    between atoms: CA_2  and  C_3 
REMARK    3  A    between atoms: CA_2  and  CB_5 
REMARK       I    between atoms: C_3  and  N_9 
REMARK    4  A    between atoms: CB_5  and  CG_6 
REMARK    5  A    between atoms: N_9  and  CA_10 
REMARK    6  A    between atoms: CA_10  and  C_11 
REMARK    7  A    between atoms: CA_10  and  CB_13 
REMARK       I    between atoms: C_11  and  N_17 
REMARK    8  A    between atoms: CB_13  and  CG_14 
REMARK    9  A    between atoms: CG_14  and  CD1_15 
REMARK   10  A    between atoms: CG_14  and  CD2_16 
REMARK   11  A    between atoms: N_17  and  CA_18 
REMARK   12  A    between atoms: CA_18  and  C_19 
REMARK   13  A    between atoms: CA_18  and  CB_21 
REMARK       I    between atoms: C_19  and  N_29 
REMARK   14  A    between atoms: CB_21  and  CG_22 
REMARK   15  A    between atoms: CZ_27  and  OH_28 
REMARK   16  A    between atoms: N_29  and  CA_30 
REMARK   17  A    between atoms: CA_30  and  C_31 
REMARK   18  A    between atoms: CA_30  and  CB_33 
REMARK       I    between atoms: C_31  and  N_35 
REMARK   19  A    between atoms: CB_33  and  SG_34 
REMARK   20  A    between atoms: N_35  and  CA_36 
REMARK   21  A    between atoms: CA_36  and  C_37 
REMARK   22  A    between atoms: CA_36  and  CB_39 
REMARK       I    between atoms: C_37  and  N_47 
REMARK   23  A    between atoms: CB_39  and  CG_40 
REMARK   24  A    between atoms: CZ_45  and  OH_46 
REMARK   25  A    between atoms: N_47  and  CA_48 
REMARK   26  A    between atoms: CA_48  and  C_49 
REMARK   27  A    between atoms: CA_48  and  CB_51 
REMARK       I    between atoms: C_49  and  N_56 
REMARK   28  A    between atoms: CB_51  and  CG_52 
REMARK   29  A    between atoms: CG_52  and  CD_53 
REMARK   30  A    between atoms: N_56  and  CA_57 
REMARK   31  A    between atoms: CA_57  and  C_58 
REMARK   32  A    between atoms: CA_57  and  CB_60 
REMARK       I    between atoms: C_58  and  N_65 
REMARK   33  A    between atoms: CB_60  and  CG_61 
REMARK   34  A    between atoms: CG_61  and  CD_62 
REMARK       I    between atoms: CD_62  and  NE2_64 
REMARK   35  A    between atoms: N_65  and  CA_66 
REMARK   36  A    between atoms: CA_66  and  C_67 
REMARK   37  A    between atoms: CA_66  and  CB_69 
REMARK       I    between atoms: C_67  and  N_73 
REMARK   38  A    between atoms: CB_69  and  CG_70 
REMARK   39  A    between atoms: CG_70  and  CD1_71 
REMARK   40  A    between atoms: CG_70  and  CD2_72 
REMARK   41  A    between atoms: N_73  and  CA_74 
REMARK   42  A    between atoms: CA_74  and  C_75 
REMARK   43  A    between atoms: CA_74  and  CB_77 
REMARK   44  A    between atoms: CB_77  and  CG_78 
REMARK       I    between atoms: CG_78  and  ND2_80 
ROOT
ATOM      1  CA  TYR d   1      23.535  50.282  81.150  0.00  0.00     0.093 C 
ATOM      2  H33 TYR d   1      22.561  49.891  80.822  0.00  0.00     0.088 H 
ENDROOT
BRANCH   1   3
ATOM      3  N   TYR d   1      24.448  49.162  81.340  0.00  0.00    -0.346 N 
ATOM      4  C   CYS d   1      24.139  47.944  80.910  0.00  0.00     0.241 C 
ATOM      5  O   CYS d   1      23.068  47.669  80.356  0.00  0.00    -0.271 OA
ATOM      6  H32 TYR d   1      25.322  49.313  81.802  0.00  0.00     0.163 HD
BRANCH   4   7
ATOM      7  CA  CYS d   1      25.170  46.860  81.148  0.00  0.00     0.097 C 
ATOM      8  H28 CYS d   1      26.020  47.260  81.720  0.00  0.00     0.088 H 
BRANCH   7   9
ATOM      9  N   CYS d   1      24.520  45.805  81.908  0.00  0.00    -0.345 N 
ATOM     10  C   TYR d   1      24.730  45.664  83.215  0.00  0.00     0.241 C 
ATOM     11  O   TYR d   1      25.473  46.389  83.854  0.00  0.00    -0.271 OA
ATOM     12  H27 CYS d   1      23.903  45.173  81.440  0.00  0.00     0.163 HD
BRANCH  10  13
ATOM     13  CA  TYR d   1      23.988  44.546  83.906  0.00  0.00     0.093 C 
ATOM     14  H19 TYR d   1      23.756  43.783  83.149  0.00  0.00     0.088 H 
BRANCH  13  15
ATOM     15  N   TYR d   1      24.758  43.886  84.964  0.00  0.00    -0.346 N 
ATOM     16  C   LEU d   1      25.890  43.229  84.703  0.00  0.00     0.241 C 
ATOM     17  O   LEU d   1      26.398  43.187  83.582  0.00  0.00    -0.271 OA
ATOM     18  H18 TYR d   1      24.426  43.929  85.906  0.00  0.00     0.163 HD
BRANCH  16  19
ATOM     19  CA  LEU d   1      26.593  42.541  85.871  0.00  0.00     0.089 C 
ATOM     20  H8  LEU d   1      27.609  42.960  85.928  0.00  0.00     0.087 H 
BRANCH  19  21
ATOM     21  N   LEU d   1      25.961  42.776  87.157  0.00  0.00    -0.346 N 
ATOM     22  C   ASP d   1      26.461  43.722  87.945  0.00  0.00     0.249 C 
ATOM     23  O   ASP d   1      27.448  44.403  87.619  0.00  0.00    -0.271 OA
ATOM     24  H7  LEU d   1      25.168  42.238  87.443  0.00  0.00     0.163 HD
BRANCH  22  25
ATOM     25  CA  ASP d   1      25.804  43.955  89.312  0.00  0.00     0.185 C 
ATOM     26  H4  ASP d   1      26.157  43.174  90.002  0.00  0.00     0.100 H 
BRANCH  25  27
ATOM     27  N   ASP d   1      26.262  45.280  89.818  0.00  0.00    -0.066 N 
ATOM     28  H1  ASP d   1      25.844  45.459  90.718  0.00  0.00     0.275 HD
ATOM     29  H2  ASP d   1      25.986  46.001  89.170  0.00  0.00     0.275 HD
ATOM     30  H3  ASP d   1      27.266  45.276  89.909  0.00  0.00     0.275 HD
ENDBRANCH  25  27
BRANCH  25  31
ATOM     31  CB  ASP d   1      24.260  43.874  89.265  0.00  0.00     0.050 C 
ATOM     32  H5  ASP d   1      23.872  44.089  90.272  0.00  0.00     0.052 H 
ATOM     33  H6  ASP d   1      23.977  42.852  88.973  0.00  0.00     0.052 H 
BRANCH  31  34
ATOM     34  CG  ASP d   1      23.610  44.853  88.280  0.00  0.00     0.175 C 
ATOM     35  OD1 ASP d   1      24.261  45.769  87.723  0.00  0.00    -0.648 OA
ATOM     36  OD2 ASP d   1      22.388  44.688  88.075  0.00  0.00    -0.648 OA
ENDBRANCH  31  34
ENDBRANCH  25  31
ENDBRANCH  22  25
ENDBRANCH  19  21
BRANCH  19  37
ATOM     37  CB  LEU d   1      26.721  41.041  85.610  0.00  0.00    -0.035 C 
ATOM     38  H9  LEU d   1      27.293  40.914  84.679  0.00  0.00     0.037 H 
ATOM     39  H10 LEU d   1      25.706  40.641  85.474  0.00  0.00     0.037 H 
BRANCH  37  40
ATOM     40  CG  LEU d   1      27.409  40.198  86.693  0.00  0.00    -0.059 C 
ATOM     41  H11 LEU d   1      26.840  40.311  87.627  0.00  0.00     0.038 H 
BRANCH  40  42
ATOM     42  CD1 LEU d   1      27.377  38.738  86.300  0.00  0.00    -0.073 C 
ATOM     43  H12 LEU d   1      27.871  38.138  87.079  0.00  0.00     0.028 H 
ATOM     44  H13 LEU d   1      27.904  38.604  85.344  0.00  0.00     0.028 H 
ATOM     45  H14 LEU d   1      26.333  38.410  86.192  0.00  0.00     0.028 H 
ENDBRANCH  40  42
BRANCH  40  46
ATOM     46  CD2 LEU d   1      28.823  40.681  86.954  0.00  0.00    -0.073 C 
ATOM     47  H15 LEU d   1      28.801  41.744  87.236  0.00  0.00     0.028 H 
ATOM     48  H16 LEU d   1      29.427  40.556  86.043  0.00  0.00     0.028 H 
ATOM     49  H17 LEU d   1      29.266  40.094  87.772  0.00  0.00     0.028 H 
ENDBRANCH  40  46
ENDBRANCH  37  40
ENDBRANCH  19  37
ENDBRANCH  16  19
ENDBRANCH  13  15
BRANCH  13  50
ATOM     50  CB  TYR d   1      22.671  45.094  84.449  0.00  0.00    -0.014 C 
ATOM     51  H20 TYR d   1      22.818  46.150  84.719  0.00  0.00     0.043 H 
ATOM     52  H21 TYR d   1      22.399  44.520  85.347  0.00  0.00     0.043 H 
BRANCH  50  53
ATOM     53  CG  TYR d   1      21.525  45.006  83.456  0.00  0.00    -0.056 A 
ATOM     54  CD1 TYR d   1      20.740  43.861  83.384  0.00  0.00    -0.074 A 
ATOM     55  CE1 TYR d   1      19.717  43.741  82.439  0.00  0.00    -0.051 A 
ATOM     56  H22 TYR d   1      20.925  43.046  84.074  0.00  0.00     0.084 H 
ATOM     57  CZ  TYR d   1      19.471  44.777  81.549  0.00  0.00     0.065 A 
ATOM     58  H24 TYR d   1      19.116  42.839  82.401  0.00  0.00     0.087 H 
ATOM     59  CE2 TYR d   1      20.228  45.931  81.597  0.00  0.00    -0.051 A 
ATOM     60  CD2 TYR d   1      21.255  46.046  82.555  0.00  0.00    -0.074 A 
ATOM     61  H25 TYR d   1      20.034  46.741  80.904  0.00  0.00     0.087 H 
ATOM     62  H23 TYR d   1      21.846  46.954  82.596  0.00  0.00     0.084 H 
BRANCH  57  63
ATOM     63  OH  TYR d   1      18.473  44.608  80.613  0.00  0.00    -0.361 OA
ATOM     64  H26 TYR d   1      18.066  43.758  80.735  0.00  0.00     0.217 HD
ENDBRANCH  57  63
ENDBRANCH  50  53
ENDBRANCH  13  50
ENDBRANCH  10  13
ENDBRANCH   7   9
BRANCH   7  65
ATOM     65  CB  CYS d   1      25.667  46.348  79.779  0.00  0.00     0.001 C 
ATOM     66  H29 CYS d   1      24.798  46.017  79.192  0.00  0.00     0.052 H 
ATOM     67  H30 CYS d   1      26.342  45.496  79.947  0.00  0.00     0.052 H 
BRANCH  65  68
ATOM     68  SG  CYS d   1      26.553  47.607  78.836  0.00  0.00    -0.180 SA
ATOM     69  H31 CYS d   1      26.852  47.217  77.956  0.00  0.00     0.101 HD
ENDBRANCH  65  68
ENDBRANCH   7  65
ENDBRANCH   4   7
ENDBRANCH   1   3
BRANCH   1  70
ATOM     70  C   TYR d   1      24.098  51.154  80.054  0.00  0.00     0.241 C 
ATOM     71  O   TYR d   1      24.587  52.266  80.286  0.00  0.00    -0.271 OA
ATOM     72  N   GLU d   1      24.081  50.588  78.853  0.00  0.00    -0.346 N 
ATOM     73  H41 GLU d   1      23.713  49.663  78.763  0.00  0.00     0.163 HD
BRANCH  72  74
ATOM     74  CA  GLU d   1      24.577  51.261  77.663  0.00  0.00     0.090 C 
ATOM     75  H42 GLU d   1      24.596  52.343  77.861  0.00  0.00     0.087 H 
BRANCH  74  76
ATOM     76  C   GLU d   1      23.653  51.009  76.487  0.00  0.00     0.241 C 
ATOM     77  O   GLU d   1      22.856  50.064  76.491  0.00  0.00    -0.271 OA
ATOM     78  N   GLN d   1      23.693  51.929  75.534  0.00  0.00    -0.346 N 
ATOM     79  H47 GLN d   1      24.307  52.710  75.644  0.00  0.00     0.163 HD
BRANCH  78  80
ATOM     80  CA  GLN d   1      22.878  51.844  74.336  0.00  0.00     0.090 C 
ATOM     81  H48 GLN d   1      22.370  50.871  74.261  0.00  0.00     0.087 H 
BRANCH  80  82
ATOM     82  C   GLN d   1      23.905  52.020  73.239  0.00  0.00     0.241 C 
ATOM     83  O   GLN d   1      24.709  52.967  73.287  0.00  0.00    -0.271 OA
ATOM     84  N   LEU d   1      23.944  51.058  72.313  0.00  0.00    -0.346 N 
ATOM     85  H55 LEU d   1      23.300  50.294  72.360  0.00  0.00     0.163 HD
BRANCH  84  86
ATOM     86  CA  LEU d   1      24.916  51.119  71.242  0.00  0.00     0.089 C 
ATOM     87  H56 LEU d   1      25.858  51.325  71.771  0.00  0.00     0.087 H 
BRANCH  86  88
ATOM     88  C   LEU d   1      24.816  52.263  70.263  0.00  0.00     0.241 C 
ATOM     89  O   LEU d   1      24.014  52.272  69.309  0.00  0.00    -0.271 OA
ATOM     90  N   ASN d   1      25.623  53.258  70.630  0.00  0.00    -0.344 N 
ATOM     91  H66 ASN d   1      26.146  53.105  71.469  0.00  0.00     0.163 HD
BRANCH  90  92
ATOM     92  CA  ASN d   1      25.844  54.533  69.976  0.00  0.00     0.104 C 
ATOM     93  H67 ASN d   1      26.319  54.379  68.996  0.00  0.00     0.090 H 
BRANCH  92  94
ATOM     94  C   ASN d   1      26.836  55.238  70.936  0.00  0.00     0.197 C 
ATOM     95  O   ASN d   1      26.611  56.383  71.377  0.00  0.00    -0.646 OA
ATOM     96  OXT ASN d   1      27.840  54.576  71.296  0.00  0.00    -0.646 OA
ENDBRANCH  92  94
BRANCH  92  97
ATOM     97  CB  ASN d   1      24.521  55.317  69.749  0.00  0.00     0.037 C 
ATOM     98  H68 ASN d   1      23.944  54.803  68.967  0.00  0.00     0.051 H 
ATOM     99  H69 ASN d   1      24.774  56.332  69.410  0.00  0.00     0.051 H 
BRANCH  97 100
ATOM    100  CG  ASN d   1      23.643  55.431  71.001  0.00  0.00     0.217 C 
ATOM    101  OD1 ASN d   1      22.632  54.723  71.153  0.00  0.00    -0.274 OA
ATOM    102  ND2 ASN d   1      23.971  56.384  71.849  0.00  0.00    -0.370 N 
ATOM    103  H70 ASN d   1      23.439  56.513  72.686  0.00  0.00     0.159 HD
ATOM    104  H71 ASN d   1      24.752  56.978  71.656  0.00  0.00     0.159 HD
ENDBRANCH  97 100
ENDBRANCH  92  97
ENDBRANCH  90  92
ENDBRANCH  86  88
BRANCH  86 105
ATOM    105  CB  LEU d   1      25.157  49.769  70.571  0.00  0.00    -0.035 C 
ATOM    106  H57 LEU d   1      25.481  49.916  69.530  0.00  0.00     0.037 H 
ATOM    107  H58 LEU d   1      24.235  49.169  70.587  0.00  0.00     0.037 H 
BRANCH 105 108
ATOM    108  CG  LEU d   1      26.261  49.064  71.373  0.00  0.00    -0.059 C 
ATOM    109  H59 LEU d   1      25.818  48.651  72.291  0.00  0.00     0.038 H 
BRANCH 108 110
ATOM    110  CD1 LEU d   1      26.849  47.931  70.568  0.00  0.00    -0.073 C 
ATOM    111  H60 LEU d   1      27.637  47.436  71.154  0.00  0.00     0.028 H 
ATOM    112  H61 LEU d   1      27.279  48.328  69.636  0.00  0.00     0.028 H 
ATOM    113  H62 LEU d   1      26.059  47.204  70.327  0.00  0.00     0.028 H 
ENDBRANCH 108 110
BRANCH 108 114
ATOM    114  CD2 LEU d   1      27.367  50.059  71.766  0.00  0.00    -0.073 C 
ATOM    115  H63 LEU d   1      26.930  50.881  72.352  0.00  0.00     0.028 H 
ATOM    116  H64 LEU d   1      27.835  50.465  70.857  0.00  0.00     0.028 H 
ATOM    117  H65 LEU d   1      28.127  49.542  72.370  0.00  0.00     0.028 H 
ENDBRANCH 108 114
ENDBRANCH 105 108
ENDBRANCH  86 105
ENDBRANCH  84  86
ENDBRANCH  80  82
BRANCH  80 118
ATOM    118  CB  GLN d   1      21.847  52.972  74.299  0.00  0.00    -0.030 C 
ATOM    119  H49 GLN d   1      21.224  52.843  73.402  0.00  0.00     0.037 H 
ATOM    120  H50 GLN d   1      22.384  53.930  74.238  0.00  0.00     0.037 H 
BRANCH 118 121
ATOM    121  CG  GLN d   1      20.921  53.011  75.532  0.00  0.00     0.011 C 
ATOM    122  H51 GLN d   1      20.825  51.989  75.926  0.00  0.00     0.047 H 
ATOM    123  H52 GLN d   1      19.933  53.376  75.213  0.00  0.00     0.047 H 
BRANCH 121 124
ATOM    124  CD  GLN d   1      21.427  53.911  76.650  0.00  0.00     0.215 C 
ATOM    125  OE1 GLN d   1      21.853  55.048  76.407  0.00  0.00    -0.274 OA
ATOM    126  NE2 GLN d   1      21.358  53.418  77.888  0.00  0.00    -0.370 N 
ATOM    127  H53 GLN d   1      21.676  53.965  78.662  0.00  0.00     0.159 HD
ATOM    128  H54 GLN d   1      20.988  52.502  78.041  0.00  0.00     0.159 HD
ENDBRANCH 121 124
ENDBRANCH 118 121
ENDBRANCH  80 118
ENDBRANCH  78  80
ENDBRANCH  74  76
BRANCH  74 129
ATOM    129  CB  GLU d   1      26.003  50.809  77.339  0.00  0.00    -0.029 C 
ATOM    130  H43 GLU d   1      26.256  51.149  76.324  0.00  0.00     0.037 H 
ATOM    131  H44 GLU d   1      26.039  49.710  77.377  0.00  0.00     0.037 H 
BRANCH 129 132
ATOM    132  CG  GLU d   1      27.016  51.350  78.287  0.00  0.00     0.018 C 
ATOM    133  H45 GLU d   1      26.770  51.009  79.303  0.00  0.00     0.049 H 
ATOM    134  H46 GLU d   1      26.986  52.449  78.251  0.00  0.00     0.049 H 
BRANCH 132 135
ATOM    135  CD  GLU d   1      28.388  50.896  77.947  0.00  0.00     0.172 C 
ATOM    136  OE1 GLU d   1      28.969  51.458  76.991  0.00  0.00    -0.648 OA
ATOM    137  OE2 GLU d   1      28.886  49.970  78.628  0.00  0.00    -0.648 OA
ENDBRANCH 132 135
ENDBRANCH 129 132
ENDBRANCH  74 129
ENDBRANCH  72  74
ENDBRANCH   1  70
BRANCH   1 138
ATOM    138  CB  TYR d   1      23.314  51.062  82.456  0.00  0.00    -0.014 C 
ATOM    139  H34 TYR d   1      22.682  51.937  82.244  0.00  0.00     0.043 H 
ATOM    140  H35 TYR d   1      24.289  51.398  82.838  0.00  0.00     0.043 H 
BRANCH 138 141
ATOM    141  CG  TYR d   1      22.639  50.218  83.517  0.00  0.00    -0.056 A 
ATOM    142  CD1 TYR d   1      21.282  49.925  83.437  0.00  0.00    -0.074 A 
ATOM    143  CE1 TYR d   1      20.673  49.075  84.361  0.00  0.00    -0.051 A 
ATOM    144  H36 TYR d   1      20.688  50.364  82.644  0.00  0.00     0.084 H 
ATOM    145  CZ  TYR d   1      21.427  48.513  85.375  0.00  0.00     0.065 A 
ATOM    146  H38 TYR d   1      19.614  48.856  84.284  0.00  0.00     0.087 H 
ATOM    147  CE2 TYR d   1      22.773  48.790  85.481  0.00  0.00    -0.051 A 
ATOM    148  CD2 TYR d   1      23.379  49.643  84.556  0.00  0.00    -0.074 A 
ATOM    149  H39 TYR d   1      23.359  48.348  86.279  0.00  0.00     0.087 H 
ATOM    150  H37 TYR d   1      24.437  49.863  84.644  0.00  0.00     0.084 H 
BRANCH 145 151
ATOM    151  OH  TYR d   1      20.837  47.665  86.269  0.00  0.00    -0.361 OA
ATOM    152  H40 TYR d   1      19.914  47.580  86.061  0.00  0.00     0.217 HD
ENDBRANCH 145 151
ENDBRANCH 138 141
ENDBRANCH   1 138
TORSDOF 44
