REMARK  12 active torsions:
REMARK  status: ('A' for Active; 'I' for Inactive)
REMARK    1  A    between atoms: C_1  and  CH3_3 
REMARK       I    between atoms: C_1  and  N_7 
REMARK    2  A    between atoms: N_7  and  CA_8 
REMARK    3  A    between atoms: CA_8  and  C_9 
REMARK    4  A    between atoms: CA_8  and  CB_11 
REMARK       I    between atoms: C_9  and  N_21 
REMARK    5  A    between atoms: CB_11  and  CG_12 
REMARK       I    between atoms: CG_12  and  ND2_14 
REMARK    6  A    between atoms: CA_22  and  C_23 
REMARK       I    between atoms: C_23  and  N_35 
REMARK    7  A    between atoms: N_35  and  CA_36 
REMARK    8  A    between atoms: CA_36  and  C_37 
REMARK    9  A    between atoms: CA_36  and  CB_39 
REMARK   10  A    between atoms: CB_39  and  CG1_40 
REMARK   11  A    between atoms: CB_39  and  CG2_41 
REMARK   12  A    between atoms: CG1_40  and  CD1_42 
ROOT
ATOM      1  C   ASN d   1     -13.225  19.818  37.948  0.00  0.00     0.243 C 
ATOM      2  O   ASN d   1     -13.315  21.027  38.190  0.00  0.00    -0.271 OA
ATOM      3  N   PRO d   1     -12.078  19.140  38.001  0.00  0.00    -0.337 N 
ATOM      4  CA  PRO d   1     -10.853  19.875  38.347  0.00  0.00     0.091 C 
ATOM      5  CB  PRO d   1      -9.799  18.786  38.267  0.00  0.00    -0.036 C 
ATOM      6  CG  PRO d   1     -10.509  17.484  38.488  0.00  0.00    -0.048 C 
ATOM      7  CD  PRO d   1     -11.795  17.711  37.786  0.00  0.00    -0.001 C 
ATOM      8  H10 PRO d   1     -10.915  20.302  39.359  0.00  0.00     0.087 H 
ATOM      9  H11 PRO d   1      -9.036  18.939  39.044  0.00  0.00     0.036 H 
ATOM     10  H12 PRO d   1      -9.320  18.794  37.277  0.00  0.00     0.036 H 
ATOM     11  H13 PRO d   1     -10.667  17.292  39.559  0.00  0.00     0.035 H 
ATOM     12  H14 PRO d   1      -9.954  16.645  38.043  0.00  0.00     0.035 H 
ATOM     13  H15 PRO d   1     -11.698  17.490  36.713  0.00  0.00     0.064 H 
ATOM     14  H16 PRO d   1     -12.591  17.087  38.218  0.00  0.00     0.064 H 
ENDROOT
BRANCH   4  15
ATOM     15  C   PRO d   1     -10.558  20.986  37.338  0.00  0.00     0.241 C 
ATOM     16  O   PRO d   1     -10.764  20.761  36.165  0.00  0.00    -0.271 OA
ATOM     17  N   ILE d   1     -10.088  22.127  37.835  0.00  0.00    -0.348 N 
ATOM     18  H17 ILE d   1      -9.981  22.233  38.824  0.00  0.00     0.163 HD
BRANCH  17  19
ATOM     19  CA  ILE d   1      -9.728  23.222  36.944  0.00  0.00     0.066 C 
ATOM     20  H18 ILE d   1      -9.796  22.863  35.907  0.00  0.00     0.084 H 
BRANCH  19  21
ATOM     21  C   ILE d   1      -8.319  23.827  37.210  0.00  0.00     0.110 C 
ATOM     22  O   ILE d   1      -7.935  24.626  36.413  0.00  0.00    -0.305 OA
ATOM     23  H19 ILE d   1      -7.720  23.538  38.072  0.00  0.00     0.146 H 
ENDBRANCH  19  21
BRANCH  19  24
ATOM     24  CB  ILE d   1     -10.646  24.433  37.163  0.00  0.00    -0.032 C 
ATOM     25  H20 ILE d   1     -10.181  25.290  36.653  0.00  0.00     0.043 H 
BRANCH  24  26
ATOM     26  CG1 ILE d   1     -10.928  24.873  38.624  0.00  0.00    -0.063 C 
ATOM     27  H21 ILE d   1     -10.034  24.684  39.236  0.00  0.00     0.033 H 
ATOM     28  H22 ILE d   1     -11.773  24.291  39.019  0.00  0.00     0.033 H 
BRANCH  26  29
ATOM     29  CD1 ILE d   1     -11.277  26.381  38.687  0.00  0.00    -0.076 C 
ATOM     30  H26 ILE d   1     -11.472  26.669  39.730  0.00  0.00     0.027 H 
ATOM     31  H27 ILE d   1     -12.173  26.576  38.079  0.00  0.00     0.027 H 
ATOM     32  H28 ILE d   1     -10.434  26.969  38.296  0.00  0.00     0.027 H 
ENDBRANCH  26  29
ENDBRANCH  24  26
BRANCH  24  33
ATOM     33  CG2 ILE d   1     -11.938  24.128  36.515  0.00  0.00    -0.071 C 
ATOM     34  H23 ILE d   1     -11.762  23.813  35.476  0.00  0.00     0.028 H 
ATOM     35  H24 ILE d   1     -12.573  25.026  36.523  0.00  0.00     0.028 H 
ATOM     36  H25 ILE d   1     -12.441  23.318  37.063  0.00  0.00     0.028 H 
ENDBRANCH  24  33
ENDBRANCH  19  24
ENDBRANCH  17  19
ENDBRANCH   4  15
BRANCH   1  37
ATOM     37  CA  ASN d   1     -14.512  19.106  37.542  0.00  0.00     0.097 C 
ATOM     38  H5  ASN d   1     -14.287  18.080  37.217  0.00  0.00     0.088 H 
BRANCH  37  39
ATOM     39  N   ASN d   1     -15.401  19.049  38.699  0.00  0.00    -0.348 N 
ATOM     40  C   ACE d   1     -15.740  18.062  39.514  0.00  0.00     0.214 C 
ATOM     41  O   ACE d   1     -15.183  16.977  39.386  0.00  0.00    -0.274 OA
ATOM     42  H4  ASN d   1     -15.837  19.922  38.918  0.00  0.00     0.163 HD
BRANCH  40  43
ATOM     43  CH3 ACE d   1     -16.763  18.367  40.584  0.00  0.00    -0.003 C 
ATOM     44  H1  ACE d   1     -17.105  19.407  40.478  0.00  0.00     0.040 H 
ATOM     45  H2  ACE d   1     -16.308  18.230  41.576  0.00  0.00     0.040 H 
ATOM     46  H3  ACE d   1     -17.620  17.686  40.477  0.00  0.00     0.040 H 
ENDBRANCH  40  43
ENDBRANCH  37  39
BRANCH  37  47
ATOM     47  CB  ASN d   1     -15.098  19.871  36.387  0.00  0.00     0.036 C 
ATOM     48  H6  ASN d   1     -14.391  20.691  36.191  0.00  0.00     0.051 H 
ATOM     49  H7  ASN d   1     -16.046  20.285  36.761  0.00  0.00     0.051 H 
BRANCH  47  50
ATOM     50  CG  ASN d   1     -15.422  19.288  35.034  0.00  0.00     0.217 C 
ATOM     51  OD1 ASN d   1     -15.811  20.029  34.106  0.00  0.00    -0.274 OA
ATOM     52  ND2 ASN d   1     -15.298  17.982  34.794  0.00  0.00    -0.370 N 
ATOM     53  H8  ASN d   1     -15.518  17.617  33.889  0.00  0.00     0.159 HD
ATOM     54  H9  ASN d   1     -14.985  17.368  35.519  0.00  0.00     0.159 HD
ENDBRANCH  47  50
ENDBRANCH  37  47
ENDBRANCH   1  37
TORSDOF 12
