REMARK WARNING: 32 MAX_TORS EXCEEDED!!!
REMARK  36 active torsions:
REMARK  status: ('A' for Active; 'I' for Inactive)
REMARK    1  A    between atoms: C1_1  and  O1_7 
REMARK    2  A    between atoms: C2_2  and  O2_8 
REMARK    3  A    between atoms: C3_3  and  O3_9 
REMARK    4  A    between atoms: O4_10  and  C4_4 
REMARK    5  A    between atoms: C5_5  and  C6_6 
REMARK    6  A    between atoms: C6_6  and  O6_12 
REMARK    7  A    between atoms: C1_18  and  O4_10 
REMARK    8  A    between atoms: C2_13  and  O2_19 
REMARK    9  A    between atoms: C3_14  and  O3_20 
REMARK   10  A    between atoms: O4_21  and  C4_15 
REMARK   11  A    between atoms: C5_16  and  C6_17 
REMARK   12  A    between atoms: C6_17  and  O6_23 
REMARK   13  A    between atoms: C1_29  and  O4_21 
REMARK   14  A    between atoms: C2_24  and  O2_30 
REMARK   15  A    between atoms: C3_25  and  O3_31 
REMARK   16  A    between atoms: O4_32  and  C4_26 
REMARK   17  A    between atoms: C5_27  and  C6_28 
REMARK   18  A    between atoms: C6_28  and  O6_34 
REMARK   19  A    between atoms: C1_40  and  O4_32 
REMARK   20  A    between atoms: C2_35  and  O2_41 
REMARK   21  A    between atoms: C3_36  and  O3_42 
REMARK   22  A    between atoms: O4_43  and  C4_37 
REMARK   23  A    between atoms: C5_38  and  C6_39 
REMARK   24  A    between atoms: C6_39  and  O6_45 
REMARK   25  A    between atoms: C1_51  and  O4_43 
REMARK   26  A    between atoms: C2_46  and  O2_52 
REMARK   27  A    between atoms: C3_47  and  O3_53 
REMARK   28  A    between atoms: O4_54  and  C4_48 
REMARK   29  A    between atoms: C5_49  and  C6_50 
REMARK   30  A    between atoms: C6_50  and  O6_56 
REMARK   31  A    between atoms: C1_62  and  O4_54 
REMARK   32  A    between atoms: C2_57  and  O2_63 
REMARK   33  A    between atoms: C3_58  and  O3_64 
REMARK   34  A    between atoms: C4_59  and  O4_65 
REMARK   35  A    between atoms: C5_60  and  C6_61 
REMARK   36  A    between atoms: C6_61  and  O6_67 
ROOT
ATOM      1  O4  NON d   1      34.715  12.482  21.989  0.00  0.00    -0.348 OA
ENDROOT
BRANCH   1   2
ATOM      2  C4  NON d   1      34.373  11.569  23.018  0.00  0.00     0.096 C 
ATOM      3  C3  NON d   1      34.779  12.124  24.390  0.00  0.00     0.092 C 
ATOM      4  C2  NON d   1      34.207  11.296  25.531  0.00  0.00     0.110 C 
ATOM      5  H23 NON d   1      34.377  13.145  24.468  0.00  0.00     0.091 H 
ATOM      6  C1  NON d   1      32.723  11.082  25.330  0.00  0.00     0.159 C 
ATOM      7  H22 NON d   1      34.700  10.313  25.526  0.00  0.00     0.094 H 
ATOM      8  O5  NON d   1      32.512  10.526  24.056  0.00  0.00    -0.348 OA
ATOM      9  H28 NON d   1      32.169  12.026  25.437  0.00  0.00     0.133 H 
ATOM     10  C5  NON d   1      32.865  11.379  22.988  0.00  0.00     0.089 C 
ATOM     11  H25 NON d   1      32.386  12.360  23.124  0.00  0.00     0.090 H 
ATOM     12  H24 NON d   1      34.879  10.607  22.846  0.00  0.00     0.091 H 
BRANCH   3  13
ATOM     13  O3  NON d   1      36.175  12.185  24.546  0.00  0.00    -0.390 OA
ATOM     14  H30 NON d   1      36.543  12.751  23.878  0.00  0.00     0.210 HD
ENDBRANCH   3  13
BRANCH   4  15
ATOM     15  O2  NON d   1      34.470  11.918  26.784  0.00  0.00    -0.388 OA
ATOM     16  H29 NON d   1      34.034  12.761  26.815  0.00  0.00     0.210 HD
ENDBRANCH   4  15
BRANCH   6  17
ATOM     17  O4  NON d   1      32.312  10.120  26.331  0.00  0.00    -0.348 OA
BRANCH  17  18
ATOM     18  C4  NON d   1      30.903   9.951  26.653  0.00  0.00     0.096 C 
ATOM     19  C3  NON d   1      30.272   8.608  26.185  0.00  0.00     0.092 C 
ATOM     20  C2  NON d   1      28.852   8.341  26.766  0.00  0.00     0.110 C 
ATOM     21  H13 NON d   1      30.934   7.812  26.558  0.00  0.00     0.091 H 
ATOM     22  C1  NON d   1      28.793   8.735  28.285  0.00  0.00     0.159 C 
ATOM     23  H12 NON d   1      28.141   8.996  26.241  0.00  0.00     0.094 H 
ATOM     24  O5  NON d   1      29.490   9.908  28.667  0.00  0.00    -0.348 OA
ATOM     25  H18 NON d   1      29.177   7.856  28.824  0.00  0.00     0.133 H 
ATOM     26  C5  NON d   1      30.823  10.022  28.191  0.00  0.00     0.089 C 
ATOM     27  H15 NON d   1      31.381   9.157  28.578  0.00  0.00     0.090 H 
ATOM     28  H14 NON d   1      30.332  10.777  26.203  0.00  0.00     0.091 H 
BRANCH  19  29
ATOM     29  O3  NON d   1      30.198   8.470  24.775  0.00  0.00    -0.390 OA
ATOM     30  H20 NON d   1      29.805   7.632  24.560  0.00  0.00     0.210 HD
ENDBRANCH  19  29
BRANCH  20  31
ATOM     31  O2  NON d   1      28.473   6.981  26.470  0.00  0.00    -0.388 OA
ATOM     32  H19 NON d   1      29.054   6.385  26.928  0.00  0.00     0.210 HD
ENDBRANCH  20  31
BRANCH  22  33
ATOM     33  O4  NON d   1      27.582   9.202  28.919  0.00  0.00    -0.348 OA
BRANCH  33  34
ATOM     34  C4  NON d   1      27.422   8.683  30.219  0.00  0.00     0.096 C 
ATOM     35  C3  NON d   1      27.038   9.830  31.116  0.00  0.00     0.092 C 
ATOM     36  C2  NON d   1      26.623   9.301  32.484  0.00  0.00     0.110 C 
ATOM     37  H3  NON d   1      26.189  10.368  30.669  0.00  0.00     0.091 H 
ATOM     38  C1  NON d   1      25.560   8.228  32.312  0.00  0.00     0.156 C 
ATOM     39  H2  NON d   1      27.496   8.854  32.982  0.00  0.00     0.094 H 
ATOM     40  O5  NON d   1      26.079   7.264  31.388  0.00  0.00    -0.349 OA
ATOM     41  H1  NON d   1      25.354   7.745  33.279  0.00  0.00     0.133 H 
ATOM     42  C5  NON d   1      26.273   7.734  30.074  0.00  0.00     0.089 C 
ATOM     43  H5  NON d   1      25.373   8.270  29.739  0.00  0.00     0.090 H 
ATOM     44  H4  NON d   1      28.328   8.178  30.586  0.00  0.00     0.091 H 
BRANCH  35  45
ATOM     45  O3  NON d   1      28.126  10.716  31.243  0.00  0.00    -0.390 OA
ATOM     46  H10 NON d   1      28.866  10.255  31.619  0.00  0.00     0.210 HD
ENDBRANCH  35  45
BRANCH  36  47
ATOM     47  O2  NON d   1      26.160  10.390  33.263  0.00  0.00    -0.388 OA
ATOM     48  H9  NON d   1      26.857  11.028  33.359  0.00  0.00     0.210 HD
ENDBRANCH  36  47
BRANCH  38  49
ATOM     49  O1  NON d   1      24.381   8.796  31.818  0.00  0.00    -0.369 OA
ATOM     50  H8  NON d   1      23.733   8.114  31.687  0.00  0.00     0.212 HD
ENDBRANCH  38  49
BRANCH  42  51
ATOM     51  C6  NON d   1      26.592   6.653  29.040  0.00  0.00     0.043 C 
ATOM     52  H6  NON d   1      26.889   7.095  28.078  0.00  0.00     0.078 H 
ATOM     53  H7  NON d   1      25.734   5.982  28.886  0.00  0.00     0.078 H 
BRANCH  51  54
ATOM     54  O6  NON d   1      27.662   5.981  29.643  0.00  0.00    -0.398 OA
ATOM     55  H11 NON d   1      27.381   5.627  30.479  0.00  0.00     0.209 HD
ENDBRANCH  51  54
ENDBRANCH  42  51
ENDBRANCH  33  34
ENDBRANCH  22  33
BRANCH  26  56
ATOM     56  C6  NON d   1      31.482  11.267  28.754  0.00  0.00     0.043 C 
ATOM     57  H16 NON d   1      32.537  11.290  28.443  0.00  0.00     0.078 H 
ATOM     58  H17 NON d   1      31.424  11.242  29.852  0.00  0.00     0.078 H 
BRANCH  56  59
ATOM     59  O6  NON d   1      30.834  12.424  28.282  0.00  0.00    -0.398 OA
ATOM     60  H21 NON d   1      29.923  12.408  28.551  0.00  0.00     0.209 HD
ENDBRANCH  56  59
ENDBRANCH  26  56
ENDBRANCH  17  18
ENDBRANCH   6  17
BRANCH  10  61
ATOM     61  C6  NON d   1      32.349  10.763  21.687  0.00  0.00     0.043 C 
ATOM     62  H26 NON d   1      32.453  11.505  20.881  0.00  0.00     0.078 H 
ATOM     63  H27 NON d   1      31.287  10.508  21.816  0.00  0.00     0.078 H 
BRANCH  61  64
ATOM     64  O6  NON d   1      33.049   9.598  21.319  0.00  0.00    -0.398 OA
ATOM     65  H31 NON d   1      32.960   8.946  22.005  0.00  0.00     0.209 HD
ENDBRANCH  61  64
ENDBRANCH  10  61
ENDBRANCH   1   2
BRANCH   1  66
ATOM     66  C1  NON d   1      35.848  12.131  21.220  0.00  0.00     0.159 C 
ATOM     67  C2  NON d   1      35.864  12.902  19.916  0.00  0.00     0.110 C 
ATOM     68  C3  NON d   1      37.129  12.495  19.154  0.00  0.00     0.092 C 
ATOM     69  H32 NON d   1      35.919  13.977  20.144  0.00  0.00     0.094 H 
ATOM     70  C4  NON d   1      38.379  12.699  20.011  0.00  0.00     0.096 C 
ATOM     71  H33 NON d   1      37.046  11.434  18.876  0.00  0.00     0.091 H 
ATOM     72  C5  NON d   1      38.189  11.976  21.340  0.00  0.00     0.089 C 
ATOM     73  H34 NON d   1      38.548  13.772  20.184  0.00  0.00     0.091 H 
ATOM     74  O5  NON d   1      37.009  12.435  21.963  0.00  0.00    -0.348 OA
ATOM     75  H35 NON d   1      38.079  10.903  21.123  0.00  0.00     0.090 H 
ATOM     76  H38 NON d   1      35.822  11.053  21.002  0.00  0.00     0.133 H 
BRANCH  67  77
ATOM     77  O2  NON d   1      34.697  12.682  19.150  0.00  0.00    -0.388 OA
ATOM     78  H39 NON d   1      34.624  11.757  18.945  0.00  0.00     0.210 HD
ENDBRANCH  67  77
BRANCH  68  79
ATOM     79  O3  NON d   1      37.288  13.269  17.995  0.00  0.00    -0.390 OA
ATOM     80  H40 NON d   1      37.382  14.183  18.236  0.00  0.00     0.210 HD
ENDBRANCH  68  79
BRANCH  70  81
ATOM     81  O4  NON d   1      39.500  12.127  19.337  0.00  0.00    -0.348 OA
BRANCH  81  82
ATOM     82  C1  NON d   1      40.678  12.922  19.284  0.00  0.00     0.159 C 
ATOM     83  C2  NON d   1      41.816  11.990  18.956  0.00  0.00     0.110 C 
ATOM     84  C3  NON d   1      43.080  12.787  18.701  0.00  0.00     0.092 C 
ATOM     85  H42 NON d   1      41.556  11.426  18.048  0.00  0.00     0.094 H 
ATOM     86  C4  NON d   1      42.826  13.879  17.668  0.00  0.00     0.096 C 
ATOM     87  H43 NON d   1      43.410  13.262  19.637  0.00  0.00     0.091 H 
ATOM     88  C5  NON d   1      41.638  14.732  18.081  0.00  0.00     0.089 C 
ATOM     89  H44 NON d   1      42.636  13.416  16.689  0.00  0.00     0.091 H 
ATOM     90  O5  NON d   1      40.504  13.883  18.258  0.00  0.00    -0.348 OA
ATOM     91  H45 NON d   1      41.877  15.248  19.023  0.00  0.00     0.090 H 
ATOM     92  H48 NON d   1      40.859  13.423  20.246  0.00  0.00     0.133 H 
BRANCH  83  93
ATOM     93  O2  NON d   1      42.056  11.080  20.001  0.00  0.00    -0.388 OA
ATOM     94  H49 NON d   1      42.277  11.558  20.791  0.00  0.00     0.210 HD
ENDBRANCH  83  93
BRANCH  84  95
ATOM     95  O3  NON d   1      44.078  11.860  18.268  0.00  0.00    -0.390 OA
ATOM     96  H50 NON d   1      44.206  11.198  18.938  0.00  0.00     0.210 HD
ENDBRANCH  84  95
BRANCH  86  97
ATOM     97  O4  NON d   1      43.953  14.759  17.584  0.00  0.00    -0.348 OA
BRANCH  97  98
ATOM     98  C1  NON d   1      44.783  14.551  16.443  0.00  0.00     0.159 C 
ATOM     99  C2  NON d   1      45.634  15.796  16.225  0.00  0.00     0.110 C 
ATOM    100  C3  NON d   1      46.675  15.571  15.131  0.00  0.00     0.092 C 
ATOM    101  H52 NON d   1      46.166  16.020  17.161  0.00  0.00     0.094 H 
ATOM    102  C4  NON d   1      47.450  14.280  15.360  0.00  0.00     0.090 C 
ATOM    103  H53 NON d   1      46.156  15.503  14.163  0.00  0.00     0.091 H 
ATOM    104  C5  NON d   1      46.484  13.130  15.634  0.00  0.00     0.089 C 
ATOM    105  H54 NON d   1      48.099  14.407  16.239  0.00  0.00     0.091 H 
ATOM    106  O5  NON d   1      45.631  13.461  16.721  0.00  0.00    -0.348 OA
ATOM    107  H55 NON d   1      45.864  12.981  14.738  0.00  0.00     0.090 H 
ATOM    108  H58 NON d   1      44.171  14.346  15.552  0.00  0.00     0.133 H 
BRANCH  99 109
ATOM    109  O2  NON d   1      44.797  16.895  15.912  0.00  0.00    -0.388 OA
ATOM    110  H59 NON d   1      44.193  17.046  16.630  0.00  0.00     0.210 HD
ENDBRANCH  99 109
BRANCH 100 111
ATOM    111  O3  NON d   1      47.584  16.670  15.092  0.00  0.00    -0.390 OA
ATOM    112  H60 NON d   1      48.051  16.722  15.918  0.00  0.00     0.210 HD
ENDBRANCH 100 111
BRANCH 102 113
ATOM    113  O4  NON d   1      48.270  14.009  14.227  0.00  0.00    -0.390 OA
ATOM    114  H61 NON d   1      47.721  13.887  13.462  0.00  0.00     0.210 HD
ENDBRANCH 102 113
BRANCH 104 115
ATOM    115  C6  NON d   1      47.222  11.835  15.917  0.00  0.00     0.043 C 
ATOM    116  H56 NON d   1      48.032  11.708  15.183  0.00  0.00     0.078 H 
ATOM    117  H57 NON d   1      46.521  10.991  15.839  0.00  0.00     0.078 H 
BRANCH 115 118
ATOM    118  O6  NON d   1      47.764  11.871  17.205  0.00  0.00    -0.398 OA
ATOM    119  H62 NON d   1      47.065  11.980  17.839  0.00  0.00     0.209 HD
ENDBRANCH 115 118
ENDBRANCH 104 115
ENDBRANCH  97  98
ENDBRANCH  86  97
BRANCH  88 120
ATOM    120  C6  NON d   1      41.255  15.762  17.023  0.00  0.00     0.043 C 
ATOM    121  H46 NON d   1      40.805  15.244  16.163  0.00  0.00     0.078 H 
ATOM    122  H47 NON d   1      42.160  16.295  16.697  0.00  0.00     0.078 H 
BRANCH 120 123
ATOM    123  O6  NON d   1      40.333  16.692  17.532  0.00  0.00    -0.398 OA
ATOM    124  H51 NON d   1      39.547  16.237  17.812  0.00  0.00     0.209 HD
ENDBRANCH 120 123
ENDBRANCH  88 120
ENDBRANCH  81  82
ENDBRANCH  70  81
BRANCH  72 125
ATOM    125  C6  NON d   1      39.348  12.137  22.308  0.00  0.00     0.043 C 
ATOM    126  H36 NON d   1      40.253  11.689  21.872  0.00  0.00     0.078 H 
ATOM    127  H37 NON d   1      39.107  11.630  23.254  0.00  0.00     0.078 H 
BRANCH 125 128
ATOM    128  O6  NON d   1      39.575  13.507  22.555  0.00  0.00    -0.398 OA
ATOM    129  H41 NON d   1      38.793  13.893  22.932  0.00  0.00     0.209 HD
ENDBRANCH 125 128
ENDBRANCH  72 125
ENDBRANCH   1  66
TORSDOF 36
