REMARK WARNING: 32 MAX_TORS EXCEEDED!!!
REMARK  45 active torsions:
REMARK  status: ('A' for Active; 'I' for Inactive)
REMARK    1  A    between atoms: N_1  and  CA_2 
REMARK    2  A    between atoms: CA_2  and  C_3 
REMARK    3  A    between atoms: CA_2  and  CB_5 
REMARK       I    between atoms: C_3  and  N_6 
REMARK    4  A    between atoms: N_6  and  CA_7 
REMARK    5  A    between atoms: CA_7  and  C_8 
REMARK    6  A    between atoms: CA_7  and  CB_10 
REMARK       I    between atoms: C_8  and  N_14 
REMARK    7  A    between atoms: CB_10  and  CG1_11 
REMARK    8  A    between atoms: CB_10  and  CG2_12 
REMARK    9  A    between atoms: CG1_11  and  CD1_13 
REMARK   10  A    between atoms: N_14  and  CA_15 
REMARK   11  A    between atoms: CA_15  and  C_16 
REMARK   12  A    between atoms: CA_15  and  CB_18 
REMARK       I    between atoms: C_16  and  N_22 
REMARK   13  A    between atoms: CB_18  and  CG_19 
REMARK   14  A    between atoms: CG_19  and  CD1_20 
REMARK   15  A    between atoms: CG_19  and  CD2_21 
REMARK   16  A    between atoms: N_22  and  CA_23 
REMARK   17  A    between atoms: CA_23  and  C_24 
REMARK   18  A    between atoms: CA_23  and  CB_26 
REMARK       I    between atoms: C_24  and  N_32 
REMARK   19  A    between atoms: CB_26  and  CG_27 
REMARK   20  A    between atoms: N_32  and  CA_33 
REMARK   21  A    between atoms: CA_33  and  C_34 
REMARK   22  A    between atoms: CA_33  and  CB_36 
REMARK       I    between atoms: C_34  and  N_43 
REMARK   23  A    between atoms: CB_36  and  CG_37 
REMARK   24  A    between atoms: CG_37  and  CD_38 
REMARK   25  A    between atoms: CD_38  and  NE_39 
REMARK       I    between atoms: NE_39  and  CZ_40 
REMARK       I    between atoms: CZ_40  and  NH1_41 
REMARK   26  A    between atoms: N_43  and  CA_44 
REMARK   27  A    between atoms: CA_44  and  C_45 
REMARK   28  A    between atoms: CA_44  and  CB_47 
REMARK       I    between atoms: C_45  and  N_51 
REMARK   29  A    between atoms: CB_47  and  CG_48 
REMARK   30  A    between atoms: CG_48  and  CD1_49 
REMARK   31  A    between atoms: CG_48  and  CD2_50 
REMARK   32  A    between atoms: N_51  and  CA_52 
REMARK   33  A    between atoms: CA_52  and  C_53 
REMARK   34  A    between atoms: CA_52  and  CB_55 
REMARK       I    between atoms: C_53  and  N_59 
REMARK   35  A    between atoms: CB_55  and  CG_56 
REMARK   36  A    between atoms: CG_56  and  CD1_57 
REMARK   37  A    between atoms: CG_56  and  CD2_58 
REMARK   38  A    between atoms: N_59  and  CA_60 
REMARK   39  A    between atoms: CA_60  and  C_61 
REMARK   40  A    between atoms: CA_60  and  CB_63 
REMARK       I    between atoms: C_61  and  N_68 
REMARK   41  A    between atoms: CB_63  and  CG_64 
REMARK   42  A    between atoms: CG_64  and  CD_65 
REMARK       I    between atoms: CD_65  and  NE2_67 
REMARK   43  A    between atoms: N_68  and  CA_69 
REMARK   44  A    between atoms: CA_69  and  C_70 
REMARK   45  A    between atoms: CA_69  and  CB_72 
ROOT
ATOM      1  CA  ARG d   1       8.661  27.711  22.024  0.00  0.00     0.089 C 
ATOM      2  H38 ARG d   1       8.868  28.646  21.483  0.00  0.00     0.087 H 
ENDROOT
BRANCH   1   3
ATOM      3  N   ARG d   1       8.635  26.621  21.070  0.00  0.00    -0.346 N 
ATOM      4  C   HIS d   1       9.668  26.364  20.282  0.00  0.00     0.241 C 
ATOM      5  O   HIS d   1      10.689  27.042  20.301  0.00  0.00    -0.271 OA
ATOM      6  H37 ARG d   1       7.817  26.049  21.005  0.00  0.00     0.163 HD
BRANCH   4   7
ATOM      7  CA  HIS d   1       9.536  25.161  19.357  0.00  0.00     0.094 C 
ATOM      8  H31 HIS d   1      10.530  24.890  18.972  0.00  0.00     0.088 H 
BRANCH   7   9
ATOM      9  N   HIS d   1       8.951  24.016  20.031  0.00  0.00    -0.346 N 
ATOM     10  C   LEU d   1       9.422  23.406  21.100  0.00  0.00     0.241 C 
ATOM     11  O   LEU d   1      10.464  23.722  21.657  0.00  0.00    -0.271 OA
ATOM     12  H30 HIS d   1       8.103  23.653  19.644  0.00  0.00     0.163 HD
BRANCH  10  13
ATOM     13  CA  LEU d   1       8.542  22.267  21.593  0.00  0.00     0.089 C 
ATOM     14  H20 LEU d   1       8.872  21.968  22.599  0.00  0.00     0.087 H 
BRANCH  13  15
ATOM     15  N   LEU d   1       7.153  22.678  21.659  0.00  0.00    -0.346 N 
ATOM     16  C   ILE d   1       6.734  23.769  22.282  0.00  0.00     0.241 C 
ATOM     17  O   ILE d   1       7.503  24.537  22.872  0.00  0.00    -0.271 OA
ATOM     18  H19 LEU d   1       6.471  22.103  21.207  0.00  0.00     0.163 HD
BRANCH  16  19
ATOM     19  CA  ILE d   1       5.235  24.035  22.207  0.00  0.00     0.092 C 
ATOM     20  H9  ILE d   1       5.061  25.082  22.497  0.00  0.00     0.088 H 
BRANCH  19  21
ATOM     21  N   ILE d   1       4.718  23.873  20.844  0.00  0.00    -0.346 N 
ATOM     22  C   LYS d   1       5.261  24.548  19.825  0.00  0.00     0.248 C 
ATOM     23  O   LYS d   1       6.213  25.313  20.021  0.00  0.00    -0.271 OA
ATOM     24  H8  ILE d   1       3.953  23.252  20.675  0.00  0.00     0.163 HD
BRANCH  22  25
ATOM     25  CA  LYS d   1       4.742  24.357  18.409  0.00  0.00     0.172 C 
ATOM     26  H4  LYS d   1       5.553  24.657  17.729  0.00  0.00     0.098 H 
BRANCH  25  27
ATOM     27  N   LYS d   1       4.424  22.929  18.104  0.00  0.00    -0.067 N 
ATOM     28  H1  LYS d   1       4.085  22.855  17.158  0.00  0.00     0.275 HD
ATOM     29  H2  LYS d   1       3.716  22.599  18.741  0.00  0.00     0.275 HD
ATOM     30  H3  LYS d   1       5.256  22.370  18.207  0.00  0.00     0.275 HD
ENDBRANCH  25  27
BRANCH  25  31
ATOM     31  CB  LYS d   1       3.553  25.265  18.114  0.00  0.00    -0.042 C 
ATOM     32  H5  LYS d   1       3.820  26.306  18.349  0.00  0.00     0.030 H 
ATOM     33  H6  LYS d   1       2.695  24.958  18.731  0.00  0.00     0.030 H 
ATOM     34  H7  LYS d   1       3.286  25.186  17.050  0.00  0.00     0.030 H 
ENDBRANCH  25  31
ENDBRANCH  22  25
ENDBRANCH  19  21
BRANCH  19  35
ATOM     35  CB  ILE d   1       4.528  23.144  23.229  0.00  0.00    -0.030 C 
ATOM     36  H10 ILE d   1       4.612  22.093  22.915  0.00  0.00     0.043 H 
BRANCH  35  37
ATOM     37  CG1 ILE d   1       3.048  23.552  23.247  0.00  0.00    -0.063 C 
ATOM     38  H11 ILE d   1       2.751  23.820  22.222  0.00  0.00     0.033 H 
ATOM     39  H12 ILE d   1       2.939  24.429  23.902  0.00  0.00     0.033 H 
BRANCH  37  40
ATOM     40  CD1 ILE d   1       2.115  22.469  23.744  0.00  0.00    -0.076 C 
ATOM     41  H16 ILE d   1       1.080  22.840  23.726  0.00  0.00     0.027 H 
ATOM     42  H17 ILE d   1       2.388  22.194  24.774  0.00  0.00     0.027 H 
ATOM     43  H18 ILE d   1       2.199  21.586  23.094  0.00  0.00     0.027 H 
ENDBRANCH  37  40
ENDBRANCH  35  37
BRANCH  35  44
ATOM     44  CG2 ILE d   1       5.155  23.290  24.614  0.00  0.00    -0.071 C 
ATOM     45  H13 ILE d   1       6.213  22.991  24.571  0.00  0.00     0.028 H 
ATOM     46  H14 ILE d   1       4.621  22.646  25.328  0.00  0.00     0.028 H 
ATOM     47  H15 ILE d   1       5.083  24.338  24.941  0.00  0.00     0.028 H 
ENDBRANCH  35  44
ENDBRANCH  19  35
ENDBRANCH  16  19
ENDBRANCH  13  15
BRANCH  13  48
ATOM     48  CB  LEU d   1       8.691  21.079  20.641  0.00  0.00    -0.035 C 
ATOM     49  H21 LEU d   1       9.084  21.464  19.688  0.00  0.00     0.037 H 
ATOM     50  H22 LEU d   1       7.689  20.655  20.480  0.00  0.00     0.037 H 
BRANCH  48  51
ATOM     51  CG  LEU d   1       9.604  19.944  21.089  0.00  0.00    -0.059 C 
ATOM     52  H23 LEU d   1       9.167  19.492  21.992  0.00  0.00     0.038 H 
BRANCH  51  53
ATOM     53  CD1 LEU d   1       9.636  18.879  19.992  0.00  0.00    -0.073 C 
ATOM     54  H24 LEU d   1      10.292  18.052  20.302  0.00  0.00     0.028 H 
ATOM     55  H25 LEU d   1      10.020  19.322  19.061  0.00  0.00     0.028 H 
ATOM     56  H26 LEU d   1       8.619  18.496  19.823  0.00  0.00     0.028 H 
ENDBRANCH  51  53
BRANCH  51  57
ATOM     57  CD2 LEU d   1      10.994  20.423  21.452  0.00  0.00    -0.073 C 
ATOM     58  H27 LEU d   1      10.924  21.186  22.242  0.00  0.00     0.028 H 
ATOM     59  H28 LEU d   1      11.476  20.858  20.564  0.00  0.00     0.028 H 
ATOM     60  H29 LEU d   1      11.592  19.573  21.814  0.00  0.00     0.028 H 
ENDBRANCH  51  57
ENDBRANCH  48  51
ENDBRANCH  13  48
ENDBRANCH  10  13
ENDBRANCH   7   9
BRANCH   7  61
ATOM     61  CB  HIS d   1       8.602  25.540  18.193  0.00  0.00     0.002 C 
ATOM     62  H32 HIS d   1       7.885  26.303  18.531  0.00  0.00     0.046 H 
ATOM     63  H33 HIS d   1       8.056  24.647  17.855  0.00  0.00     0.046 H 
BRANCH  61  64
ATOM     64  CG  HIS d   1       9.416  26.085  17.064  0.00  0.00     0.030 A 
ATOM     65  ND1 HIS d   1       9.972  25.216  16.152  0.00  0.00    -0.353 N 
ATOM     66  CE1 HIS d   1      10.647  25.923  15.259  0.00  0.00     0.063 A 
ATOM     67  H34 HIS d   1       9.879  24.190  16.163  0.00  0.00     0.166 HD
ATOM     68  NE2 HIS d   1      10.540  27.215  15.567  0.00  0.00    -0.254 NA
ATOM     69  H36 HIS d   1      11.198  25.516  14.413  0.00  0.00     0.143 H 
ATOM     70  CD2 HIS d   1       9.772  27.338  16.705  0.00  0.00     0.025 A 
ATOM     71  H35 HIS d   1       9.505  28.263  17.214  0.00  0.00     0.117 H 
ENDBRANCH  61  64
ENDBRANCH   7  61
ENDBRANCH   4   7
ENDBRANCH   1   3
BRANCH   1  72
ATOM     72  C   ARG d   1       9.779  27.433  23.028  0.00  0.00     0.241 C 
ATOM     73  O   ARG d   1      10.664  28.241  23.262  0.00  0.00    -0.271 OA
ATOM     74  N   LEU d   1       9.693  26.249  23.639  0.00  0.00    -0.346 N 
ATOM     75  H50 LEU d   1       8.968  25.609  23.386  0.00  0.00     0.163 HD
BRANCH  74  76
ATOM     76  CA  LEU d   1      10.664  25.884  24.684  0.00  0.00     0.089 C 
ATOM     77  H51 LEU d   1      10.614  26.668  25.454  0.00  0.00     0.087 H 
BRANCH  76  78
ATOM     78  C   LEU d   1      12.088  25.861  24.206  0.00  0.00     0.241 C 
ATOM     79  O   LEU d   1      12.961  26.219  24.996  0.00  0.00    -0.271 OA
ATOM     80  N   LEU d   1      12.337  25.489  22.958  0.00  0.00    -0.346 N 
ATOM     81  H61 LEU d   1      11.579  25.217  22.365  0.00  0.00     0.163 HD
BRANCH  80  82
ATOM     82  CA  LEU d   1      13.694  25.470  22.439  0.00  0.00     0.089 C 
ATOM     83  H62 LEU d   1      14.330  24.994  23.200  0.00  0.00     0.087 H 
BRANCH  82  84
ATOM     84  C   LEU d   1      14.261  26.858  22.188  0.00  0.00     0.241 C 
ATOM     85  O   LEU d   1      15.487  27.012  22.255  0.00  0.00    -0.271 OA
ATOM     86  N   GLN d   1      13.424  27.858  21.931  0.00  0.00    -0.346 N 
ATOM     87  H72 GLN d   1      12.443  27.668  21.898  0.00  0.00     0.163 HD
BRANCH  86  88
ATOM     88  CA  GLN d   1      13.883  29.221  21.696  0.00  0.00     0.090 C 
ATOM     89  H73 GLN d   1      14.890  29.156  21.259  0.00  0.00     0.087 H 
BRANCH  88  90
ATOM     90  C   GLN d   1      13.956  30.059  22.974  0.00  0.00     0.241 C 
ATOM     91  O   GLN d   1      14.581  31.123  22.955  0.00  0.00    -0.271 OA
ATOM     92  N   ASP d   1      13.319  29.561  24.028  0.00  0.00    -0.345 N 
ATOM     93  H80 ASP d   1      12.854  28.679  23.957  0.00  0.00     0.163 HD
BRANCH  92  94
ATOM     94  CA  ASP d   1      13.295  30.296  25.290  0.00  0.00     0.093 C 
ATOM     95  H81 ASP d   1      13.936  31.183  25.180  0.00  0.00     0.089 H 
BRANCH  94  96
ATOM     96  C   ASP d   1      13.813  29.492  26.484  0.00  0.00     0.196 C 
ATOM     97  O   ASP d   1      14.989  29.718  26.876  0.00  0.00    -0.646 OA
ATOM     98  OXT ASP d   1      12.919  29.008  27.240  0.00  0.00    -0.646 OA
ENDBRANCH  94  96
BRANCH  94  99
ATOM     99  CB  ASP d   1      11.851  30.756  25.550  0.00  0.00    -0.048 C 
ATOM    100  H82 ASP d   1      11.809  31.313  26.498  0.00  0.00     0.030 H 
ATOM    101  H83 ASP d   1      11.192  29.878  25.611  0.00  0.00     0.030 H 
ATOM    102  H84 ASP d   1      11.520  31.407  24.727  0.00  0.00     0.030 H 
ENDBRANCH  94  99
ENDBRANCH  92  94
ENDBRANCH  88  90
BRANCH  88 103
ATOM    103  CB  GLN d   1      12.983  29.997  20.739  0.00  0.00    -0.030 C 
ATOM    104  H74 GLN d   1      13.139  31.070  20.926  0.00  0.00     0.037 H 
ATOM    105  H75 GLN d   1      11.940  29.732  20.969  0.00  0.00     0.037 H 
BRANCH 103 106
ATOM    106  CG  GLN d   1      13.210  29.747  19.260  0.00  0.00     0.011 C 
ATOM    107  H76 GLN d   1      13.197  28.665  19.061  0.00  0.00     0.047 H 
ATOM    108  H77 GLN d   1      14.183  30.163  18.959  0.00  0.00     0.047 H 
BRANCH 106 109
ATOM    109  CD  GLN d   1      12.099  30.425  18.477  0.00  0.00     0.215 C 
ATOM    110  OE1 GLN d   1      11.194  29.754  17.985  0.00  0.00    -0.274 OA
ATOM    111  NE2 GLN d   1      12.217  31.749  18.414  0.00  0.00    -0.370 N 
ATOM    112  H78 GLN d   1      11.535  32.289  17.921  0.00  0.00     0.159 HD
ATOM    113  H79 GLN d   1      12.988  32.204  18.860  0.00  0.00     0.159 HD
ENDBRANCH 106 109
ENDBRANCH 103 106
ENDBRANCH  88 103
ENDBRANCH  86  88
ENDBRANCH  82  84
BRANCH  82 114
ATOM    114  CB  LEU d   1      13.755  24.609  21.177  0.00  0.00    -0.035 C 
ATOM    115  H63 LEU d   1      14.694  24.839  20.653  0.00  0.00     0.037 H 
ATOM    116  H64 LEU d   1      12.902  24.881  20.538  0.00  0.00     0.037 H 
BRANCH 114 117
ATOM    117  CG  LEU d   1      13.705  23.100  21.417  0.00  0.00    -0.059 C 
ATOM    118  H65 LEU d   1      12.882  22.892  22.116  0.00  0.00     0.038 H 
BRANCH 117 119
ATOM    119  CD1 LEU d   1      13.443  22.322  20.139  0.00  0.00    -0.073 C 
ATOM    120  H66 LEU d   1      13.416  21.246  20.364  0.00  0.00     0.028 H 
ATOM    121  H67 LEU d   1      14.246  22.526  19.415  0.00  0.00     0.028 H 
ATOM    122  H68 LEU d   1      12.477  22.631  19.713  0.00  0.00     0.028 H 
ENDBRANCH 117 119
BRANCH 117 123
ATOM    123  CD2 LEU d   1      15.006  22.639  22.052  0.00  0.00    -0.073 C 
ATOM    124  H69 LEU d   1      15.185  23.209  22.976  0.00  0.00     0.028 H 
ATOM    125  H70 LEU d   1      15.836  22.808  21.351  0.00  0.00     0.028 H 
ATOM    126  H71 LEU d   1      14.938  21.567  22.290  0.00  0.00     0.028 H 
ENDBRANCH 117 123
ENDBRANCH 114 117
ENDBRANCH  82 114
ENDBRANCH  80  82
ENDBRANCH  76  78
BRANCH  76 127
ATOM    127  CB  LEU d   1      10.227  24.579  25.347  0.00  0.00    -0.035 C 
ATOM    128  H52 LEU d   1      10.917  24.345  26.171  0.00  0.00     0.037 H 
ATOM    129  H53 LEU d   1      10.256  23.769  24.603  0.00  0.00     0.037 H 
BRANCH 127 130
ATOM    130  CG  LEU d   1       8.798  24.699  25.905  0.00  0.00    -0.059 C 
ATOM    131  H54 LEU d   1       8.162  25.085  25.095  0.00  0.00     0.038 H 
BRANCH 130 132
ATOM    132  CD1 LEU d   1       8.226  23.368  26.329  0.00  0.00    -0.073 C 
ATOM    133  H55 LEU d   1       7.207  23.514  26.718  0.00  0.00     0.028 H 
ATOM    134  H56 LEU d   1       8.859  22.930  27.115  0.00  0.00     0.028 H 
ATOM    135  H57 LEU d   1       8.194  22.690  25.463  0.00  0.00     0.028 H 
ENDBRANCH 130 132
BRANCH 130 136
ATOM    136  CD2 LEU d   1       8.744  25.705  27.054  0.00  0.00    -0.073 C 
ATOM    137  H58 LEU d   1       9.165  26.665  26.721  0.00  0.00     0.028 H 
ATOM    138  H59 LEU d   1       9.329  25.323  27.904  0.00  0.00     0.028 H 
ATOM    139  H60 LEU d   1       7.699  25.852  27.364  0.00  0.00     0.028 H 
ENDBRANCH 130 136
ENDBRANCH 127 130
ENDBRANCH  76 127
ENDBRANCH  74  76
ENDBRANCH   1  72
BRANCH   1 140
ATOM    140  CB  ARG d   1       7.350  27.882  22.822  0.00  0.00    -0.036 C 
ATOM    141  H39 ARG d   1       7.332  27.114  23.610  0.00  0.00     0.036 H 
ATOM    142  H40 ARG d   1       6.511  27.717  22.131  0.00  0.00     0.036 H 
BRANCH 140 143
ATOM    143  CG  ARG d   1       7.148  29.232  23.484  0.00  0.00    -0.048 C 
ATOM    144  H41 ARG d   1       6.533  29.850  22.813  0.00  0.00     0.035 H 
ATOM    145  H42 ARG d   1       8.136  29.699  23.610  0.00  0.00     0.035 H 
BRANCH 143 146
ATOM    146  CD  ARG d   1       6.468  29.200  24.845  0.00  0.00     0.009 C 
ATOM    147  H43 ARG d   1       6.143  30.222  25.088  0.00  0.00     0.064 H 
ATOM    148  H44 ARG d   1       7.207  28.864  25.588  0.00  0.00     0.064 H 
BRANCH 146 149
ATOM    149  NE  ARG d   1       5.311  28.326  24.934  0.00  0.00    -0.227 N 
ATOM    150  CZ  ARG d   1       4.893  27.546  25.918  0.00  0.00     0.665 C 
ATOM    151  NH1 ARG d   1       5.497  27.419  27.099  0.00  0.00    -0.235 N 
ATOM    152  NH2 ARG d   1       3.791  26.819  25.748  0.00  0.00    -0.235 N 
ATOM    153  H46 ARG d   1       5.105  26.788  27.813  0.00  0.00     0.174 HD
ATOM    154  H47 ARG d   1       6.356  27.952  27.298  0.00  0.00     0.174 HD
ATOM    155  H48 ARG d   1       3.273  26.869  24.859  0.00  0.00     0.174 HD
ATOM    156  H49 ARG d   1       3.456  26.207  26.506  0.00  0.00     0.174 HD
ATOM    157  H45 ARG d   1       4.718  28.311  24.092  0.00  0.00     0.177 HD
ENDBRANCH 146 149
ENDBRANCH 143 146
ENDBRANCH 140 143
ENDBRANCH   1 140
TORSDOF 45
