REMARK WARNING: 32 MAX_TORS EXCEEDED!!!
REMARK  44 active torsions:
REMARK  status: ('A' for Active; 'I' for Inactive)
REMARK    1  A    between atoms: N_1  and  CA_2 
REMARK    2  A    between atoms: CA_2  and  C_3 
REMARK    3  A    between atoms: CA_2  and  CB_5 
REMARK       I    between atoms: C_3  and  N_9 
REMARK    4  A    between atoms: CB_5  and  CG_6 
REMARK       I    between atoms: CG_6  and  ND2_8 
REMARK    5  A    between atoms: N_9  and  CA_10 
REMARK    6  A    between atoms: CA_10  and  C_11 
REMARK    7  A    between atoms: CA_10  and  CB_13 
REMARK       I    between atoms: C_11  and  N_14 
REMARK    8  A    between atoms: N_14  and  CA_15 
REMARK    9  A    between atoms: CA_15  and  C_16 
REMARK   10  A    between atoms: CA_15  and  CB_18 
REMARK       I    between atoms: C_16  and  N_22 
REMARK   11  A    between atoms: CB_18  and  CG_19 
REMARK   12  A    between atoms: CG_19  and  CD1_20 
REMARK   13  A    between atoms: CG_19  and  CD2_21 
REMARK   14  A    between atoms: N_22  and  CA_23 
REMARK   15  A    between atoms: CA_23  and  C_24 
REMARK   16  A    between atoms: CA_23  and  CB_26 
REMARK       I    between atoms: C_24  and  N_30 
REMARK   17  A    between atoms: CB_26  and  CG_27 
REMARK   18  A    between atoms: CG_27  and  CD1_28 
REMARK   19  A    between atoms: CG_27  and  CD2_29 
REMARK   20  A    between atoms: N_30  and  CA_31 
REMARK   21  A    between atoms: CA_31  and  C_32 
REMARK   22  A    between atoms: CA_31  and  CB_34 
REMARK       I    between atoms: C_32  and  N_35 
REMARK   23  A    between atoms: N_35  and  CA_36 
REMARK   24  A    between atoms: CA_36  and  C_37 
REMARK   25  A    between atoms: CA_36  and  CB_39 
REMARK       I    between atoms: C_37  and  N_47 
REMARK   26  A    between atoms: CB_39  and  CG_40 
REMARK   27  A    between atoms: CZ_45  and  OH_46 
REMARK   28  A    between atoms: N_47  and  CA_48 
REMARK   29  A    between atoms: CA_48  and  C_49 
REMARK   30  A    between atoms: CA_48  and  CB_51 
REMARK       I    between atoms: C_49  and  N_55 
REMARK   31  A    between atoms: CB_51  and  CG_52 
REMARK   32  A    between atoms: CG_52  and  CD1_53 
REMARK   33  A    between atoms: CG_52  and  CD2_54 
REMARK   34  A    between atoms: N_55  and  CA_56 
REMARK   35  A    between atoms: CA_56  and  C_57 
REMARK   36  A    between atoms: CA_56  and  CB_59 
REMARK       I    between atoms: C_57  and  N_63 
REMARK   37  A    between atoms: CB_59  and  CG_60 
REMARK   38  A    between atoms: CG_60  and  CD1_61 
REMARK   39  A    between atoms: CG_60  and  CD2_62 
REMARK   40  A    between atoms: N_63  and  CA_64 
REMARK   41  A    between atoms: CA_64  and  C_65 
REMARK   42  A    between atoms: CA_64  and  CB_67 
REMARK   43  A    between atoms: C_65  and  O_66 
REMARK   44  A    between atoms: CB_67  and  CG_68 
ROOT
ATOM      1  C   ARG d   1      -7.955  16.970  22.033  0.00  0.00     0.240 C 
ATOM      2  O   ARG d   1      -7.477  17.501  23.037  0.00  0.00    -0.271 OA
ATOM      3  N   TYR d   1      -7.605  15.741  21.656  0.00  0.00    -0.346 N 
ATOM      4  H41 TYR d   1      -8.065  15.357  20.855  0.00  0.00     0.163 HD
ENDROOT
BRANCH   1   5
ATOM      5  CA  ARG d   1      -8.923  17.724  21.133  0.00  0.00     0.086 C 
ATOM      6  H37 ARG d   1      -8.783  18.797  21.329  0.00  0.00     0.086 H 
BRANCH   5   7
ATOM      7  N   ARG d   1      -8.662  17.502  19.708  0.00  0.00    -0.346 N 
ATOM      8  C   LEU d   1      -7.483  17.738  19.188  0.00  0.00     0.241 C 
ATOM      9  O   LEU d   1      -6.521  18.151  19.835  0.00  0.00    -0.271 OA
ATOM     10  H36 ARG d   1      -9.398  17.164  19.121  0.00  0.00     0.163 HD
BRANCH   8  11
ATOM     11  CA  LEU d   1      -7.293  17.510  17.698  0.00  0.00     0.089 C 
ATOM     12  H26 LEU d   1      -6.214  17.523  17.483  0.00  0.00     0.087 H 
BRANCH  11  13
ATOM     13  N   LEU d   1      -7.794  16.233  17.261  0.00  0.00    -0.346 N 
ATOM     14  C   LEU d   1      -7.310  15.075  17.720  0.00  0.00     0.241 C 
ATOM     15  O   LEU d   1      -6.373  15.054  18.521  0.00  0.00    -0.271 OA
ATOM     16  H25 LEU d   1      -8.533  16.212  16.588  0.00  0.00     0.163 HD
BRANCH  14  17
ATOM     17  CA  LEU d   1      -7.931  13.791  17.202  0.00  0.00     0.089 C 
ATOM     18  H15 LEU d   1      -7.538  12.969  17.818  0.00  0.00     0.087 H 
BRANCH  17  19
ATOM     19  N   LEU d   1      -9.376  13.748  17.261  0.00  0.00    -0.346 N 
ATOM     20  C   ALA d   1     -10.100  14.243  18.237  0.00  0.00     0.240 C 
ATOM     21  O   ALA d   1      -9.561  14.805  19.191  0.00  0.00    -0.271 OA
ATOM     22  H14 LEU d   1      -9.858  13.309  16.503  0.00  0.00     0.163 HD
BRANCH  20  23
ATOM     23  CA  ALA d   1     -11.611  14.083  18.138  0.00  0.00     0.086 C 
ATOM     24  H10 ALA d   1     -12.041  14.344  19.116  0.00  0.00     0.086 H 
BRANCH  23  25
ATOM     25  N   ALA d   1     -12.206  14.982  17.153  0.00  0.00    -0.346 N 
ATOM     26  C   ASN d   1     -12.046  16.299  17.228  0.00  0.00     0.249 C 
ATOM     27  O   ASN d   1     -11.376  16.869  18.099  0.00  0.00    -0.271 OA
ATOM     28  H9  ALA d   1     -12.746  14.598  16.405  0.00  0.00     0.163 HD
BRANCH  26  29
ATOM     29  CA  ASN d   1     -12.744  17.150  16.163  0.00  0.00     0.183 C 
ATOM     30  H4  ASN d   1     -12.816  16.569  15.232  0.00  0.00     0.099 H 
BRANCH  29  31
ATOM     31  N   ASN d   1     -14.131  17.511  16.589  0.00  0.00    -0.066 N 
ATOM     32  H1  ASN d   1     -14.568  18.070  15.873  0.00  0.00     0.275 HD
ATOM     33  H2  ASN d   1     -14.092  18.037  17.448  0.00  0.00     0.275 HD
ATOM     34  H3  ASN d   1     -14.668  16.670  16.733  0.00  0.00     0.275 HD
ENDBRANCH  29  31
BRANCH  29  35
ATOM     35  CB  ASN d   1     -11.874  18.369  15.908  0.00  0.00     0.044 C 
ATOM     36  H5  ASN d   1     -10.838  18.022  15.777  0.00  0.00     0.051 H 
ATOM     37  H6  ASN d   1     -11.935  19.018  16.794  0.00  0.00     0.051 H 
BRANCH  35  38
ATOM     38  CG  ASN d   1     -12.239  19.199  14.702  0.00  0.00     0.217 C 
ATOM     39  OD1 ASN d   1     -12.819  20.277  14.845  0.00  0.00    -0.274 OA
ATOM     40  ND2 ASN d   1     -11.874  18.704  13.523  0.00  0.00    -0.370 N 
ATOM     41  H7  ASN d   1     -12.085  19.204  12.684  0.00  0.00     0.159 HD
ATOM     42  H8  ASN d   1     -11.388  17.831  13.476  0.00  0.00     0.159 HD
ENDBRANCH  35  38
ENDBRANCH  29  35
ENDBRANCH  26  29
ENDBRANCH  23  25
BRANCH  23  43
ATOM     43  CB  ALA d   1     -11.938  12.617  17.860  0.00  0.00    -0.049 C 
ATOM     44  H11 ALA d   1     -11.468  11.985  18.628  0.00  0.00     0.030 H 
ATOM     45  H12 ALA d   1     -11.553  12.337  16.868  0.00  0.00     0.030 H 
ATOM     46  H13 ALA d   1     -13.028  12.474  17.884  0.00  0.00     0.030 H 
ENDBRANCH  23  43
ENDBRANCH  20  23
ENDBRANCH  17  19
BRANCH  17  47
ATOM     47  CB  LEU d   1      -7.552  13.537  15.733  0.00  0.00    -0.035 C 
ATOM     48  H16 LEU d   1      -7.782  14.443  15.152  0.00  0.00     0.037 H 
ATOM     49  H17 LEU d   1      -8.156  12.697  15.358  0.00  0.00     0.037 H 
BRANCH  47  50
ATOM     50  CG  LEU d   1      -6.072  13.197  15.533  0.00  0.00    -0.059 C 
ATOM     51  H18 LEU d   1      -5.474  14.046  15.896  0.00  0.00     0.038 H 
BRANCH  50  52
ATOM     52  CD1 LEU d   1      -5.683  11.972  16.352  0.00  0.00    -0.073 C 
ATOM     53  H19 LEU d   1      -4.618  11.748  16.193  0.00  0.00     0.028 H 
ATOM     54  H20 LEU d   1      -6.290  11.111  16.035  0.00  0.00     0.028 H 
ATOM     55  H21 LEU d   1      -5.860  12.173  17.419  0.00  0.00     0.028 H 
ENDBRANCH  50  52
BRANCH  50  56
ATOM     56  CD2 LEU d   1      -5.770  13.013  14.053  0.00  0.00    -0.073 C 
ATOM     57  H22 LEU d   1      -6.066  13.918  13.503  0.00  0.00     0.028 H 
ATOM     58  H23 LEU d   1      -6.333  12.150  13.668  0.00  0.00     0.028 H 
ATOM     59  H24 LEU d   1      -4.693  12.838  13.918  0.00  0.00     0.028 H 
ENDBRANCH  50  56
ENDBRANCH  47  50
ENDBRANCH  17  47
ENDBRANCH  14  17
ENDBRANCH  11  13
BRANCH  11  60
ATOM     60  CB  LEU d   1      -7.937  18.694  16.975  0.00  0.00    -0.035 C 
ATOM     61  H27 LEU d   1      -8.104  19.488  17.717  0.00  0.00     0.037 H 
ATOM     62  H28 LEU d   1      -8.904  18.356  16.575  0.00  0.00     0.037 H 
BRANCH  60  63
ATOM     63  CG  LEU d   1      -7.140  19.300  15.816  0.00  0.00    -0.059 C 
ATOM     64  H29 LEU d   1      -6.691  18.476  15.241  0.00  0.00     0.038 H 
BRANCH  63  65
ATOM     65  CD1 LEU d   1      -8.096  20.059  14.901  0.00  0.00    -0.073 C 
ATOM     66  H30 LEU d   1      -7.532  20.498  14.065  0.00  0.00     0.028 H 
ATOM     67  H31 LEU d   1      -8.590  20.860  15.470  0.00  0.00     0.028 H 
ATOM     68  H32 LEU d   1      -8.855  19.366  14.508  0.00  0.00     0.028 H 
ENDBRANCH  63  65
BRANCH  63  69
ATOM     69  CD2 LEU d   1      -6.012  20.193  16.298  0.00  0.00    -0.073 C 
ATOM     70  H33 LEU d   1      -5.343  19.617  16.954  0.00  0.00     0.028 H 
ATOM     71  H34 LEU d   1      -6.431  21.043  16.857  0.00  0.00     0.028 H 
ATOM     72  H35 LEU d   1      -5.445  20.567  15.433  0.00  0.00     0.028 H 
ENDBRANCH  63  69
ENDBRANCH  60  63
ENDBRANCH  11  60
ENDBRANCH   8  11
ENDBRANCH   5   7
BRANCH   5  73
ATOM     73  CB  ARG d   1     -10.364  17.375  21.473  0.00  0.00    -0.049 C 
ATOM     74  H38 ARG d   1     -10.540  17.548  22.545  0.00  0.00     0.030 H 
ATOM     75  H39 ARG d   1     -10.551  16.317  21.237  0.00  0.00     0.030 H 
ATOM     76  H40 ARG d   1     -11.043  18.008  20.883  0.00  0.00     0.030 H 
ENDBRANCH   5  73
ENDBRANCH   1   5
BRANCH   3  77
ATOM     77  CA  TYR d   1      -6.619  14.921  22.308  0.00  0.00     0.093 C 
ATOM     78  H42 TYR d   1      -6.792  15.004  23.391  0.00  0.00     0.088 H 
BRANCH  77  79
ATOM     79  C   TYR d   1      -5.195  15.371  22.031  0.00  0.00     0.241 C 
ATOM     80  O   TYR d   1      -4.352  14.995  22.865  0.00  0.00    -0.271 OA
ATOM     81  N   LEU d   1      -4.854  16.138  21.001  0.00  0.00    -0.346 N 
ATOM     82  H50 LEU d   1      -5.532  16.423  20.323  0.00  0.00     0.163 HD
BRANCH  81  83
ATOM     83  CA  LEU d   1      -3.453  16.552  20.891  0.00  0.00     0.089 C 
ATOM     84  H51 LEU d   1      -2.834  15.719  21.257  0.00  0.00     0.087 H 
BRANCH  83  85
ATOM     85  C   LEU d   1      -3.247  17.746  21.830  0.00  0.00     0.241 C 
ATOM     86  O   LEU d   1      -2.154  17.836  22.405  0.00  0.00    -0.271 OA
ATOM     87  N   LEU d   1      -4.266  18.584  21.989  0.00  0.00    -0.346 N 
ATOM     88  H61 LEU d   1      -5.115  18.432  21.483  0.00  0.00     0.163 HD
BRANCH  87  89
ATOM     89  CA  LEU d   1      -4.161  19.720  22.891  0.00  0.00     0.089 C 
ATOM     90  H62 LEU d   1      -3.202  20.219  22.689  0.00  0.00     0.087 H 
BRANCH  89  91
ATOM     91  C   LEU d   1      -4.257  19.405  24.384  0.00  0.00     0.240 C 
ATOM     92  O   LEU d   1      -3.759  20.187  25.187  0.00  0.00    -0.271 OA
ATOM     93  N   ASP d   1      -4.932  18.340  24.780  0.00  0.00    -0.352 N 
ATOM     94  H72 ASP d   1      -5.357  17.741  24.101  0.00  0.00     0.163 HD
BRANCH  93  95
ATOM     95  CA  ASP d   1      -5.062  18.032  26.197  0.00  0.00     0.041 C 
ATOM     96  H73 ASP d   1      -5.362  18.951  26.723  0.00  0.00     0.076 H 
BRANCH  95  97
ATOM     97  C   ASP d   1      -3.724  17.575  26.766  0.00  0.00     0.036 C 
ATOM     98  H74 ASP d   1      -3.328  18.377  27.406  0.00  0.00     0.077 H 
ATOM     99  H75 ASP d   1      -3.033  17.400  25.928  0.00  0.00     0.077 H 
BRANCH  97 100
ATOM    100  O   ASP d   1      -3.793  16.520  27.450  0.00  0.00    -0.399 OA
ATOM    101  H76 ASP d   1      -2.928  16.295  27.771  0.00  0.00     0.209 HD
ENDBRANCH  97 100
ENDBRANCH  95  97
BRANCH  95 102
ATOM    102  CB  ASP d   1      -6.150  16.979  26.424  0.00  0.00     0.036 C 
ATOM    103  H77 ASP d   1      -6.048  16.578  27.443  0.00  0.00     0.052 H 
ATOM    104  H78 ASP d   1      -6.014  16.166  25.695  0.00  0.00     0.052 H 
BRANCH 102 105
ATOM    105  CG  ASP d   1      -7.544  17.553  26.262  0.00  0.00     0.174 C 
ATOM    106  OD1 ASP d   1      -7.710  18.786  26.158  0.00  0.00    -0.648 OA
ATOM    107  OD2 ASP d   1      -8.490  16.736  26.227  0.00  0.00    -0.648 OA
ENDBRANCH 102 105
ENDBRANCH  95 102
ENDBRANCH  93  95
ENDBRANCH  89  91
BRANCH  89 108
ATOM    108  CB  LEU d   1      -5.331  20.700  22.667  0.00  0.00    -0.035 C 
ATOM    109  H63 LEU d   1      -5.322  21.440  23.481  0.00  0.00     0.037 H 
ATOM    110  H64 LEU d   1      -6.271  20.129  22.701  0.00  0.00     0.037 H 
BRANCH 108 111
ATOM    111  CG  LEU d   1      -5.274  21.450  21.338  0.00  0.00    -0.059 C 
ATOM    112  H65 LEU d   1      -5.149  20.719  20.526  0.00  0.00     0.038 H 
BRANCH 111 113
ATOM    113  CD1 LEU d   1      -6.576  22.187  21.110  0.00  0.00    -0.073 C 
ATOM    114  H66 LEU d   1      -6.530  22.725  20.152  0.00  0.00     0.028 H 
ATOM    115  H67 LEU d   1      -6.739  22.906  21.927  0.00  0.00     0.028 H 
ATOM    116  H68 LEU d   1      -7.406  21.466  21.086  0.00  0.00     0.028 H 
ENDBRANCH 111 113
BRANCH 111 117
ATOM    117  CD2 LEU d   1      -4.070  22.374  21.331  0.00  0.00    -0.073 C 
ATOM    118  H69 LEU d   1      -3.156  21.786  21.501  0.00  0.00     0.028 H 
ATOM    119  H70 LEU d   1      -4.178  23.123  22.130  0.00  0.00     0.028 H 
ATOM    120  H71 LEU d   1      -4.004  22.883  20.358  0.00  0.00     0.028 H 
ENDBRANCH 111 117
ENDBRANCH 108 111
ENDBRANCH  89 108
ENDBRANCH  87  89
ENDBRANCH  83  85
BRANCH  83 121
ATOM    121  CB  LEU d   1      -2.984  16.855  19.495  0.00  0.00    -0.035 C 
ATOM    122  H52 LEU d   1      -1.929  17.164  19.540  0.00  0.00     0.037 H 
ATOM    123  H53 LEU d   1      -3.591  17.680  19.094  0.00  0.00     0.037 H 
BRANCH 121 124
ATOM    124  CG  LEU d   1      -3.100  15.662  18.545  0.00  0.00    -0.059 C 
ATOM    125  H54 LEU d   1      -4.059  15.156  18.729  0.00  0.00     0.038 H 
BRANCH 124 126
ATOM    126  CD1 LEU d   1      -3.089  16.152  17.101  0.00  0.00    -0.073 C 
ATOM    127  H55 LEU d   1      -3.173  15.291  16.421  0.00  0.00     0.028 H 
ATOM    128  H56 LEU d   1      -2.148  16.686  16.902  0.00  0.00     0.028 H 
ATOM    129  H57 LEU d   1      -3.938  16.832  16.938  0.00  0.00     0.028 H 
ENDBRANCH 124 126
BRANCH 124 130
ATOM    130  CD2 LEU d   1      -1.979  14.674  18.825  0.00  0.00    -0.073 C 
ATOM    131  H58 LEU d   1      -2.029  14.351  19.875  0.00  0.00     0.028 H 
ATOM    132  H59 LEU d   1      -1.009  15.157  18.636  0.00  0.00     0.028 H 
ATOM    133  H60 LEU d   1      -2.088  13.799  18.167  0.00  0.00     0.028 H 
ENDBRANCH 124 130
ENDBRANCH 121 124
ENDBRANCH  83 121
ENDBRANCH  81  83
ENDBRANCH  77  79
BRANCH  77 134
ATOM    134  CB  TYR d   1      -6.756  13.447  21.919  0.00  0.00    -0.014 C 
ATOM    135  H43 TYR d   1      -5.859  12.903  22.251  0.00  0.00     0.043 H 
ATOM    136  H44 TYR d   1      -6.847  13.371  20.826  0.00  0.00     0.043 H 
BRANCH 134 137
ATOM    137  CG  TYR d   1      -7.978  12.826  22.562  0.00  0.00    -0.056 A 
ATOM    138  CD1 TYR d   1      -9.224  12.988  21.966  0.00  0.00    -0.074 A 
ATOM    139  CE1 TYR d   1     -10.362  12.442  22.513  0.00  0.00    -0.051 A 
ATOM    140  H45 TYR d   1      -9.300  13.559  21.048  0.00  0.00     0.084 H 
ATOM    141  CZ  TYR d   1     -10.248  11.725  23.691  0.00  0.00     0.065 A 
ATOM    142  H47 TYR d   1     -11.325  12.570  22.033  0.00  0.00     0.087 H 
ATOM    143  CE2 TYR d   1      -9.035  11.562  24.301  0.00  0.00    -0.051 A 
ATOM    144  CD2 TYR d   1      -7.907  12.108  23.749  0.00  0.00    -0.074 A 
ATOM    145  H48 TYR d   1      -8.966  10.999  25.225  0.00  0.00     0.087 H 
ATOM    146  H46 TYR d   1      -6.950  11.979  24.242  0.00  0.00     0.084 H 
BRANCH 141 147
ATOM    147  OH  TYR d   1     -11.397  11.178  24.229  0.00  0.00    -0.361 OA
ATOM    148  H49 TYR d   1     -12.138  11.392  23.674  0.00  0.00     0.217 HD
ENDBRANCH 141 147
ENDBRANCH 134 137
ENDBRANCH  77 134
ENDBRANCH   3  77
TORSDOF 44
