REMARK  8 active torsions:
REMARK  status: ('A' for Active; 'I' for Inactive)
REMARK    1  A    between atoms: N1_1  and  C1_9 
REMARK    2  A    between atoms: C2_10  and  O2_11 
REMARK    3  A    between atoms: C3_12  and  O3_15 
REMARK    4  A    between atoms: C4_13  and  C5_16 
REMARK    5  A    between atoms: C5_16  and  O5_17 
REMARK    6  A    between atoms: O5_17  and  PA_18 
REMARK    7  A    between atoms: PA_18  and  O3A_21 
REMARK    8  A    between atoms: O3A_21  and  PB_22 
ROOT
ATOM      1  C1  UDP d   1       3.042  12.161  42.957  0.00  0.00     0.141 C 
ATOM      2  C2  UDP d   1       4.559  11.967  42.755  0.00  0.00     0.105 C 
ATOM      3  C3  UDP d   1       5.014  11.642  44.174  0.00  0.00     0.091 C 
ATOM      4  C4  UDP d   1       3.893  10.703  44.658  0.00  0.00     0.089 C 
ATOM      5  O4  UDP d   1       2.688  11.256  44.027  0.00  0.00    -0.353 OA
ATOM      6  H4  UDP d   1       2.523  11.865  42.033  0.00  0.00     0.123 H 
ATOM      7  H5  UDP d   1       5.033  12.894  42.401  0.00  0.00     0.093 H 
ATOM      8  H7  UDP d   1       5.098  12.538  44.807  0.00  0.00     0.091 H 
ATOM      9  H8  UDP d   1       4.089   9.676  44.315  0.00  0.00     0.090 H 
ENDROOT
BRANCH   4  10
ATOM     10  C5  UDP d   1       3.675  10.690  46.203  0.00  0.00     0.058 C 
ATOM     11  H10 UDP d   1       4.267   9.882  46.658  0.00  0.00     0.079 H 
ATOM     12  H11 UDP d   1       2.610  10.536  46.430  0.00  0.00     0.079 H 
BRANCH  10  13
ATOM     13  O5  UDP d   1       4.101  11.947  46.711  0.00  0.00    -0.287 OA
BRANCH  13  14
ATOM     14  PA  UDP d   1       5.363  12.409  47.520  0.00  0.00     0.418 P 
ATOM     15  O1A UDP d   1       6.568  11.904  46.812  0.00  0.00    -0.624 OA
ATOM     16  O2A UDP d   1       5.250  13.904  47.702  0.00  0.00    -0.624 OA
BRANCH  14  17
ATOM     17  O3A UDP d   1       5.165  11.599  48.865  0.00  0.00    -0.173 OA
BRANCH  17  18
ATOM     18  PB  UDP d   1       6.223  11.360  50.036  0.00  0.00     0.431 P 
ATOM     19  O1B UDP d   1       7.216  10.227  49.449  0.00  0.00    -0.616 OA
ATOM     20  O2B UDP d   1       5.381  10.869  51.159  0.00  0.00    -0.616 OA
ATOM     21  O3B UDP d   1       7.124  12.521  50.232  0.00  0.00    -0.616 OA
ENDBRANCH  17  18
ENDBRANCH  14  17
ENDBRANCH  13  14
ENDBRANCH  10  13
ENDBRANCH   4  10
BRANCH   3  22
ATOM     22  O3  UDP d   1       6.273  10.966  44.087  0.00  0.00    -0.390 OA
ATOM     23  H9  UDP d   1       6.512  10.632  44.944  0.00  0.00     0.210 HD
ENDBRANCH   3  22
BRANCH   2  24
ATOM     24  O2  UDP d   1       4.826  10.934  41.818  0.00  0.00    -0.388 OA
ATOM     25  H6  UDP d   1       4.435  11.158  40.982  0.00  0.00     0.210 HD
ENDBRANCH   2  24
BRANCH   1  26
ATOM     26  N1  UDP d   1       2.608  13.565  43.295  0.00  0.00    -0.280 N 
ATOM     27  C2  UDP d   1       2.714  14.560  42.320  0.00  0.00     0.331 A 
ATOM     28  N3  UDP d   1       2.293  15.832  42.696  0.00  0.00    -0.275 N 
ATOM     29  O2  UDP d   1       3.155  14.335  41.186  0.00  0.00    -0.246 OA
ATOM     30  C4  UDP d   1       1.773  16.205  43.961  0.00  0.00     0.250 A 
ATOM     31  H1  UDP d   1       2.364  16.553  42.007  0.00  0.00     0.173 HD
ATOM     32  C5  UDP d   1       1.688  15.139  44.930  0.00  0.00    -0.002 A 
ATOM     33  O4  UDP d   1       1.447  17.378  44.127  0.00  0.00    -0.268 OA
ATOM     34  C6  UDP d   1       2.093  13.896  44.579  0.00  0.00    -0.008 A 
ATOM     35  H2  UDP d   1       1.303  15.332  45.930  0.00  0.00     0.094 H 
ATOM     36  H3  UDP d   1       2.020  13.104  45.322  0.00  0.00     0.112 H 
ENDBRANCH   1  26
TORSDOF 8
