REMARK  8 active torsions:
REMARK  status: ('A' for Active; 'I' for Inactive)
REMARK    1  A    between atoms: N1_1  and  C1_9 
REMARK    2  A    between atoms: C2_10  and  O2_11 
REMARK    3  A    between atoms: C3_12  and  O3_15 
REMARK    4  A    between atoms: C4_13  and  C5_16 
REMARK    5  A    between atoms: C5_16  and  O5_17 
REMARK    6  A    between atoms: O5_17  and  PA_18 
REMARK    7  A    between atoms: PA_18  and  O3A_21 
REMARK    8  A    between atoms: O3A_21  and  PB_22 
ROOT
ATOM      1  C1  UDP d   1       3.044  11.928  42.919  0.00  0.00     0.137 C 
ATOM      2  C2  UDP d   1       4.557  11.718  42.695  0.00  0.00     0.104 C 
ATOM      3  C3  UDP d   1       5.020  11.379  44.108  0.00  0.00     0.091 C 
ATOM      4  C4  UDP d   1       3.893  10.433  44.591  0.00  0.00     0.089 C 
ATOM      5  O4  UDP d   1       2.695  11.021  43.991  0.00  0.00    -0.354 OA
ATOM      6  H6  UDP d   1       2.504  11.650  42.002  0.00  0.00     0.122 H 
ATOM      7  H7  UDP d   1       5.038  12.641  42.340  0.00  0.00     0.093 H 
ATOM      8  H9  UDP d   1       5.106  12.267  44.751  0.00  0.00     0.091 H 
ATOM      9  H10 UDP d   1       4.075   9.413  44.222  0.00  0.00     0.090 H 
ENDROOT
BRANCH   1  10
ATOM     10  N1  UDP d   1       2.652  13.332  43.282  0.00  0.00    -0.304 N 
ATOM     11  C2  UDP d   1       2.717  14.328  42.291  0.00  0.00     0.327 A 
ATOM     12  N3  UDP d   1       2.350  15.632  42.644  0.00  0.00    -0.279 N 
ATOM     13  O2  UDP d   1       3.087  14.071  41.138  0.00  0.00    -0.247 OA
ATOM     14  C4  UDP d   1       1.905  16.109  43.902  0.00  0.00     0.227 A 
ATOM     15  H1  UDP d   1       2.409  16.314  41.915  0.00  0.00     0.173 HD
ATOM     16  C5  UDP d   1       1.829  15.053  44.986  0.00  0.00     0.025 A 
ATOM     17  O4  UDP d   1       1.629  17.303  44.012  0.00  0.00    -0.273 OA
ATOM     18  C6  UDP d   1       2.227  13.653  44.588  0.00  0.00     0.010 A 
ATOM     19  H2  UDP d   1       0.790  15.016  45.345  0.00  0.00     0.049 H 
ATOM     20  H3  UDP d   1       2.490  15.368  45.807  0.00  0.00     0.049 H 
ATOM     21  H4  UDP d   1       3.052  13.367  45.257  0.00  0.00     0.065 H 
ATOM     22  H5  UDP d   1       1.353  13.017  44.791  0.00  0.00     0.065 H 
ENDBRANCH   1  10
BRANCH   2  23
ATOM     23  O2  UDP d   1       4.801  10.684  41.751  0.00  0.00    -0.388 OA
ATOM     24  H8  UDP d   1       4.401  10.914  40.920  0.00  0.00     0.210 HD
ENDBRANCH   2  23
BRANCH   3  25
ATOM     25  O3  UDP d   1       6.286  10.718  43.996  0.00  0.00    -0.390 OA
ATOM     26  H11 UDP d   1       6.538  10.373  44.845  0.00  0.00     0.210 HD
ENDBRANCH   3  25
BRANCH   4  27
ATOM     27  C5  UDP d   1       3.658  10.385  46.141  0.00  0.00     0.058 C 
ATOM     28  H12 UDP d   1       4.269   9.589  46.592  0.00  0.00     0.079 H 
ATOM     29  H13 UDP d   1       2.596  10.199  46.357  0.00  0.00     0.079 H 
BRANCH  27  30
ATOM     30  O5  UDP d   1       4.044  11.641  46.653  0.00  0.00    -0.287 OA
BRANCH  30  31
ATOM     31  PA  UDP d   1       5.305  12.113  47.446  0.00  0.00     0.418 P 
ATOM     32  O1A UDP d   1       6.492  11.603  46.721  0.00  0.00    -0.624 OA
ATOM     33  O2A UDP d   1       5.181  13.601  47.633  0.00  0.00    -0.624 OA
BRANCH  31  34
ATOM     34  O3A UDP d   1       5.155  11.318  48.813  0.00  0.00    -0.173 OA
BRANCH  34  35
ATOM     35  PB  UDP d   1       6.270  11.152  49.952  0.00  0.00     0.431 P 
ATOM     36  O1B UDP d   1       7.235   9.986  49.400  0.00  0.00    -0.616 OA
ATOM     37  O2B UDP d   1       5.495  10.730  51.143  0.00  0.00    -0.616 OA
ATOM     38  O3B UDP d   1       7.174  12.330  50.040  0.00  0.00    -0.616 OA
ENDBRANCH  34  35
ENDBRANCH  31  34
ENDBRANCH  30  31
ENDBRANCH  27  30
ENDBRANCH   4  27
TORSDOF 8
