REMARK  8 active torsions:
REMARK  status: ('A' for Active; 'I' for Inactive)
REMARK    1  A    between atoms: N1_1  and  C1_9 
REMARK    2  A    between atoms: C2_10  and  O2_11 
REMARK    3  A    between atoms: C3_12  and  O3_15 
REMARK    4  A    between atoms: C4_13  and  C5_16 
REMARK    5  A    between atoms: C5_16  and  O5_17 
REMARK    6  A    between atoms: O5_17  and  PA_18 
REMARK    7  A    between atoms: PA_18  and  O3A_21 
REMARK    8  A    between atoms: O3A_21  and  PB_22 
ROOT
ATOM      1  C1  UDP d   1       3.182  12.131  43.303  0.00  0.00     0.141 C 
ATOM      2  C2  UDP d   1       4.698  11.923  43.058  0.00  0.00     0.105 C 
ATOM      3  C3  UDP d   1       5.157  11.664  44.498  0.00  0.00     0.091 C 
ATOM      4  C4  UDP d   1       4.061  10.696  44.994  0.00  0.00     0.089 C 
ATOM      5  O4  UDP d   1       2.845  11.221  44.374  0.00  0.00    -0.353 OA
ATOM      6  H4  UDP d   1       2.617  11.879  42.394  0.00  0.00     0.123 H 
ATOM      7  H5  UDP d   1       5.166  12.837  42.664  0.00  0.00     0.093 H 
ATOM      8  H7  UDP d   1       5.197  12.582  45.103  0.00  0.00     0.091 H 
ATOM      9  H8  UDP d   1       4.281   9.685  44.620  0.00  0.00     0.090 H 
ENDROOT
BRANCH   4  10
ATOM     10  C5  UDP d   1       3.848  10.598  46.536  0.00  0.00     0.058 C 
ATOM     11  H10 UDP d   1       4.549   9.861  46.954  0.00  0.00     0.079 H 
ATOM     12  H11 UDP d   1       2.815  10.280  46.741  0.00  0.00     0.079 H 
BRANCH  10  13
ATOM     13  O5  UDP d   1       4.082  11.877  47.148  0.00  0.00    -0.287 OA
BRANCH  13  14
ATOM     14  PA  UDP d   1       5.420  12.232  47.917  0.00  0.00     0.418 P 
ATOM     15  O1A UDP d   1       6.531  11.528  47.223  0.00  0.00    -0.624 OA
ATOM     16  O2A UDP d   1       5.487  13.740  48.045  0.00  0.00    -0.624 OA
BRANCH  14  17
ATOM     17  O3A UDP d   1       5.207  11.572  49.380  0.00  0.00    -0.173 OA
BRANCH  17  18
ATOM     18  PB  UDP d   1       6.412  11.270  50.449  0.00  0.00     0.431 P 
ATOM     19  O1B UDP d   1       7.226  10.064  49.878  0.00  0.00    -0.616 OA
ATOM     20  O2B UDP d   1       5.682  10.865  51.692  0.00  0.00    -0.616 OA
ATOM     21  O3B UDP d   1       7.266  12.508  50.519  0.00  0.00    -0.616 OA
ENDBRANCH  17  18
ENDBRANCH  14  17
ENDBRANCH  13  14
ENDBRANCH  10  13
ENDBRANCH   4  10
BRANCH   3  22
ATOM     22  O3  UDP d   1       6.459  11.033  44.444  0.00  0.00    -0.390 OA
ATOM     23  H9  UDP d   1       6.700  10.733  45.312  0.00  0.00     0.210 HD
ENDBRANCH   3  22
BRANCH   2  24
ATOM     24  O2  UDP d   1       4.952  10.860  42.133  0.00  0.00    -0.388 OA
ATOM     25  H6  UDP d   1       4.542  11.062  41.300  0.00  0.00     0.210 HD
ENDBRANCH   2  24
BRANCH   1  26
ATOM     26  N1  UDP d   1       2.857  13.545  43.705  0.00  0.00    -0.280 N 
ATOM     27  C2  UDP d   1       2.941  14.536  42.723  0.00  0.00     0.331 C 
ATOM     28  N3  UDP d   1       2.477  15.812  43.041  0.00  0.00    -0.275 N 
ATOM     29  O2  UDP d   1       3.231  14.238  41.560  0.00  0.00    -0.246 OA
ATOM     30  C4  UDP d   1       1.883  16.200  44.289  0.00  0.00     0.250 C 
ATOM     31  H1  UDP d   1       2.566  16.518  42.339  0.00  0.00     0.173 HD
ATOM     32  C5  UDP d   1       2.019  15.249  45.361  0.00  0.00    -0.002 C 
ATOM     33  O4  UDP d   1       1.733  17.405  44.481  0.00  0.00    -0.268 OA
ATOM     34  C6  UDP d   1       2.371  13.848  45.002  0.00  0.00    -0.008 C 
ATOM     35  H2  UDP d   1       1.870  15.544  46.398  0.00  0.00     0.094 H 
ATOM     36  H3  UDP d   1       2.255  13.053  45.738  0.00  0.00     0.112 H 
ENDBRANCH   1  26
TORSDOF 8
