REMARK  12 active torsions:
REMARK  status: ('A' for Active; 'I' for Inactive)
REMARK    1  A    between atoms: C1_1  and  O1_14 
REMARK    2  A    between atoms: C2_2  and  O2_15 
REMARK    3  A    between atoms: C3_3  and  O3_16 
REMARK    4  A    between atoms: C4_4  and  O4_17 
REMARK    5  A    between atoms: C5_5  and  O5_18 
REMARK    6  A    between atoms: O6_19  and  C6_6 
REMARK    7  A    between atoms: O6_19  and  C7_7 
REMARK    8  A    between atoms: C8_8  and  N8_13 
REMARK    9  A    between atoms: C9_9  and  O9_20 
REMARK   10  A    between atoms: C10_10  and  O10_21 
REMARK   11  A    between atoms: C11_11  and  C12_12 
REMARK   12  A    between atoms: C12_12  and  O12_23 
ROOT
ATOM      1  C7  MYG d   1      22.020  24.330 100.423  0.00  0.00     0.162 C 
ATOM      2  C8  MYG d   1      21.008  23.153 100.316  0.00  0.00     0.173 C 
ATOM      3  C9  MYG d   1      21.495  21.946 101.179  0.00  0.00     0.094 C 
ATOM      4  C10 MYG d   1      22.882  21.539 100.684  0.00  0.00     0.089 C 
ATOM      5  C11 MYG d   1      23.847  22.700 100.973  0.00  0.00     0.089 C 
ATOM      6  O11 MYG d   1      23.396  23.870 100.247  0.00  0.00    -0.349 OA
ATOM      7  H7  MYG d   1      21.805  25.048  99.618  0.00  0.00     0.132 H 
ATOM      8  H8  MYG d   1      20.944  22.831  99.266  0.00  0.00     0.096 H 
ATOM      9  H9  MYG d   1      21.556  22.258 102.232  0.00  0.00     0.090 H 
ATOM     10  H10 MYG d   1      22.845  21.353  99.600  0.00  0.00     0.091 H 
ATOM     11  H11 MYG d   1      23.862  22.900 102.055  0.00  0.00     0.090 H 
ENDROOT
BRANCH   1  12
ATOM     12  O6  MYG d   1      21.814  24.984 101.668  0.00  0.00    -0.348 OA
BRANCH  12  13
ATOM     13  C6  MYG d   1      21.541  26.384 101.572  0.00  0.00     0.096 C 
ATOM     14  C1  MYG d   1      20.429  26.715 102.595  0.00  0.00     0.090 C 
ATOM     15  C2  MYG d   1      20.166  28.255 102.773  0.00  0.00     0.090 C 
ATOM     16  H1  MYG d   1      20.738  26.313 103.571  0.00  0.00     0.091 H 
ATOM     17  C3  MYG d   1      21.511  28.983 103.062  0.00  0.00     0.090 C 
ATOM     18  H2  MYG d   1      19.488  28.405 103.626  0.00  0.00     0.091 H 
ATOM     19  C4  MYG d   1      22.516  28.677 101.933  0.00  0.00     0.090 C 
ATOM     20  H3  MYG d   1      21.923  28.588 104.002  0.00  0.00     0.091 H 
ATOM     21  C5  MYG d   1      22.818  27.166 101.944  0.00  0.00     0.090 C 
ATOM     22  H4  MYG d   1      22.098  28.979 100.961  0.00  0.00     0.091 H 
ATOM     23  H5  MYG d   1      23.128  26.872 102.958  0.00  0.00     0.091 H 
ATOM     24  H6  MYG d   1      21.218  26.645 100.554  0.00  0.00     0.091 H 
BRANCH  14  25
ATOM     25  O1  MYG d   1      19.248  26.081 102.203  0.00  0.00    -0.390 OA
ATOM     26  H17 MYG d   1      18.561  26.280 102.828  0.00  0.00     0.210 HD
ENDBRANCH  14  25
BRANCH  15  27
ATOM     27  O2  MYG d   1      19.562  28.788 101.615  0.00  0.00    -0.390 OA
ATOM     28  H18 MYG d   1      18.743  28.336 101.450  0.00  0.00     0.210 HD
ENDBRANCH  15  27
BRANCH  17  29
ATOM     29  O3  MYG d   1      21.305  30.400 103.231  0.00  0.00    -0.390 OA
ATOM     30  H19 MYG d   1      20.682  30.547 103.933  0.00  0.00     0.210 HD
ENDBRANCH  17  29
BRANCH  19  31
ATOM     31  O4  MYG d   1      23.733  29.369 102.183  0.00  0.00    -0.390 OA
ATOM     32  H20 MYG d   1      24.076  29.108 103.030  0.00  0.00     0.210 HD
ENDBRANCH  19  31
BRANCH  21  33
ATOM     33  O5  MYG d   1      23.880  26.875 101.044  0.00  0.00    -0.390 OA
ATOM     34  H21 MYG d   1      24.074  25.945 101.074  0.00  0.00     0.210 HD
ENDBRANCH  21  33
ENDBRANCH  12  13
ENDBRANCH   1  12
BRANCH   2  35
ATOM     35  N8  MYG d   1      19.665  23.620 100.757  0.00  0.00    -0.068 N 
ATOM     36  H14 MYG d   1      19.375  24.398 100.185  0.00  0.00     0.275 HD
ATOM     37  H15 MYG d   1      19.710  23.911 101.721  0.00  0.00     0.275 HD
ATOM     38  H16 MYG d   1      19.000  22.868 100.663  0.00  0.00     0.275 HD
ENDBRANCH   2  35
BRANCH   3  39
ATOM     39  O9  MYG d   1      20.604  20.821 101.078  0.00  0.00    -0.391 OA
ATOM     40  H22 MYG d   1      20.935  20.107 101.611  0.00  0.00     0.210 HD
ENDBRANCH   3  39
BRANCH   5  41
ATOM     41  C12 MYG d   1      25.297  22.402 100.469  0.00  0.00     0.043 C 
ATOM     42  H12 MYG d   1      25.794  23.352 100.222  0.00  0.00     0.078 H 
ATOM     43  H13 MYG d   1      25.243  21.771  99.569  0.00  0.00     0.078 H 
BRANCH  41  44
ATOM     44  O12 MYG d   1      26.115  21.671 101.547  0.00  0.00    -0.398 OA
ATOM     45  H24 MYG d   1      25.691  20.848 101.761  0.00  0.00     0.209 HD
ENDBRANCH  41  44
ENDBRANCH   5  41
BRANCH   4  46
ATOM     46  O10 MYG d   1      23.321  20.357 101.341  0.00  0.00    -0.390 OA
ATOM     47  H23 MYG d   1      22.716  19.649 101.154  0.00  0.00     0.210 HD
ENDBRANCH   4  46
TORSDOF 12
