REMARK  10 active torsions:
REMARK  status: ('A' for Active; 'I' for Inactive)
REMARK    1  A    between atoms: O3B_8  and  PG_1 
REMARK    2  A    between atoms: PB_5  and  O3B_8 
REMARK    3  A    between atoms: O3A_12  and  PB_5 
REMARK    4  A    between atoms: PA_9  and  O3A_12 
REMARK    5  A    between atoms: PA_9  and  O5_13 
REMARK    6  A    between atoms: O5_13  and  C5_14 
REMARK    7  A    between atoms: C5_14  and  C4_15 
REMARK    8  A    between atoms: C3_17  and  O3_18 
REMARK    9  A    between atoms: C2_19  and  O2_20 
REMARK   10  A    between atoms: C1_21  and  N9_22 
ROOT
ATOM      1  C4  ATP d   1      31.142  37.330  -8.801  0.00  0.00     0.089 C 
ATOM      2  O4  ATP d   1      30.750  38.717  -8.472  0.00  0.00    -0.353 OA
ATOM      3  C3  ATP d   1      32.611  37.372  -9.183  0.00  0.00     0.091 C 
ATOM      4  C2  ATP d   1      33.093  38.737  -8.778  0.00  0.00     0.105 C 
ATOM      5  C1  ATP d   1      31.861  39.589  -8.843  0.00  0.00     0.139 C 
ATOM      6  H3  ATP d   1      30.547  36.964  -9.650  0.00  0.00     0.090 H 
ATOM      7  H4  ATP d   1      33.171  36.587  -8.654  0.00  0.00     0.091 H 
ATOM      8  H6  ATP d   1      33.490  38.717  -7.752  0.00  0.00     0.093 H 
ATOM      9  H8  ATP d   1      31.717  39.921  -9.882  0.00  0.00     0.122 H 
ENDROOT
BRANCH   1  10
ATOM     10  C5  ATP d   1      30.910  36.406  -7.588  0.00  0.00     0.058 C 
ATOM     11  H1  ATP d   1      31.627  36.656  -6.792  0.00  0.00     0.079 H 
ATOM     12  H2  ATP d   1      29.885  36.541  -7.213  0.00  0.00     0.079 H 
BRANCH  10  13
ATOM     13  O5  ATP d   1      31.099  35.036  -7.996  0.00  0.00    -0.287 OA
BRANCH  13  14
ATOM     14  PA  ATP d   1      31.050  33.822  -6.931  0.00  0.00     0.417 P 
ATOM     15  O1A ATP d   1      31.925  34.159  -5.776  0.00  0.00    -0.624 OA
ATOM     16  O2A ATP d   1      31.301  32.580  -7.674  0.00  0.00    -0.624 OA
BRANCH  14  17
ATOM     17  O3A ATP d   1      29.508  33.830  -6.435  0.00  0.00    -0.180 OA
BRANCH  17  18
ATOM     18  PB  ATP d   1      28.081  33.744  -7.179  0.00  0.00     0.428 P 
ATOM     19  O1B ATP d   1      28.255  34.069  -8.581  0.00  0.00    -0.624 OA
ATOM     20  O2B ATP d   1      27.442  32.465  -6.849  0.00  0.00    -0.624 OA
BRANCH  18  21
ATOM     21  O3B ATP d   1      27.233  34.880  -6.518  0.00  0.00    -0.173 OA
BRANCH  21  22
ATOM     22  PG  ATP d   1      26.111  34.847  -5.339  0.00  0.00     0.431 P 
ATOM     23  O1G ATP d   1      26.879  34.607  -4.043  0.00  0.00    -0.616 OA
ATOM     24  O2G ATP d   1      25.432  36.157  -5.411  0.00  0.00    -0.616 OA
ATOM     25  O3G ATP d   1      25.182  33.724  -5.721  0.00  0.00    -0.616 OA
ENDBRANCH  21  22
ENDBRANCH  18  21
ENDBRANCH  17  18
ENDBRANCH  14  17
ENDBRANCH  13  14
ENDBRANCH  10  13
ENDBRANCH   1  10
BRANCH   3  26
ATOM     26  O3  ATP d   1      32.766  37.206 -10.611  0.00  0.00    -0.390 OA
ATOM     27  H5  ATP d   1      33.689  37.234 -10.834  0.00  0.00     0.210 HD
ENDBRANCH   3  26
BRANCH   5  28
ATOM     28  N9  ATP d   1      31.946  40.798  -8.005  0.00  0.00    -0.294 N 
ATOM     29  C8  ATP d   1      32.288  40.888  -6.665  0.00  0.00     0.071 A 
ATOM     30  N7  ATP d   1      32.271  42.192  -6.304  0.00  0.00    -0.236 NA
ATOM     31  H9  ATP d   1      32.530  40.050  -6.013  0.00  0.00     0.144 H 
ATOM     32  C5  ATP d   1      31.923  42.828  -7.401  0.00  0.00     0.149 A 
ATOM     33  C6  ATP d   1      31.797  44.206  -7.453  0.00  0.00     0.155 A 
ATOM     34  C4  ATP d   1      31.729  42.021  -8.447  0.00  0.00     0.167 A 
ATOM     35  N6  ATP d   1      32.033  44.974  -6.394  0.00  0.00    -0.382 N 
ATOM     36  N1  ATP d   1      31.421  44.744  -8.652  0.00  0.00    -0.222 NA
ATOM     37  H10 ATP d   1      31.930  45.996  -6.466  0.00  0.00     0.157 HD
ATOM     38  H11 ATP d   1      32.319  44.547  -5.501  0.00  0.00     0.157 HD
ATOM     39  C2  ATP d   1      31.205  43.931  -9.743  0.00  0.00     0.091 A 
ATOM     40  N3  ATP d   1      31.351  42.570  -9.641  0.00  0.00    -0.222 NA
ATOM     41  H12 ATP d   1      30.917  44.370 -10.691  0.00  0.00     0.146 H 
ENDBRANCH   5  28
BRANCH   4  42
ATOM     42  O2  ATP d   1      34.121  39.205  -9.666  0.00  0.00    -0.388 OA
ATOM     43  H7  ATP d   1      33.776  39.253 -10.550  0.00  0.00     0.210 HD
ENDBRANCH   4  42
TORSDOF 10
