REMARK  10 active torsions:
REMARK  status: ('A' for Active; 'I' for Inactive)
REMARK    1  A    between atoms: O3B_8  and  PG_1 
REMARK    2  A    between atoms: PB_5  and  O3B_8 
REMARK    3  A    between atoms: O3A_12  and  PB_5 
REMARK    4  A    between atoms: PA_9  and  O3A_12 
REMARK    5  A    between atoms: PA_9  and  O5_13 
REMARK    6  A    between atoms: O5_13  and  C5_14 
REMARK    7  A    between atoms: C5_14  and  C4_15 
REMARK    8  A    between atoms: C3_17  and  O3_18 
REMARK    9  A    between atoms: C2_19  and  O2_20 
REMARK   10  A    between atoms: C1_21  and  N9_22 
ROOT
ATOM      1  C4  ATP d   1      10.342  34.823  32.686  0.00  0.00     0.089 C 
ATOM      2  O4  ATP d   1      10.220  35.518  33.969  0.00  0.00    -0.353 OA
ATOM      3  C3  ATP d   1      10.353  35.875  31.597  0.00  0.00     0.091 C 
ATOM      4  C2  ATP d   1      10.455  37.187  32.317  0.00  0.00     0.105 C 
ATOM      5  C1  ATP d   1       9.902  36.905  33.684  0.00  0.00     0.139 C 
ATOM      6  H3  ATP d   1       9.485  34.149  32.542  0.00  0.00     0.090 H 
ATOM      7  H4  ATP d   1      11.218  35.732  30.932  0.00  0.00     0.091 H 
ATOM      8  H6  ATP d   1      11.508  37.498  32.392  0.00  0.00     0.093 H 
ATOM      9  H8  ATP d   1       8.809  37.024  33.655  0.00  0.00     0.122 H 
ENDROOT
BRANCH   1  10
ATOM     10  C5  ATP d   1      11.620  34.017  32.665  0.00  0.00     0.058 C 
ATOM     11  H1  ATP d   1      12.480  34.690  32.533  0.00  0.00     0.079 H 
ATOM     12  H2  ATP d   1      11.726  33.466  33.611  0.00  0.00     0.079 H 
BRANCH  10  13
ATOM     13  O5  ATP d   1      11.558  33.095  31.575  0.00  0.00    -0.287 OA
BRANCH  13  14
ATOM     14  PA  ATP d   1      12.854  32.251  31.152  0.00  0.00     0.417 P 
ATOM     15  O1A ATP d   1      14.040  33.146  31.133  0.00  0.00    -0.624 OA
ATOM     16  O2A ATP d   1      12.520  31.490  29.924  0.00  0.00    -0.624 OA
BRANCH  14  17
ATOM     17  O3A ATP d   1      12.987  31.247  32.411  0.00  0.00    -0.180 OA
BRANCH  17  18
ATOM     18  PB  ATP d   1      12.064  30.085  33.044  0.00  0.00     0.428 P 
ATOM     19  O1B ATP d   1      10.683  30.287  32.535  0.00  0.00    -0.624 OA
ATOM     20  O2B ATP d   1      12.710  28.796  32.803  0.00  0.00    -0.624 OA
BRANCH  18  21
ATOM     21  O3B ATP d   1      12.090  30.359  34.636  0.00  0.00    -0.173 OA
BRANCH  21  22
ATOM     22  PG  ATP d   1      12.402  29.424  35.975  0.00  0.00     0.431 P 
ATOM     23  O1G ATP d   1      12.183  28.013  35.545  0.00  0.00    -0.616 OA
ATOM     24  O2G ATP d   1      13.820  29.727  36.340  0.00  0.00    -0.616 OA
ATOM     25  O3G ATP d   1      11.416  29.869  37.006  0.00  0.00    -0.616 OA
ENDBRANCH  21  22
ENDBRANCH  18  21
ENDBRANCH  17  18
ENDBRANCH  14  17
ENDBRANCH  13  14
ENDBRANCH  10  13
ENDBRANCH   1  10
BRANCH   3  26
ATOM     26  O3  ATP d   1       9.127  35.814  30.816  0.00  0.00    -0.390 OA
ATOM     27  H5  ATP d   1       9.151  36.480  30.139  0.00  0.00     0.210 HD
ENDBRANCH   3  26
BRANCH   5  28
ATOM     28  N9  ATP d   1      10.425  37.819  34.723  0.00  0.00    -0.294 N 
ATOM     29  C8  ATP d   1      11.744  38.151  34.982  0.00  0.00     0.071 A 
ATOM     30  N7  ATP d   1      11.769  39.052  35.997  0.00  0.00    -0.236 NA
ATOM     31  H9  ATP d   1      12.614  37.756  34.460  0.00  0.00     0.144 H 
ATOM     32  C5  ATP d   1      10.507  39.223  36.304  0.00  0.00     0.149 A 
ATOM     33  C6  ATP d   1      10.105  40.087  37.301  0.00  0.00     0.155 A 
ATOM     34  C4  ATP d   1       9.667  38.496  35.563  0.00  0.00     0.167 A 
ATOM     35  N6  ATP d   1      10.979  40.798  38.007  0.00  0.00    -0.382 N 
ATOM     36  N1  ATP d   1       8.758  40.184  37.527  0.00  0.00    -0.222 NA
ATOM     37  H10 ATP d   1      10.648  41.435  38.745  0.00  0.00     0.157 HD
ATOM     38  H11 ATP d   1      11.987  40.712  37.816  0.00  0.00     0.157 HD
ATOM     39  C2  ATP d   1       7.868  39.443  36.781  0.00  0.00     0.091 A 
ATOM     40  N3  ATP d   1       8.315  38.598  35.798  0.00  0.00    -0.222 NA
ATOM     41  H12 ATP d   1       6.805  39.529  36.973  0.00  0.00     0.146 H 
ENDBRANCH   5  28
BRANCH   4  42
ATOM     42  O2  ATP d   1       9.720  38.216  31.643  0.00  0.00    -0.388 OA
ATOM     43  H7  ATP d   1       8.804  37.970  31.595  0.00  0.00     0.210 HD
ENDBRANCH   4  42
TORSDOF 10
