REMARK  17 active torsions:
REMARK  status: ('A' for Active; 'I' for Inactive)
REMARK    1  A    between atoms: O1_7  and  C1_1 
REMARK    2  A    between atoms: C2_2  and  O2_8 
REMARK    3  A    between atoms: C3_3  and  O3_9 
REMARK    4  A    between atoms: C4_4  and  O4_10 
REMARK    5  A    between atoms: C5_5  and  C6_6 
REMARK    6  A    between atoms: C2_13  and  O1_7 
REMARK    7  A    between atoms: C1_12  and  O1_18 
REMARK    8  A    between atoms: C3_14  and  O3_19 
REMARK    9  A    between atoms: C4_15  and  O4_20 
REMARK   10  A    between atoms: C5_16  and  C6_17 
REMARK   11  A    between atoms: C6_17  and  O6_22 
REMARK   12  A    between atoms: O1_18  and  C4'_26 
REMARK   13  A    between atoms: C1'_23  and  O1'_29 
REMARK   14  A    between atoms: C2'_24  and  O2'_30 
REMARK   15  A    between atoms: C3'_25  and  O3'_31 
REMARK   16  A    between atoms: C5'_27  and  C6'_28 
REMARK   17  A    between atoms: C6'_28  and  O6'_33 
ROOT
ATOM      1  C1  NON d   1      82.776  42.181  30.735  0.00  0.00     0.159 C 
ATOM      2  C2  NON d   1      82.596  41.040  31.666  0.00  0.00     0.116 C 
ATOM      3  C3  NON d   1      81.200  40.383  31.213  0.00  0.00     0.092 C 
ATOM      4  C4  NON d   1      80.082  41.430  31.342  0.00  0.00     0.090 C 
ATOM      5  C5  NON d   1      80.474  42.612  30.408  0.00  0.00     0.089 C 
ATOM      6  O5  NON d   1      81.737  43.150  30.826  0.00  0.00    -0.348 OA
ATOM      7  H12 NON d   1      82.845  41.815  29.700  0.00  0.00     0.133 H 
ATOM      8  H13 NON d   1      82.576  41.347  32.722  0.00  0.00     0.095 H 
ATOM      9  H14 NON d   1      81.266  40.041  30.169  0.00  0.00     0.091 H 
ATOM     10  H15 NON d   1      79.124  40.990  31.029  0.00  0.00     0.091 H 
ATOM     11  H16 NON d   1      80.549  42.237  29.377  0.00  0.00     0.090 H 
ENDROOT
BRANCH   1  12
ATOM     12  O1  NON d   1      84.033  42.822  31.155  0.00  0.00    -0.348 OA
BRANCH  12  13
ATOM     13  C4' NON d   1      84.649  43.844  30.251  0.00  0.00     0.096 C 
ATOM     14  C5' NON d   1      86.159  43.544  30.268  0.00  0.00     0.089 C 
ATOM     15  O5' NON d   1      86.861  44.577  29.506  0.00  0.00    -0.349 OA
ATOM     16  H26 NON d   1      86.512  43.527  31.310  0.00  0.00     0.090 H 
ATOM     17  C1' NON d   1      86.653  45.939  30.040  0.00  0.00     0.156 C 
ATOM     18  C2' NON d   1      85.164  46.305  29.911  0.00  0.00     0.110 C 
ATOM     19  H22 NON d   1      86.964  45.981  31.094  0.00  0.00     0.133 H 
ATOM     20  C3' NON d   1      84.353  45.268  30.737  0.00  0.00     0.092 C 
ATOM     21  H23 NON d   1      84.867  46.265  28.853  0.00  0.00     0.094 H 
ATOM     22  H24 NON d   1      84.648  45.342  31.794  0.00  0.00     0.091 H 
ATOM     23  H25 NON d   1      84.255  43.730  29.230  0.00  0.00     0.091 H 
BRANCH  14  24
ATOM     24  C6' NON d   1      86.500  42.221  29.584  0.00  0.00     0.043 C 
ATOM     25  H27 NON d   1      86.568  42.380  28.498  0.00  0.00     0.078 H 
ATOM     26  H28 NON d   1      85.709  41.487  29.798  0.00  0.00     0.078 H 
BRANCH  24  27
ATOM     27  O6' NON d   1      87.756  41.721  30.070  0.00  0.00    -0.398 OA
ATOM     28  H32 NON d   1      87.698  41.581  31.008  0.00  0.00     0.209 HD
ENDBRANCH  24  27
ENDBRANCH  14  24
BRANCH  17  29
ATOM     29  O1' NON d   1      87.394  46.846  29.286  0.00  0.00    -0.369 OA
ATOM     30  H29 NON d   1      87.262  47.722  29.628  0.00  0.00     0.212 HD
ENDBRANCH  17  29
BRANCH  18  31
ATOM     31  O2' NON d   1      84.888  47.597  30.429  0.00  0.00    -0.388 OA
ATOM     32  H30 NON d   1      85.146  47.632  31.343  0.00  0.00     0.210 HD
ENDBRANCH  18  31
BRANCH  20  33
ATOM     33  O3' NON d   1      82.984  45.580  30.626  0.00  0.00    -0.390 OA
ATOM     34  H31 NON d   1      82.478  44.972  31.152  0.00  0.00     0.210 HD
ENDBRANCH  20  33
ENDBRANCH  12  13
ENDBRANCH   1  12
BRANCH   2  35
ATOM     35  O1  NON d   1      83.699  40.163  31.396  0.00  0.00    -0.346 OA
BRANCH  35  36
ATOM     36  C1  NON d   1      84.058  39.052  32.198  0.00  0.00     0.159 C 
ATOM     37  O5  NON d   1      84.670  39.639  33.412  0.00  0.00    -0.351 OA
ATOM     38  C5  NON d   1      85.992  40.370  33.151  0.00  0.00     0.065 C 
ATOM     39  C4  NON d   1      87.035  39.422  32.501  0.00  0.00     0.087 C 
ATOM     40  H5  NON d   1      85.811  41.205  32.458  0.00  0.00     0.086 H 
ATOM     41  C3  NON d   1      86.494  38.867  31.137  0.00  0.00     0.092 C 
ATOM     42  H4  NON d   1      87.964  39.981  32.318  0.00  0.00     0.091 H 
ATOM     43  C2  NON d   1      85.058  38.261  31.319  0.00  0.00     0.110 C 
ATOM     44  H3  NON d   1      86.458  39.686  30.404  0.00  0.00     0.091 H 
ATOM     45  H2  NON d   1      85.275  37.380  31.941  0.00  0.00     0.094 H 
ATOM     46  H1  NON d   1      83.193  38.426  32.464  0.00  0.00     0.133 H 
BRANCH  38  47
ATOM     47  C6  NON d   1      86.483  40.954  34.536  0.00  0.00    -0.050 C 
ATOM     48  H6  NON d   1      85.708  41.616  34.950  0.00  0.00     0.031 H 
ATOM     49  H7  NON d   1      87.411  41.525  34.385  0.00  0.00     0.031 H 
ATOM     50  H8  NON d   1      86.671  40.127  35.237  0.00  0.00     0.031 H 
ENDBRANCH  38  47
BRANCH  39  51
ATOM     51  O4  NON d   1      87.305  38.343  33.382  0.00  0.00    -0.390 OA
ATOM     52  H11 NON d   1      87.632  38.683  34.206  0.00  0.00     0.210 HD
ENDBRANCH  39  51
BRANCH  41  53
ATOM     53  O3  NON d   1      87.346  37.835  30.659  0.00  0.00    -0.390 OA
ATOM     54  H10 NON d   1      87.366  37.125  31.290  0.00  0.00     0.210 HD
ENDBRANCH  41  53
BRANCH  43  55
ATOM     55  O2  NON d   1      84.408  37.672  30.166  0.00  0.00    -0.388 OA
ATOM     56  H9  NON d   1      84.022  38.359  29.636  0.00  0.00     0.210 HD
ENDBRANCH  43  55
ENDBRANCH  35  36
ENDBRANCH   2  35
BRANCH   5  57
ATOM     57  C6  NON d   1      79.491  43.734  30.452  0.00  0.00     0.043 C 
ATOM     58  H17 NON d   1      79.492  44.206  31.445  0.00  0.00     0.078 H 
ATOM     59  H18 NON d   1      78.480  43.367  30.221  0.00  0.00     0.078 H 
BRANCH  57  60
ATOM     60  O6  NON d   1      79.924  44.668  29.454  0.00  0.00    -0.398 OA
ATOM     61  H21 NON d   1      79.330  45.409  29.437  0.00  0.00     0.209 HD
ENDBRANCH  57  60
ENDBRANCH   5  57
BRANCH   3  62
ATOM     62  O3  NON d   1      80.929  39.247  32.089  0.00  0.00    -0.390 OA
ATOM     63  H19 NON d   1      80.106  38.844  31.837  0.00  0.00     0.210 HD
ENDBRANCH   3  62
BRANCH   4  64
ATOM     64  O4  NON d   1      79.959  41.939  32.669  0.00  0.00    -0.390 OA
ATOM     65  H20 NON d   1      79.761  41.225  33.264  0.00  0.00     0.210 HD
ENDBRANCH   4  64
TORSDOF 17
