REMARK  12 active torsions:
REMARK  status: ('A' for Active; 'I' for Inactive)
REMARK    1  A    between atoms: C1_1  and  O1_7 
REMARK    2  A    between atoms: C2_2  and  O2_8 
REMARK    3  A    between atoms: C3_3  and  O3_9 
REMARK    4  A    between atoms: C4_4  and  O4_10 
REMARK    5  A    between atoms: C5_5  and  C6_6 
REMARK    6  A    between atoms: C6_6  and  O6_12 
REMARK    7  A    between atoms: O1_7  and  C4'_16 
REMARK    8  A    between atoms: C1'_13  and  O1'_19 
REMARK    9  A    between atoms: C2'_14  and  O2'_20 
REMARK   10  A    between atoms: C3'_15  and  O3'_21 
REMARK   11  A    between atoms: C5'_17  and  C6'_18 
REMARK   12  A    between atoms: C6'_18  and  O6'_23 
ROOT
ATOM      1  O1  NON d   1      84.791  43.414  30.971  0.00  0.00    -0.348 OA
ENDROOT
BRANCH   1   2
ATOM      2  C1  NON d   1      83.589  42.707  30.594  0.00  0.00     0.159 C 
ATOM      3  O5  NON d   1      82.506  43.649  30.634  0.00  0.00    -0.348 OA
ATOM      4  C5  NON d   1      81.242  43.076  30.226  0.00  0.00     0.089 C 
ATOM      5  C4  NON d   1      80.880  41.904  31.144  0.00  0.00     0.090 C 
ATOM      6  H5  NON d   1      81.317  42.706  29.193  0.00  0.00     0.090 H 
ATOM      7  C3  NON d   1      81.999  40.849  31.088  0.00  0.00     0.092 C 
ATOM      8  H4  NON d   1      79.940  41.440  30.810  0.00  0.00     0.091 H 
ATOM      9  C2  NON d   1      83.347  41.545  31.535  0.00  0.00     0.110 C 
ATOM     10  H3  NON d   1      82.097  40.483  30.055  0.00  0.00     0.091 H 
ATOM     11  H2  NON d   1      83.242  41.924  32.562  0.00  0.00     0.094 H 
ATOM     12  H1  NON d   1      83.696  42.318  29.571  0.00  0.00     0.133 H 
BRANCH   4  13
ATOM     13  C6  NON d   1      80.206  44.198  30.287  0.00  0.00     0.043 C 
ATOM     14  H6  NON d   1      80.289  44.735  31.244  0.00  0.00     0.078 H 
ATOM     15  H7  NON d   1      79.193  43.781  30.187  0.00  0.00     0.078 H 
BRANCH  13  16
ATOM     16  O6  NON d   1      80.478  45.092  29.198  0.00  0.00    -0.398 OA
ATOM     17  H11 NON d   1      79.848  45.803  29.209  0.00  0.00     0.209 HD
ENDBRANCH  13  16
ENDBRANCH   4  13
BRANCH   5  18
ATOM     18  O4  NON d   1      80.698  42.452  32.443  0.00  0.00    -0.390 OA
ATOM     19  H10 NON d   1      80.471  41.757  33.050  0.00  0.00     0.210 HD
ENDBRANCH   5  18
BRANCH   7  20
ATOM     20  O3  NON d   1      81.729  39.741  31.944  0.00  0.00    -0.390 OA
ATOM     21  H9  NON d   1      80.919  39.324  31.674  0.00  0.00     0.210 HD
ENDBRANCH   7  20
BRANCH   9  22
ATOM     22  O2  NON d   1      84.443  40.597  31.498  0.00  0.00    -0.388 OA
ATOM     23  H8  NON d   1      85.246  41.033  31.757  0.00  0.00     0.210 HD
ENDBRANCH   9  22
ENDBRANCH   1   2
BRANCH   1  24
ATOM     24  C4' NON d   1      85.341  44.387  29.998  0.00  0.00     0.096 C 
ATOM     25  C5' NON d   1      86.855  44.132  29.962  0.00  0.00     0.089 C 
ATOM     26  O5' NON d   1      87.456  45.139  29.063  0.00  0.00    -0.349 OA
ATOM     27  H16 NON d   1      87.272  44.222  30.976  0.00  0.00     0.090 H 
ATOM     28  C1' NON d   1      87.242  46.517  29.512  0.00  0.00     0.156 C 
ATOM     29  C2' NON d   1      85.747  46.832  29.440  0.00  0.00     0.110 C 
ATOM     30  H12 NON d   1      87.603  46.635  30.544  0.00  0.00     0.133 H 
ATOM     31  C3' NON d   1      85.023  45.840  30.392  0.00  0.00     0.092 C 
ATOM     32  H13 NON d   1      85.393  46.700  28.407  0.00  0.00     0.094 H 
ATOM     33  H14 NON d   1      85.378  46.006  31.420  0.00  0.00     0.091 H 
ATOM     34  H15 NON d   1      84.911  44.195  29.004  0.00  0.00     0.091 H 
BRANCH  25  35
ATOM     35  C6' NON d   1      87.180  42.738  29.386  0.00  0.00     0.043 C 
ATOM     36  H17 NON d   1      86.837  42.690  28.342  0.00  0.00     0.078 H 
ATOM     37  H18 NON d   1      86.659  41.972  29.979  0.00  0.00     0.078 H 
BRANCH  35  38
ATOM     38  O6' NON d   1      88.579  42.490  29.429  0.00  0.00    -0.398 OA
ATOM     39  H22 NON d   1      89.032  43.148  28.915  0.00  0.00     0.209 HD
ENDBRANCH  35  38
ENDBRANCH  25  35
BRANCH  28  40
ATOM     40  O1' NON d   1      87.929  47.393  28.663  0.00  0.00    -0.369 OA
ATOM     41  H19 NON d   1      88.857  47.191  28.686  0.00  0.00     0.212 HD
ENDBRANCH  28  40
BRANCH  29  42
ATOM     42  O2' NON d   1      85.450  48.146  29.872  0.00  0.00    -0.388 OA
ATOM     43  H20 NON d   1      84.511  48.284  29.839  0.00  0.00     0.210 HD
ENDBRANCH  29  42
BRANCH  31  44
ATOM     44  O3' NON d   1      83.615  46.109  30.342  0.00  0.00    -0.390 OA
ATOM     45  H21 NON d   1      83.162  45.530  30.944  0.00  0.00     0.210 HD
ENDBRANCH  31  44
ENDBRANCH   1  24
TORSDOF 12
