REMARK  9 active torsions:
REMARK  status: ('A' for Active; 'I' for Inactive)
REMARK    1  A    between atoms: C1_2  and  C2_4 
REMARK    2  A    between atoms: C2_4  and  O2_5 
REMARK    3  A    between atoms: C2_4  and  C3_6 
REMARK    4  A    between atoms: C3_6  and  O3_7 
REMARK    5  A    between atoms: C3_6  and  C4_8 
REMARK    6  A    between atoms: C4_8  and  O4_9 
REMARK    7  A    between atoms: C4_8  and  C5_10 
REMARK    8  A    between atoms: C5_10  and  O5_11 
REMARK    9  A    between atoms: O5_11  and  P_12 
ROOT
ATOM      1  C4  PA5 d   1      44.598  34.355  49.442  0.00  0.00     0.084 C 
ATOM      2  H5  PA5 d   1      45.015  35.139  48.793  0.00  0.00     0.090 H 
ENDROOT
BRANCH   1   3
ATOM      3  C3  PA5 d   1      44.495  33.069  48.628  0.00  0.00     0.096 C 
ATOM      4  H3  PA5 d   1      43.917  32.318  49.187  0.00  0.00     0.091 H 
BRANCH   3   5
ATOM      5  C2  PA5 d   1      45.844  32.505  48.236  0.00  0.00     0.146 C 
ATOM      6  H1  PA5 d   1      46.587  32.584  49.043  0.00  0.00     0.104 H 
BRANCH   5   7
ATOM      7  C1  PA5 d   1      45.652  31.104  47.777  0.00  0.00     0.205 C 
ATOM      8  O1A PA5 d   1      45.836  30.764  46.618  0.00  0.00    -0.646 OA
ATOM      9  O1  PA5 d   1      45.283  30.286  48.585  0.00  0.00    -0.646 OA
ENDBRANCH   5   7
BRANCH   5  10
ATOM     10  O2  PA5 d   1      46.192  33.227  47.090  0.00  0.00    -0.382 OA
ATOM     11  H2  PA5 d   1      45.491  33.163  46.452  0.00  0.00     0.210 HD
ENDBRANCH   5  10
ENDBRANCH   3   5
BRANCH   3  12
ATOM     12  O3  PA5 d   1      43.862  33.405  47.405  0.00  0.00    -0.390 OA
ATOM     13  H4  PA5 d   1      44.388  34.047  46.943  0.00  0.00     0.210 HD
ENDBRANCH   3  12
ENDBRANCH   1   3
BRANCH   1  14
ATOM     14  O4  PA5 d   1      45.464  34.168  50.549  0.00  0.00    -0.391 OA
ATOM     15  H6  PA5 d   1      45.123  33.476  51.103  0.00  0.00     0.210 HD
ENDBRANCH   1  14
BRANCH   1  16
ATOM     16  C5  PA5 d   1      43.238  34.827  49.957  0.00  0.00     0.059 C 
ATOM     17  H7  PA5 d   1      42.556  34.971  49.106  0.00  0.00     0.079 H 
ATOM     18  H8  PA5 d   1      43.362  35.780  50.492  0.00  0.00     0.079 H 
BRANCH  16  19
ATOM     19  O5  PA5 d   1      42.681  33.848  50.852  0.00  0.00    -0.280 OA
BRANCH  19  20
ATOM     20  P   PA5 d   1      41.192  34.094  51.423  0.00  0.00     0.422 P 
ATOM     21  O1P PA5 d   1      40.998  33.105  52.516  0.00  0.00    -0.617 OA
ATOM     22  O2P PA5 d   1      41.171  35.507  51.968  0.00  0.00    -0.617 OA
ATOM     23  O3P PA5 d   1      40.345  33.696  50.239  0.00  0.00    -0.617 OA
ENDBRANCH  19  20
ENDBRANCH  16  19
ENDBRANCH   1  16
TORSDOF 9
