REMARK  12 active torsions:
REMARK  status: ('A' for Active; 'I' for Inactive)
REMARK    1  A    between atoms: C5_3  and  N16_13 
REMARK    2  A    between atoms: C3_5  and  N7_12 
REMARK    3  A    between atoms: N16_13  and  C17_6 
REMARK    4  A    between atoms: C20_9  and  O23_15 
REMARK    5  A    between atoms: N7_12  and  C8_20 
REMARK    6  A    between atoms: O23_15  and  C24_16 
REMARK    7  A    between atoms: C24_16  and  C25_25 
REMARK    8  A    between atoms: C25_25  and  C26_26 
REMARK    9  A    between atoms: C25_25  and  O30_30 
REMARK   10  A    between atoms: C26_26  and  N27_27 
REMARK   11  A    between atoms: N27_27  and  C28_28 
REMARK   12  A    between atoms: N27_27  and  C29_29 
ROOT
ATOM      1  C22 FAP d   1       3.795  28.597   6.010  0.00  0.00    -0.055 A 
ATOM      2  C17 FAP d   1       3.412  29.238   7.219  0.00  0.00     0.033 A 
ATOM      3  C18 FAP d   1       3.648  28.575   8.468  0.00  0.00    -0.055 A 
ATOM      4  C19 FAP d   1       4.248  27.299   8.501  0.00  0.00    -0.049 A 
ATOM      5  C20 FAP d   1       4.628  26.656   7.293  0.00  0.00     0.069 A 
ATOM      6  C21 FAP d   1       4.399  27.314   6.042  0.00  0.00    -0.049 A 
ATOM      7  H1  FAP d   1       3.625  29.090   5.060  0.00  0.00     0.087 H 
ATOM      8  H4  FAP d   1       3.363  29.059   9.395  0.00  0.00     0.087 H 
ATOM      9  H5  FAP d   1       4.420  26.807   9.452  0.00  0.00     0.087 H 
ATOM     10  H8  FAP d   1       4.688  26.830   5.116  0.00  0.00     0.087 H 
ENDROOT
BRANCH   2  11
ATOM     11  N16 FAP d   1       2.794  30.557   7.126  0.00  0.00    -0.341 N 
ATOM     12  H7  FAP d   1       3.323  31.191   6.510  0.00  0.00     0.167 HD
BRANCH  11  13
ATOM     13  C5  FAP d   1       1.614  31.197   7.689  0.00  0.00     0.133 A 
ATOM     14  C4  FAP d   1       0.713  30.517   8.579  0.00  0.00     0.006 A 
ATOM     15  C3  FAP d   1      -0.401  31.277   9.066  0.00  0.00     0.133 A 
ATOM     16  H3  FAP d   1       0.868  29.483   8.867  0.00  0.00     0.095 H 
ATOM     17  N2  FAP d   1      -0.569  32.563   8.689  0.00  0.00    -0.224 NA
ATOM     18  C1  FAP d   1       0.326  33.100   7.856  0.00  0.00     0.091 A 
ATOM     19  N6  FAP d   1       1.396  32.484   7.345  0.00  0.00    -0.224 NA
ATOM     20  H2  FAP d   1       0.170  34.133   7.567  0.00  0.00     0.146 H 
BRANCH  15  21
ATOM     21  N7  FAP d   1      -1.398  30.732   9.980  0.00  0.00    -0.336 N 
ATOM     22  H6  FAP d   1      -2.284  31.255   9.942  0.00  0.00     0.168 HD
BRANCH  21  23
ATOM     23  C8  FAP d   1      -1.454  29.617  10.947  0.00  0.00     0.111 A 
ATOM     24  C9  FAP d   1      -2.731  29.015  11.177  0.00  0.00     0.146 A 
ATOM     25  C10 FAP d   1      -2.864  27.937  12.091  0.00  0.00    -0.043 A 
ATOM     26  F14 FAP d   1      -3.849  29.459  10.521  0.00  0.00    -0.204 F 
ATOM     27  C11 FAP d   1      -1.734  27.448  12.792  0.00  0.00    -0.077 A 
ATOM     28  H12 FAP d   1      -3.836  27.485  12.254  0.00  0.00     0.088 H 
ATOM     29  C12 FAP d   1      -0.462  28.028  12.584  0.00  0.00    -0.043 A 
ATOM     30  H11 FAP d   1      -1.845  26.626  13.490  0.00  0.00     0.083 H 
ATOM     31  C13 FAP d   1      -0.309  29.105  11.674  0.00  0.00     0.146 A 
ATOM     32  H13 FAP d   1       0.399  27.648  13.122  0.00  0.00     0.088 H 
ATOM     33  F15 FAP d   1       0.945  29.621  11.516  0.00  0.00    -0.204 F 
ENDBRANCH  21  23
ENDBRANCH  15  21
ENDBRANCH  11  13
ENDBRANCH   2  11
BRANCH   5  34
ATOM     34  O23 FAP d   1       5.207  25.398   7.440  0.00  0.00    -0.349 OA
BRANCH  34  35
ATOM     35  C24 FAP d   1       4.464  24.159   7.617  0.00  0.00     0.051 C 
ATOM     36  H9  FAP d   1       3.762  24.042   6.778  0.00  0.00     0.079 H 
ATOM     37  H10 FAP d   1       3.901  24.213   8.561  0.00  0.00     0.079 H 
BRANCH  35  38
ATOM     38  C25 FAP d   1       5.396  22.935   7.662  0.00  0.00     0.080 C 
ATOM     39  H14 FAP d   1       6.049  23.068   6.787  0.00  0.00     0.088 H 
BRANCH  38  40
ATOM     40  C26 FAP d   1       4.767  21.537   7.444  0.00  0.00     0.108 C 
ATOM     41  H15 FAP d   1       4.479  21.466   6.385  0.00  0.00     0.080 H 
ATOM     42  H16 FAP d   1       3.867  21.478   8.073  0.00  0.00     0.080 H 
BRANCH  40  43
ATOM     43  N27 FAP d   1       5.617  20.341   7.761  0.00  0.00    -0.076 N 
ATOM     44  H17 FAP d   1       6.254  20.622   8.490  0.00  0.00     0.279 HD
BRANCH  43  45
ATOM     45  C28 FAP d   1       6.442  19.881   6.612  0.00  0.00     0.066 C 
ATOM     46  H18 FAP d   1       7.036  19.006   6.914  0.00  0.00     0.068 H 
ATOM     47  H19 FAP d   1       7.116  20.691   6.297  0.00  0.00     0.068 H 
ATOM     48  H20 FAP d   1       5.784  19.606   5.775  0.00  0.00     0.068 H 
ENDBRANCH  43  45
BRANCH  43  49
ATOM     49  C29 FAP d   1       4.805  19.205   8.291  0.00  0.00     0.066 C 
ATOM     50  H21 FAP d   1       4.198  19.553   9.140  0.00  0.00     0.068 H 
ATOM     51  H22 FAP d   1       5.476  18.400   8.625  0.00  0.00     0.068 H 
ATOM     52  H23 FAP d   1       4.143  18.826   7.498  0.00  0.00     0.068 H 
ENDBRANCH  43  49
ENDBRANCH  40  43
ENDBRANCH  38  40
BRANCH  38  53
ATOM     53  O30 FAP d   1       6.251  22.972   8.754  0.00  0.00    -0.392 OA
ATOM     54  H24 FAP d   1       6.609  23.847   8.845  0.00  0.00     0.210 HD
ENDBRANCH  38  53
ENDBRANCH  35  38
ENDBRANCH  34  35
ENDBRANCH   5  34
TORSDOF 12
