REMARK  12 active torsions:
REMARK  status: ('A' for Active; 'I' for Inactive)
REMARK    1  A    between atoms: O21_43  and  C22_24 
REMARK    2  A    between atoms: C22_24  and  C23_48 
REMARK    3  A    between atoms: C6_27  and  N14_45 
REMARK    4  A    between atoms: C4_28  and  N7_44 
REMARK    5  A    between atoms: N7_44  and  C8_34 
REMARK    6  A    between atoms: N14_45  and  C15_39 
REMARK    7  A    between atoms: C18_40  and  O21_43 
REMARK    8  A    between atoms: C23_48  and  C24_49 
REMARK    9  A    between atoms: C23_48  and  O28_53 
REMARK   10  A    between atoms: C24_49  and  N25_50 
REMARK   11  A    between atoms: N25_50  and  C26_51 
REMARK   12  A    between atoms: N25_50  and  C27_52 
ROOT
ATOM      1  H7  FAL d   1       3.113  24.839   9.013  0.00  0.00     0.087 H 
ATOM      2  H8  FAL d   1       2.324  27.148   8.570  0.00  0.00     0.087 H 
ATOM      3  H10 FAL d   1       5.445  24.930   5.354  0.00  0.00     0.087 H 
ATOM      4  H11 FAL d   1       4.650  27.259   4.905  0.00  0.00     0.087 H 
ATOM      5  C17 FAL d   1       3.446  25.362   8.124  0.00  0.00    -0.049 A 
ATOM      6  C16 FAL d   1       2.997  26.668   7.869  0.00  0.00    -0.054 A 
ATOM      7  C15 FAL d   1       3.414  27.373   6.698  0.00  0.00     0.049 A 
ATOM      8  C18 FAL d   1       4.340  24.722   7.215  0.00  0.00     0.069 A 
ATOM      9  C19 FAL d   1       4.768  25.413   6.050  0.00  0.00    -0.049 A 
ATOM     10  C20 FAL d   1       4.313  26.735   5.792  0.00  0.00    -0.054 A 
ENDROOT
BRANCH   7  11
ATOM     11  N14 FAL d   1       2.882  28.726   6.518  0.00  0.00    -0.188 N 
ATOM     12  H13 FAL d   1       3.469  29.314   5.910  0.00  0.00     0.184 HD
BRANCH  11  13
ATOM     13  C6  FAL d   1       1.712  29.410   7.010  0.00  0.00     0.728 A 
ATOM     14  N1  FAL d   1       1.545  30.683   6.643  0.00  0.00    -0.075 NA
ATOM     15  C2  FAL d   1       0.446  31.334   7.119  0.00  0.00     0.025 A 
ATOM     16  H3  FAL d   1       0.282  32.367   6.835  0.00  0.00     0.115 H 
ATOM     17  C3  FAL d   1      -0.501  30.690   7.987  0.00  0.00    -0.021 A 
ATOM     18  H4  FAL d   1      -1.375  31.200   8.376  0.00  0.00     0.091 H 
ATOM     19  C4  FAL d   1      -0.205  29.331   8.299  0.00  0.00     0.148 A 
ATOM     20  N5  FAL d   1       0.888  28.742   7.809  0.00  0.00    -0.045 NA
BRANCH  19  21
ATOM     21  N7  FAL d   1      -1.078  28.569   9.156  0.00  0.00    -0.339 N 
ATOM     22  H12 FAL d   1      -1.895  29.088   9.507  0.00  0.00     0.167 HD
BRANCH  21  23
ATOM     23  C8  FAL d   1      -0.996  27.189   9.607  0.00  0.00     0.057 A 
ATOM     24  C9  FAL d   1      -1.259  26.864  10.966  0.00  0.00     0.060 A 
ATOM     25  C10 FAL d   1      -1.177  25.516  11.407  0.00  0.00    -0.058 A 
ATOM     26 CL29 FAL d   1      -1.682  28.100  12.132  0.00  0.00    -0.082 Cl
ATOM     27  H6  FAL d   1      -1.383  25.272  12.443  0.00  0.00     0.086 H 
ATOM     28  C11 FAL d   1      -0.826  24.491  10.495  0.00  0.00    -0.060 A 
ATOM     29  H5  FAL d   1      -0.761  23.462  10.830  0.00  0.00     0.086 H 
ATOM     30  C12 FAL d   1      -0.561  24.817   9.148  0.00  0.00     0.036 A 
ATOM     31  C13 FAL d   1      -0.646  26.145   8.712  0.00  0.00    -0.035 A 
ATOM     32 CL30 FAL d   1      -0.110  23.585   7.998  0.00  0.00    -0.084 Cl
ATOM     33  H9  FAL d   1      -0.441  26.379   7.674  0.00  0.00     0.089 H 
ENDBRANCH  21  23
ENDBRANCH  19  21
ENDBRANCH  11  13
ENDBRANCH   7  11
BRANCH   8  34
ATOM     34  O21 FAL d   1       4.775  23.418   7.473  0.00  0.00    -0.349 OA
BRANCH  34  35
ATOM     35  C22 FAL d   1       3.869  22.360   7.918  0.00  0.00     0.051 C 
ATOM     36  H1  FAL d   1       3.146  22.154   7.115  0.00  0.00     0.079 H 
ATOM     37  H2  FAL d   1       3.333  22.709   8.813  0.00  0.00     0.079 H 
BRANCH  35  38
ATOM     38  C23 FAL d   1       4.606  21.055   8.263  0.00  0.00     0.080 C 
ATOM     39  H14 FAL d   1       3.878  20.372   8.725  0.00  0.00     0.088 H 
BRANCH  38  40
ATOM     40  C24 FAL d   1       5.848  21.133   9.242  0.00  0.00     0.108 C 
ATOM     41  H15 FAL d   1       6.450  22.002   8.936  0.00  0.00     0.080 H 
ATOM     42  H16 FAL d   1       6.434  20.213   9.100  0.00  0.00     0.080 H 
BRANCH  40  43
ATOM     43  N25 FAL d   1       5.581  21.272  10.738  0.00  0.00    -0.076 N 
ATOM     44  H17 FAL d   1       5.386  22.247  10.902  0.00  0.00     0.279 HD
BRANCH  43  45
ATOM     45  C26 FAL d   1       6.741  20.909  11.597  0.00  0.00     0.066 C 
ATOM     46  H18 FAL d   1       6.468  21.036  12.655  0.00  0.00     0.068 H 
ATOM     47  H19 FAL d   1       7.593  21.562  11.358  0.00  0.00     0.068 H 
ATOM     48  H20 FAL d   1       7.019  19.861  11.413  0.00  0.00     0.068 H 
ENDBRANCH  43  45
BRANCH  43  49
ATOM     49  C27 FAL d   1       4.381  20.496  11.186  0.00  0.00     0.066 C 
ATOM     50  H21 FAL d   1       3.518  20.759  10.556  0.00  0.00     0.068 H 
ATOM     51  H22 FAL d   1       4.157  20.741  12.235  0.00  0.00     0.068 H 
ATOM     52  H23 FAL d   1       4.586  19.419  11.096  0.00  0.00     0.068 H 
ENDBRANCH  43  49
ENDBRANCH  40  43
ENDBRANCH  38  40
BRANCH  38  53
ATOM     53  O28 FAL d   1       5.022  20.530   7.018  0.00  0.00    -0.392 OA
ATOM     54  H24 FAL d   1       4.277  20.483   6.431  0.00  0.00     0.210 HD
ENDBRANCH  38  53
ENDBRANCH  35  38
ENDBRANCH  34  35
ENDBRANCH   8  34
TORSDOF 12
