REMARK  12 active torsions:
REMARK  status: ('A' for Active; 'I' for Inactive)
REMARK    1  A    between atoms: O21_20  and  C22_1 
REMARK    2  A    between atoms: C22_1  and  C23_24 
REMARK    3  A    between atoms: C6_4  and  N14_22 
REMARK    4  A    between atoms: C4_5  and  N7_21 
REMARK    5  A    between atoms: N7_21  and  C8_11 
REMARK    6  A    between atoms: N14_22  and  C15_16 
REMARK    7  A    between atoms: C18_17  and  O21_20 
REMARK    8  A    between atoms: C23_24  and  C24_25 
REMARK    9  A    between atoms: C23_24  and  O28_29 
REMARK   10  A    between atoms: C24_25  and  N25_26 
REMARK   11  A    between atoms: N25_26  and  C26_27 
REMARK   12  A    between atoms: N25_26  and  C27_28 
ROOT
ATOM      1  C17 BYP d   1       7.980 -11.630   9.203  0.00  0.00    -0.049 A 
ATOM      2  C16 BYP d   1       8.533 -11.750  10.506  0.00  0.00    -0.054 A 
ATOM      3  C15 BYP d   1       9.491 -10.806  10.957  0.00  0.00     0.049 A 
ATOM      4  C18 BYP d   1       8.386 -10.557   8.336  0.00  0.00     0.069 A 
ATOM      5  C19 BYP d   1       9.349  -9.610   8.797  0.00  0.00    -0.049 A 
ATOM      6  C20 BYP d   1       9.896  -9.732  10.093  0.00  0.00    -0.054 A 
ATOM      7  H8  BYP d   1       7.247 -12.352   8.860  0.00  0.00     0.087 H 
ATOM      8  H9  BYP d   1       8.223 -12.562  11.155  0.00  0.00     0.087 H 
ATOM      9  H11 BYP d   1       9.661  -8.797   8.152  0.00  0.00     0.087 H 
ATOM     10  H12 BYP d   1      10.627  -9.010  10.439  0.00  0.00     0.087 H 
ENDROOT
BRANCH   3  11
ATOM     11  N14 BYP d   1      10.078 -10.925  12.294  0.00  0.00    -0.188 N 
ATOM     12  H14 BYP d   1       9.536 -11.539  12.919  0.00  0.00     0.184 HD
BRANCH  11  13
ATOM     13  C6  BYP d   1      11.256 -10.367  12.929  0.00  0.00     0.728 A 
ATOM     14  N1  BYP d   1      11.480 -10.726  14.204  0.00  0.00    -0.073 NA
ATOM     15  C2  BYP d   1      12.581 -10.219  14.812  0.00  0.00     0.042 A 
ATOM     16  C3  BYP d   1      13.466  -9.327  14.121  0.00  0.00     0.075 A 
ATOM     17  H3  BYP d   1      12.796 -10.493  15.839  0.00  0.00     0.118 H 
ATOM     18 BR   BYP d   1      15.019  -8.608  14.972  0.00  0.00    -0.045 Br
ATOM     19  C4  BYP d   1      13.127  -9.015  12.777  0.00  0.00     0.166 A 
ATOM     20  N5  BYP d   1      12.031  -9.539  12.225  0.00  0.00    -0.043 NA
BRANCH  19  21
ATOM     21  N7  BYP d   1      13.980  -8.105  12.026  0.00  0.00    -0.339 N 
ATOM     22  H13 BYP d   1      14.785  -7.776  12.578  0.00  0.00     0.167 HD
BRANCH  21  23
ATOM     23  C8  BYP d   1      13.966  -7.549  10.679  0.00  0.00     0.033 A 
ATOM     24  C9  BYP d   1      14.470  -6.225  10.510  0.00  0.00    -0.057 A 
ATOM     25  C10 BYP d   1      14.483  -5.615   9.226  0.00  0.00    -0.081 A 
ATOM     26  H6  BYP d   1      14.846  -5.680  11.368  0.00  0.00     0.086 H 
ATOM     27  C11 BYP d   1      13.990  -6.323   8.101  0.00  0.00    -0.083 A 
ATOM     28  H5  BYP d   1      14.870  -4.609   9.107  0.00  0.00     0.083 H 
ATOM     29  C12 BYP d   1      13.483  -7.640   8.251  0.00  0.00    -0.081 A 
ATOM     30  H4  BYP d   1      14.000  -5.857   7.122  0.00  0.00     0.083 H 
ATOM     31  C13 BYP d   1      13.469  -8.253   9.534  0.00  0.00    -0.057 A 
ATOM     32  H7  BYP d   1      13.107  -8.178   7.388  0.00  0.00     0.083 H 
ATOM     33  H10 BYP d   1      13.080  -9.259   9.647  0.00  0.00     0.086 H 
ENDBRANCH  21  23
ENDBRANCH  19  21
ENDBRANCH  11  13
ENDBRANCH   3  11
BRANCH   4  34
ATOM     34  O21 BYP d   1       7.809 -10.464   7.041  0.00  0.00    -0.349 OA
BRANCH  34  35
ATOM     35  C22 BYP d   1       8.663  -9.902   5.977  0.00  0.00     0.051 C 
ATOM     36  H1  BYP d   1       9.379 -10.665   5.636  0.00  0.00     0.079 H 
ATOM     37  H2  BYP d   1       9.212  -9.031   6.365  0.00  0.00     0.079 H 
BRANCH  35  38
ATOM     38  C23 BYP d   1       7.759  -9.463   4.786  0.00  0.00     0.080 C 
ATOM     39  H15 BYP d   1       8.364  -9.411   3.869  0.00  0.00     0.088 H 
BRANCH  38  40
ATOM     40  C24 BYP d   1       6.595 -10.498   4.581  0.00  0.00     0.108 C 
ATOM     41  H16 BYP d   1       5.817 -10.274   5.325  0.00  0.00     0.080 H 
ATOM     42  H17 BYP d   1       7.005 -11.501   4.770  0.00  0.00     0.080 H 
BRANCH  40  43
ATOM     43  N25 BYP d   1       5.932 -10.525   3.222  0.00  0.00    -0.076 N 
ATOM     44  H18 BYP d   1       5.289 -11.296   3.305  0.00  0.00     0.279 HD
BRANCH  43  45
ATOM     45  C26 BYP d   1       5.038  -9.371   2.919  0.00  0.00     0.066 C 
ATOM     46  H19 BYP d   1       4.612  -9.492   1.912  0.00  0.00     0.068 H 
ATOM     47  H20 BYP d   1       5.617  -8.437   2.962  0.00  0.00     0.068 H 
ATOM     48  H21 BYP d   1       4.225  -9.333   3.659  0.00  0.00     0.068 H 
ENDBRANCH  43  45
BRANCH  43  49
ATOM     49  C27 BYP d   1       6.798 -10.933   2.078  0.00  0.00     0.066 C 
ATOM     50  H22 BYP d   1       7.425 -11.786   2.378  0.00  0.00     0.068 H 
ATOM     51  H23 BYP d   1       7.441 -10.090   1.786  0.00  0.00     0.068 H 
ATOM     52  H24 BYP d   1       6.167 -11.225   1.226  0.00  0.00     0.068 H 
ENDBRANCH  43  49
ENDBRANCH  40  43
ENDBRANCH  38  40
BRANCH  38  53
ATOM     53  O28 BYP d   1       7.213  -8.178   5.069  0.00  0.00    -0.392 OA
ATOM     54  H25 BYP d   1       6.689  -8.225   5.860  0.00  0.00     0.210 HD
ENDBRANCH  38  53
ENDBRANCH  35  38
ENDBRANCH  34  35
ENDBRANCH   4  34
TORSDOF 12
