REMARK  4 active torsions:
REMARK  status: ('A' for Active; 'I' for Inactive)
REMARK    1  A    between atoms: C2_2  and  N2_12 
REMARK    2  A    between atoms: C6_6  and  O6_7 
REMARK    3  A    between atoms: O6_7  and  C9_8 
REMARK    4  A    between atoms: C9_8  and  C10_13 
ROOT
ATOM      1  C9  207 d   1       1.463  27.253   9.556  0.00  0.00     0.031 C 
ATOM      2  H2  207 d   1       2.517  27.502   9.747  0.00  0.00     0.075 H 
ATOM      3  H3  207 d   1       1.388  26.656   8.635  0.00  0.00     0.075 H 
ENDROOT
BRANCH   1   4
ATOM      4  O6  207 d   1       0.708  28.456   9.408  0.00  0.00    -0.332 OA
BRANCH   4   5
ATOM      5  C6  207 d   1       1.237  29.472   8.632  0.00  0.00     0.198 A 
ATOM      6  N1  207 d   1       2.331  29.313   7.849  0.00  0.00    -0.205 NA
ATOM      7  C2  207 d   1       2.818  30.354   7.121  0.00  0.00     0.126 A 
ATOM      8  C3  207 d   1       2.236  31.611   7.128  0.00  0.00    -0.011 A 
ATOM      9  C4  207 d   1       1.131  31.874   7.870  0.00  0.00     0.070 A 
ATOM     10  H1  207 d   1       2.673  32.401   6.528  0.00  0.00     0.093 H 
ATOM     11  C5  207 d   1       0.589  30.798   8.639  0.00  0.00     0.137 A 
ATOM     12  N9  207 d   1       0.331  32.902   8.104  0.00  0.00    -0.349 N 
ATOM     13  N7  207 d   1      -0.476  31.237   9.290  0.00  0.00    -0.237 NA
ATOM     14  C8  207 d   1      -0.633  32.515   8.965  0.00  0.00     0.065 A 
ATOM     15  H4  207 d   1      -1.427  33.159   9.340  0.00  0.00     0.143 H 
ATOM     16  H5  207 d   1       0.428  33.843   7.696  0.00  0.00     0.167 HD
BRANCH   7  17
ATOM     17  N2  207 d   1       3.927  30.213   6.340  0.00  0.00    -0.384 N 
ATOM     18  H6  207 d   1       4.279  31.014   5.797  0.00  0.00     0.157 HD
ATOM     19  H7  207 d   1       4.412  29.306   6.293  0.00  0.00     0.157 HD
ENDBRANCH   7  17
ENDBRANCH   4   5
ENDBRANCH   1   4
BRANCH   1  20
ATOM     20  C10 207 d   1       0.911  26.456  10.723  0.00  0.00    -0.030 C 
ATOM     21  C11 207 d   1      -0.342  25.735  10.248  0.00  0.00    -0.057 C 
ATOM     22  C12 207 d   1      -0.012  24.285   9.948  0.00  0.00    -0.050 C 
ATOM     23  H9  207 d   1      -0.720  26.221   9.336  0.00  0.00     0.034 H 
ATOM     24  H10 207 d   1      -1.111  25.780  11.034  0.00  0.00     0.034 H 
ATOM     25  C13 207 d   1       0.333  23.563  11.237  0.00  0.00    -0.106 C 
ATOM     26  H11 207 d   1       0.847  24.240   9.262  0.00  0.00     0.038 H 
ATOM     27  H12 207 d   1      -0.882  23.801   9.479  0.00  0.00     0.038 H 
ATOM     28  C14 207 d   1       1.536  24.223  11.903  0.00  0.00    -0.106 C 
ATOM     29  H13 207 d   1      -0.201  22.699  11.630  0.00  0.00     0.076 H 
ATOM     30  C15 207 d   1       2.004  25.528  11.243  0.00  0.00    -0.045 C 
ATOM     31  H14 207 d   1       2.026  23.801  12.780  0.00  0.00     0.076 H 
ATOM     32  H15 207 d   1       2.591  26.087  11.986  0.00  0.00     0.039 H 
ATOM     33  H16 207 d   1       2.648  25.260  10.393  0.00  0.00     0.039 H 
ATOM     34  H8  207 d   1       0.629  27.143  11.534  0.00  0.00     0.043 H 
ENDBRANCH   1  20
TORSDOF 4
