REMARK  11 active torsions:
REMARK  status: ('A' for Active; 'I' for Inactive)
REMARK       I    between atoms: C2_2  and  N1_3 
REMARK    1  A    between atoms: C2_2  and  C4_19 
REMARK    2  A    between atoms: C29_6  and  N2_7 
REMARK    3  A    between atoms: N2_7  and  S1_8 
REMARK    4  A    between atoms: S1_8  and  C3_9 
REMARK    5  A    between atoms: C8_12  and  C7_13 
REMARK    6  A    between atoms: C7_13  and  C27_14 
REMARK    7  A    between atoms: C7_13  and  C30_17 
REMARK    8  A    between atoms: C27_14  and  C1_15 
REMARK    9  A    between atoms: C27_14  and  C17_16 
REMARK   10  A    between atoms: C5_21  and  C9_24 
REMARK   11  A    between atoms: C9_24  and  N4_25 
ROOT
ATOM      1  O3  151 d   1      17.630  13.215  24.721  0.00  0.00    -0.266 OA
ATOM      2  C2  151 d   1      18.260  12.771  23.753  0.00  0.00     0.274 C 
ATOM      3  N1  151 d   1      17.818  11.732  22.962  0.00  0.00    -0.339 N 
ATOM      4  C26 151 d   1      18.699  10.896  22.177  0.00  0.00     0.000 C 
ATOM      5  C28 151 d   1      17.869   9.614  21.895  0.00  0.00    -0.029 C 
ATOM      6  C29 151 d   1      16.779   9.759  22.939  0.00  0.00     0.041 C 
ATOM      7  C8  151 d   1      16.456  11.270  22.947  0.00  0.00     0.045 C 
ATOM      8  H1  151 d   1      19.610  10.652  22.743  0.00  0.00     0.064 H 
ATOM      9  H2  151 d   1      18.974  11.396  21.236  0.00  0.00     0.064 H 
ATOM     10  H3  151 d   1      18.464   8.702  22.052  0.00  0.00     0.038 H 
ATOM     11  H4  151 d   1      17.457   9.612  20.875  0.00  0.00     0.038 H 
ATOM     12  H5  151 d   1      15.891   9.144  22.730  0.00  0.00     0.076 H 
ATOM     13  H10 151 d   1      15.901  11.590  23.841  0.00  0.00     0.077 H 
ENDROOT
BRANCH   2  14
ATOM     14  C4  151 d   1      19.557  13.194  23.586  0.00  0.00     0.144 A 
ATOM     15  N3  151 d   1      20.288  13.279  22.356  0.00  0.00    -0.236 NA
ATOM     16  C5  151 d   1      21.558  13.657  22.874  0.00  0.00     0.238 A 
ATOM     17  O4  151 d   1      21.620  13.797  24.246  0.00  0.00    -0.321 OA
ATOM     18  C6  151 d   1      20.371  13.465  24.690  0.00  0.00     0.049 A 
ATOM     19  H20 151 d   1      20.061  13.419  25.733  0.00  0.00     0.126 H 
BRANCH  16  20
ATOM     20  C9  151 d   1      22.726  13.916  21.986  0.00  0.00     0.136 C 
ATOM     21  H21 151 d   1      23.393  14.626  22.496  0.00  0.00     0.084 H 
ATOM     22  H22 151 d   1      22.354  14.367  21.054  0.00  0.00     0.084 H 
BRANCH  20  23
ATOM     23  N4  151 d   1      23.498  12.739  21.641  0.00  0.00    -0.066 N 
ATOM     24  C11 151 d   1      22.972  11.921  20.544  0.00  0.00     0.084 C 
ATOM     25  C13 151 d   1      23.741  12.376  19.310  0.00  0.00    -0.041 C 
ATOM     26  H24 151 d   1      21.894  12.096  20.414  0.00  0.00     0.076 H 
ATOM     27  H25 151 d   1      23.150  10.853  20.738  0.00  0.00     0.076 H 
ATOM     28  C14 151 d   1      25.129  12.409  19.918  0.00  0.00    -0.041 C 
ATOM     29  H26 151 d   1      23.417  13.367  18.960  0.00  0.00     0.035 H 
ATOM     30  H27 151 d   1      23.666  11.653  18.484  0.00  0.00     0.035 H 
ATOM     31  C12 151 d   1      24.870  13.124  21.254  0.00  0.00     0.084 C 
ATOM     32  H28 151 d   1      25.829  12.978  19.288  0.00  0.00     0.035 H 
ATOM     33  H29 151 d   1      25.521  11.394  20.077  0.00  0.00     0.035 H 
ATOM     34  H30 151 d   1      25.592  12.793  22.015  0.00  0.00     0.076 H 
ATOM     35  H31 151 d   1      24.944  14.214  21.128  0.00  0.00     0.076 H 
ATOM     36  H23 151 d   1      23.540  12.160  22.465  0.00  0.00     0.280 HD
ENDBRANCH  20  23
ENDBRANCH  16  20
ENDBRANCH   2  14
BRANCH   7  37
ATOM     37  C7  151 d   1      15.661  11.640  21.689  0.00  0.00     0.021 C 
ATOM     38  H11 151 d   1      16.279  11.354  20.825  0.00  0.00     0.054 H 
BRANCH  37  39
ATOM     39  C27 151 d   1      15.298  13.144  21.502  0.00  0.00    -0.050 C 
ATOM     40  H12 151 d   1      16.218  13.747  21.471  0.00  0.00     0.040 H 
BRANCH  39  41
ATOM     41  C1  151 d   1      14.465  13.568  22.717  0.00  0.00    -0.072 C 
ATOM     42  H13 151 d   1      14.189  14.628  22.620  0.00  0.00     0.028 H 
ATOM     43  H14 151 d   1      15.055  13.425  23.634  0.00  0.00     0.028 H 
ATOM     44  H15 151 d   1      13.553  12.955  22.768  0.00  0.00     0.028 H 
ENDBRANCH  39  41
BRANCH  39  45
ATOM     45  C17 151 d   1      14.550  13.321  20.168  0.00  0.00    -0.072 C 
ATOM     46  H16 151 d   1      15.198  13.001  19.339  0.00  0.00     0.028 H 
ATOM     47  H17 151 d   1      14.281  14.380  20.036  0.00  0.00     0.028 H 
ATOM     48  H18 151 d   1      13.636  12.709  20.176  0.00  0.00     0.028 H 
ENDBRANCH  39  45
ENDBRANCH  37  39
BRANCH  37  49
ATOM     49  C30 151 d   1      14.365  10.791  21.665  0.00  0.00     0.094 C 
ATOM     50  O5  151 d   1      13.370  10.848  22.429  0.00  0.00    -0.306 OA
ATOM     51  H19 151 d   1      14.309  10.041  20.877  0.00  0.00     0.144 H 
ENDBRANCH  37  49
ENDBRANCH   7  37
BRANCH   6  52
ATOM     52  N2  151 d   1      17.406   9.400  24.167  0.00  0.00    -0.313 N 
ATOM     53  H6  151 d   1      18.400   9.438  24.271  0.00  0.00     0.172 HD
BRANCH  52  54
ATOM     54  S1  151 d   1      16.398   8.901  25.457  0.00  0.00     0.223 S 
ATOM     55  O1  151 d   1      17.261   7.845  26.079  0.00  0.00    -0.206 OA
ATOM     56  O2  151 d   1      16.307  10.115  26.384  0.00  0.00    -0.206 OA
BRANCH  54  57
ATOM     57  C3  151 d   1      14.757   8.446  24.987  0.00  0.00     0.032 C 
ATOM     58  H7  151 d   1      14.191   8.142  25.880  0.00  0.00     0.051 H 
ATOM     59  H8  151 d   1      14.798   7.607  24.276  0.00  0.00     0.051 H 
ATOM     60  H9  151 d   1      14.260   9.305  24.512  0.00  0.00     0.051 H 
ENDBRANCH  54  57
ENDBRANCH  52  54
ENDBRANCH   6  52
TORSDOF 11
