REMARK  9 active torsions:
REMARK  status: ('A' for Active; 'I' for Inactive)
REMARK    1  A    between atoms: C31_25  and  N2_1 
REMARK    2  A    between atoms: C32_26  and  O5_4 
REMARK    3  A    between atoms: C6_5  and  C11_10 
REMARK    4  A    between atoms: C22_18  and  C6_5 
REMARK    5  A    between atoms: C7_6  and  O9_8 
REMARK    6  A    between atoms: C28_24  and  N14_12 
REMARK    7  A    between atoms: C27_23  and  C22_18 
REMARK    8  A    between atoms: N23_19  and  C27_23 
REMARK    9  A    between atoms: C24_20  and  C33_27 
ROOT
ATOM      1  N2  BIA d   1     -32.131  57.656  52.804  0.00  0.00    -0.280 NA
ATOM      2  C12 BIA d   1     -30.140  56.835  53.969  0.00  0.00     0.095 C 
ATOM      3  C16 BIA d   1     -29.944  58.319  51.997  0.00  0.00     0.095 C 
ATOM      4  C21 BIA d   1     -31.339  57.978  51.587  0.00  0.00     0.006 C 
ATOM      5  N23 BIA d   1     -29.290  57.189  52.791  0.00  0.00    -0.068 N 
ATOM      6  C25 BIA d   1     -31.519  56.495  53.513  0.00  0.00     0.006 C 
ATOM      7  H6  BIA d   1     -30.184  57.691  54.658  0.00  0.00     0.077 H 
ATOM      8  H7  BIA d   1     -29.703  55.969  54.488  0.00  0.00     0.077 H 
ATOM      9  H8  BIA d   1     -29.968  59.224  52.621  0.00  0.00     0.077 H 
ATOM     10  H9  BIA d   1     -29.345  58.512  51.095  0.00  0.00     0.077 H 
ATOM     11  H11 BIA d   1     -31.792  58.835  51.067  0.00  0.00     0.058 H 
ATOM     12  H12 BIA d   1     -31.324  57.108  50.914  0.00  0.00     0.058 H 
ATOM     13  H15 BIA d   1     -29.229  56.377  52.197  0.00  0.00     0.280 HD
ATOM     14  H16 BIA d   1     -31.473  55.635  52.829  0.00  0.00     0.058 H 
ATOM     15  H17 BIA d   1     -32.136  56.236  54.386  0.00  0.00     0.058 H 
ENDROOT
BRANCH   5  16
ATOM     16  C27 BIA d   1     -27.890  57.576  53.191  0.00  0.00     0.090 C 
ATOM     17  H19 BIA d   1     -27.962  58.434  53.875  0.00  0.00     0.076 H 
ATOM     18  H20 BIA d   1     -27.445  56.721  53.721  0.00  0.00     0.076 H 
BRANCH  16  19
ATOM     19  C22 BIA d   1     -26.946  57.963  52.060  0.00  0.00     0.018 C 
ATOM     20  H13 BIA d   1     -25.962  57.500  52.227  0.00  0.00     0.047 H 
ATOM     21  H14 BIA d   1     -27.357  57.614  51.101  0.00  0.00     0.047 H 
BRANCH  19  22
ATOM     22  C6  BIA d   1     -26.798  59.482  52.030  0.00  0.00     0.161 C 
ATOM     23  O8  BIA d   1     -27.551  60.198  52.686  0.00  0.00    -0.292 OA
BRANCH  22  24
ATOM     24  C11 BIA d   1     -25.726  60.116  51.215  0.00  0.00     0.015 A 
ATOM     25  C3  BIA d   1     -25.780  61.510  51.018  0.00  0.00    -0.035 A 
ATOM     26  C7  BIA d   1     -24.705  62.217  50.216  0.00  0.00     0.102 A 
ATOM     27  H1  BIA d   1     -26.597  62.082  51.443  0.00  0.00     0.089 H 
ATOM     28  C32 BIA d   1     -23.652  61.449  49.674  0.00  0.00     0.132 A 
ATOM     29  C28 BIA d   1     -23.650  60.023  49.896  0.00  0.00     0.139 A 
ATOM     30  C19 BIA d   1     -24.659  59.374  50.648  0.00  0.00    -0.035 A 
ATOM     31  H10 BIA d   1     -24.615  58.300  50.791  0.00  0.00     0.088 H 
BRANCH  26  32
ATOM     32  O9  BIA d   1     -24.779  63.551  50.046  0.00  0.00    -0.358 OA
ATOM     33  H4  BIA d   1     -24.040  63.844  49.526  0.00  0.00     0.217 HD
ENDBRANCH  26  32
BRANCH  28  34
ATOM     34  O5  BIA d   1     -22.739  62.155  48.990  0.00  0.00    -0.356 OA
ATOM     35  H3  BIA d   1     -22.343  62.799  49.565  0.00  0.00     0.218 HD
ENDBRANCH  28  34
BRANCH  29  36
ATOM     36  N14 BIA d   1     -22.579  59.146  49.344  0.00  0.00    -0.113 N 
ATOM     37  O17 BIA d   1     -21.664  59.650  48.672  0.00  0.00    -0.532 OA
ATOM     38  O18 BIA d   1     -22.615  57.954  49.554  0.00  0.00    -0.532 OA
ENDBRANCH  29  36
ENDBRANCH  22  24
ENDBRANCH  19  22
ENDBRANCH  16  19
ENDBRANCH   5  16
BRANCH   1  39
ATOM     39  C31 BIA d   1     -33.529  57.503  52.580  0.00  0.00     0.011 A 
ATOM     40  C4  BIA d   1     -34.188  57.824  51.329  0.00  0.00    -0.062 A 
ATOM     41  C10 BIA d   1     -35.575  57.648  51.183  0.00  0.00    -0.081 A 
ATOM     42  H2  BIA d   1     -33.605  58.204  50.498  0.00  0.00     0.086 H 
ATOM     43  C37 BIA d   1     -36.366  57.153  52.247  0.00  0.00    -0.068 A 
ATOM     44  H5  BIA d   1     -36.047  57.896  50.239  0.00  0.00     0.083 H 
ATOM     45  C24 BIA d   1     -35.717  56.841  53.471  0.00  0.00     0.049 A 
ATOM     46  H21 BIA d   1     -37.435  57.016  52.131  0.00  0.00     0.084 H 
ATOM     47  C26 BIA d   1     -34.352  57.013  53.624  0.00  0.00    -0.048 A 
ATOM     48  H18 BIA d   1     -33.897  56.764  54.576  0.00  0.00     0.087 H 
BRANCH  45  49
ATOM     49  C33 BIA d   1     -36.484  56.307  54.660  0.00  0.00     0.417 C 
ATOM     50  F37 BIA d   1     -37.367  55.409  54.172  0.00  0.00    -0.166 F 
ATOM     51  F38 BIA d   1     -35.748  55.647  55.477  0.00  0.00    -0.166 F 
ATOM     52  F39 BIA d   1     -37.127  57.250  55.166  0.00  0.00    -0.166 F 
ENDBRANCH  45  49
ENDBRANCH   1  39
TORSDOF 9
