REMARK  7 active torsions:
REMARK  status: ('A' for Active; 'I' for Inactive)
REMARK    1  A    between atoms: P1_1  and  O2'_16 
REMARK    2  A    between atoms: O5'_9  and  P2_5 
REMARK    3  A    between atoms: C5'_10  and  O5'_9 
REMARK    4  A    between atoms: C4'_11  and  C5'_10 
REMARK    5  A    between atoms: C3'_13  and  O3'_14 
REMARK    6  A    between atoms: O2'_16  and  C2'_15 
REMARK    7  A    between atoms: C1'_17  and  N9_18 
ROOT
ATOM      1  C4' A2P d   1      20.039  47.834  -4.752  0.00  0.00     0.089 C 
ATOM      2  O4' A2P d   1      20.432  46.624  -5.532  0.00  0.00    -0.353 OA
ATOM      3  C3' A2P d   1      18.824  47.395  -3.914  0.00  0.00     0.092 C 
ATOM      4  C2' A2P d   1      19.046  45.866  -3.813  0.00  0.00     0.121 C 
ATOM      5  C1' A2P d   1      19.511  45.525  -5.188  0.00  0.00     0.140 C 
ATOM      6  H3  A2P d   1      19.710  48.631  -5.435  0.00  0.00     0.090 H 
ATOM      7  H4  A2P d   1      18.905  47.835  -2.909  0.00  0.00     0.091 H 
ATOM      8  H6  A2P d   1      19.812  45.624  -3.061  0.00  0.00     0.095 H 
ATOM      9  H7  A2P d   1      18.656  45.490  -5.879  0.00  0.00     0.123 H 
ENDROOT
BRANCH   5  10
ATOM     10  N9  A2P d   1      20.270  44.219  -5.268  0.00  0.00    -0.294 N 
ATOM     11  C4  A2P d   1      20.033  43.257  -6.230  0.00  0.00     0.167 A 
ATOM     12  C5  A2P d   1      20.961  42.228  -5.922  0.00  0.00     0.149 A 
ATOM     13  N3  A2P d   1      19.116  43.295  -7.241  0.00  0.00    -0.222 NA
ATOM     14  N7  A2P d   1      21.730  42.529  -4.836  0.00  0.00    -0.236 NA
ATOM     15  C6  A2P d   1      20.913  41.059  -6.818  0.00  0.00     0.155 A 
ATOM     16  C8  A2P d   1      21.307  43.731  -4.448  0.00  0.00     0.071 A 
ATOM     17  H8  A2P d   1      21.715  44.273  -3.596  0.00  0.00     0.144 H 
ATOM     18  N1  A2P d   1      19.975  41.125  -7.834  0.00  0.00    -0.222 NA
ATOM     19  N6  A2P d   1      21.695  40.010  -6.690  0.00  0.00    -0.382 N 
ATOM     20  C2  A2P d   1      19.129  42.209  -8.011  0.00  0.00     0.091 A 
ATOM     21  H11 A2P d   1      18.427  42.169  -8.836  0.00  0.00     0.146 H 
ATOM     22  H9  A2P d   1      21.613  39.223  -7.349  0.00  0.00     0.157 HD
ATOM     23  H10 A2P d   1      22.390  39.975  -5.930  0.00  0.00     0.157 HD
ENDBRANCH   5  10
BRANCH   4  24
ATOM     24  O2' A2P d   1      17.819  45.175  -3.490  0.00  0.00    -0.270 OA
BRANCH  24  25
ATOM     25  P1  A2P d   1      17.384  45.093  -1.912  0.00  0.00     0.422 P 
ATOM     26  O3P A2P d   1      16.579  46.291  -1.568  0.00  0.00    -0.617 OA
ATOM     27  O2P A2P d   1      18.590  45.032  -1.049  0.00  0.00    -0.617 OA
ATOM     28  O1P A2P d   1      16.578  43.874  -1.695  0.00  0.00    -0.617 OA
ENDBRANCH  24  25
ENDBRANCH   4  24
BRANCH   3  29
ATOM     29  O3' A2P d   1      17.577  47.789  -4.418  0.00  0.00    -0.390 OA
ATOM     30  H5  A2P d   1      16.889  47.453  -3.856  0.00  0.00     0.210 HD
ENDBRANCH   3  29
BRANCH   1  31
ATOM     31  C5' A2P d   1      21.277  48.348  -4.013  0.00  0.00     0.059 C 
ATOM     32  H1  A2P d   1      20.979  49.133  -3.303  0.00  0.00     0.079 H 
ATOM     33  H2  A2P d   1      21.991  48.763  -4.740  0.00  0.00     0.079 H 
BRANCH  31  34
ATOM     34  O5' A2P d   1      21.926  47.218  -3.265  0.00  0.00    -0.280 OA
BRANCH  34  35
ATOM     35  P2  A2P d   1      22.828  47.739  -2.022  0.00  0.00     0.422 P 
ATOM     36  O6P A2P d   1      24.040  48.083  -2.669  0.00  0.00    -0.617 OA
ATOM     37  O5P A2P d   1      23.075  46.661  -1.050  0.00  0.00    -0.617 OA
ATOM     38  O4P A2P d   1      22.275  48.957  -1.368  0.00  0.00    -0.617 OA
ENDBRANCH  34  35
ENDBRANCH  31  34
ENDBRANCH   1  31
TORSDOF 7
