REMARK  4 active torsions:
REMARK  status: ('A' for Active; 'I' for Inactive)
REMARK    1  A    between atoms: C2_2  and  N2_12 
REMARK    2  A    between atoms: C6_6  and  O6_7 
REMARK    3  A    between atoms: O6_7  and  C9_8 
REMARK    4  A    between atoms: C9_8  and  C10_13 
ROOT
ATOM      1  C9  CMG d   1      32.796  46.300  20.650  0.00  0.00     0.031 C 
ATOM      2  H1  CMG d   1      33.709  46.272  21.262  0.00  0.00     0.075 H 
ATOM      3  H2  CMG d   1      32.489  45.273  20.401  0.00  0.00     0.075 H 
ENDROOT
BRANCH   1   4
ATOM      4  O6  CMG d   1      33.080  46.987  19.452  0.00  0.00    -0.332 OA
BRANCH   4   5
ATOM      5  C6  CMG d   1      33.568  46.331  18.399  0.00  0.00     0.216 A 
ATOM      6  N1  CMG d   1      33.386  45.131  18.109  0.00  0.00    -0.036 NA
ATOM      7  C2  CMG d   1      33.891  44.408  16.978  0.00  0.00     0.724 A 
ATOM      8  N3  CMG d   1      34.607  45.084  16.115  0.00  0.00    -0.043 NA
ATOM      9  C4  CMG d   1      34.871  46.468  16.320  0.00  0.00     0.181 A 
ATOM     10  N9  CMG d   1      35.584  47.304  15.609  0.00  0.00    -0.333 N 
ATOM     11  C5  CMG d   1      34.338  47.078  17.388  0.00  0.00     0.158 A 
ATOM     12  C8  CMG d   1      35.546  48.480  16.192  0.00  0.00     0.066 A 
ATOM     13  H4  CMG d   1      36.089  47.078  14.740  0.00  0.00     0.168 HD
ATOM     14  N7  CMG d   1      34.793  48.411  17.225  0.00  0.00    -0.236 NA
ATOM     15  H3  CMG d   1      36.071  49.371  15.851  0.00  0.00     0.143 H 
BRANCH   7  16
ATOM     16  N2  CMG d   1      33.597  43.116  16.886  0.00  0.00    -0.231 N 
ATOM     17  H5  CMG d   1      33.025  42.665  17.614  0.00  0.00     0.174 HD
ATOM     18  H6  CMG d   1      33.941  42.565  16.086  0.00  0.00     0.174 HD
ENDBRANCH   7  16
ENDBRANCH   4   5
ENDBRANCH   1   4
BRANCH   1  19
ATOM     19  C10 CMG d   1      31.672  46.961  21.476  0.00  0.00    -0.033 C 
ATOM     20  C15 CMG d   1      31.667  48.487  21.365  0.00  0.00    -0.060 C 
ATOM     21  C14 CMG d   1      30.810  49.247  22.427  0.00  0.00    -0.065 C 
ATOM     22  H16 CMG d   1      31.281  48.751  20.369  0.00  0.00     0.033 H 
ATOM     23  H17 CMG d   1      32.706  48.835  21.459  0.00  0.00     0.033 H 
ATOM     24  C13 CMG d   1      31.098  48.703  23.873  0.00  0.00    -0.065 C 
ATOM     25  H14 CMG d   1      31.057  50.318  22.389  0.00  0.00     0.033 H 
ATOM     26  H15 CMG d   1      29.744  49.108  22.196  0.00  0.00     0.033 H 
ATOM     27  C12 CMG d   1      30.955  47.188  23.964  0.00  0.00    -0.065 C 
ATOM     28  H12 CMG d   1      32.125  48.978  24.156  0.00  0.00     0.033 H 
ATOM     29  H13 CMG d   1      30.388  49.167  24.573  0.00  0.00     0.033 H 
ATOM     30  C11 CMG d   1      31.801  46.409  22.930  0.00  0.00    -0.060 C 
ATOM     31  H10 CMG d   1      31.264  46.872  24.971  0.00  0.00     0.033 H 
ATOM     32  H11 CMG d   1      29.897  46.931  23.808  0.00  0.00     0.033 H 
ATOM     33  H8  CMG d   1      32.857  46.466  23.231  0.00  0.00     0.033 H 
ATOM     34  H9  CMG d   1      31.474  45.359  22.934  0.00  0.00     0.033 H 
ATOM     35  H7  CMG d   1      30.708  46.617  21.074  0.00  0.00     0.043 H 
ENDBRANCH   1  19
TORSDOF 4
