REMARK  5 active torsions:
REMARK  status: ('A' for Active; 'I' for Inactive)
REMARK    1  A    between atoms: N2_22  and  C2_1 
REMARK    2  A    between atoms: O6_16  and  C10_3 
REMARK    3  A    between atoms: C10_3  and  C11_4 
REMARK    4  A    between atoms: C6_15  and  O6_16 
REMARK    5  A    between atoms: N2_22  and  C17_23 
ROOT
ATOM      1  C2  2A6 d   1       7.821  43.702  49.399  0.00  0.00     0.731 A 
ATOM      2  C8  2A6 d   1      10.739  46.155  51.647  0.00  0.00     0.066 A 
ATOM      3  N1  2A6 d   1       6.870  44.489  50.181  0.00  0.00    -0.035 NA
ATOM      4  C6  2A6 d   1       7.237  45.385  51.037  0.00  0.00     0.216 A 
ATOM      5  C5  2A6 d   1       8.659  45.625  51.199  0.00  0.00     0.158 A 
ATOM      6  N7  2A6 d   1       9.549  46.452  51.963  0.00  0.00    -0.236 NA
ATOM      7  N9  2A6 d   1      10.773  45.213  50.736  0.00  0.00    -0.333 N 
ATOM      8  C4  2A6 d   1       9.534  44.912  50.478  0.00  0.00     0.181 A 
ATOM      9  N3  2A6 d   1       9.061  43.920  49.571  0.00  0.00    -0.042 NA
ATOM     10  H1  2A6 d   1      11.623  46.623  52.078  0.00  0.00     0.143 H 
ATOM     11  H19 2A6 d   1      11.612  44.795  50.310  0.00  0.00     0.168 HD
ENDROOT
BRANCH   4  12
ATOM     12  O6  2A6 d   1       6.320  46.074  51.736  0.00  0.00    -0.332 OA
BRANCH  12  13
ATOM     13  C10 2A6 d   1       5.116  45.274  51.617  0.00  0.00     0.031 C 
ATOM     14  H2  2A6 d   1       5.363  44.212  51.759  0.00  0.00     0.075 H 
ATOM     15  H3  2A6 d   1       4.674  45.417  50.620  0.00  0.00     0.075 H 
BRANCH  13  16
ATOM     16  C11 2A6 d   1       4.107  45.724  52.703  0.00  0.00    -0.033 C 
ATOM     17  C16 2A6 d   1       4.009  44.609  53.792  0.00  0.00    -0.060 C 
ATOM     18  C15 2A6 d   1       2.787  44.740  54.725  0.00  0.00    -0.065 C 
ATOM     19  H13 2A6 d   1       4.919  44.648  54.408  0.00  0.00     0.033 H 
ATOM     20  H14 2A6 d   1       3.952  43.635  53.284  0.00  0.00     0.033 H 
ATOM     21  C14 2A6 d   1       1.448  44.969  53.987  0.00  0.00    -0.065 C 
ATOM     22  H11 2A6 d   1       2.702  43.815  55.314  0.00  0.00     0.033 H 
ATOM     23  H12 2A6 d   1       2.958  45.591  55.401  0.00  0.00     0.033 H 
ATOM     24  C13 2A6 d   1       1.562  46.086  52.939  0.00  0.00    -0.065 C 
ATOM     25  H9  2A6 d   1       1.154  44.036  53.483  0.00  0.00     0.033 H 
ATOM     26  H10 2A6 d   1       0.678  45.247  54.722  0.00  0.00     0.033 H 
ATOM     27  C12 2A6 d   1       2.766  45.986  51.986  0.00  0.00    -0.060 C 
ATOM     28  H7  2A6 d   1       0.646  46.072  52.330  0.00  0.00     0.033 H 
ATOM     29  H8  2A6 d   1       1.633  47.045  53.473  0.00  0.00     0.033 H 
ATOM     30  H5  2A6 d   1       2.583  45.162  51.281  0.00  0.00     0.033 H 
ATOM     31  H6  2A6 d   1       2.849  46.932  51.431  0.00  0.00     0.033 H 
ATOM     32  H4  2A6 d   1       4.452  46.655  53.177  0.00  0.00     0.043 H 
ENDBRANCH  13  16
ENDBRANCH  12  13
ENDBRANCH   4  12
BRANCH   1  33
ATOM     33  N2  2A6 d   1       7.600  42.762  48.532  0.00  0.00    -0.188 N 
ATOM     34  H20 2A6 d   1       8.302  42.551  47.809  0.00  0.00     0.184 HD
BRANCH  33  35
ATOM     35  C17 2A6 d   1       6.445  42.061  48.581  0.00  0.00     0.049 A 
ATOM     36  C18 2A6 d   1       5.855  41.632  47.396  0.00  0.00    -0.057 A 
ATOM     37  C19 2A6 d   1       4.667  40.917  47.403  0.00  0.00    -0.081 A 
ATOM     38  H21 2A6 d   1       6.333  41.861  46.450  0.00  0.00     0.086 H 
ATOM     39  C20 2A6 d   1       4.059  40.648  48.633  0.00  0.00    -0.083 A 
ATOM     40  H15 2A6 d   1       4.220  40.575  46.477  0.00  0.00     0.083 H 
ATOM     41  C21 2A6 d   1       4.645  41.093  49.815  0.00  0.00    -0.081 A 
ATOM     42  H16 2A6 d   1       3.129  40.092  48.666  0.00  0.00     0.083 H 
ATOM     43  C22 2A6 d   1       5.852  41.789  49.808  0.00  0.00    -0.057 A 
ATOM     44  H17 2A6 d   1       4.152  40.894  50.760  0.00  0.00     0.083 H 
ATOM     45  H18 2A6 d   1       6.316  42.109  50.734  0.00  0.00     0.086 H 
ENDBRANCH  33  35
ENDBRANCH   1  33
TORSDOF 5
