REMARK  4 active torsions:
REMARK  status: ('A' for Active; 'I' for Inactive)
REMARK    1  A    between atoms: C6_3  and  O6_4 
REMARK    2  A    between atoms: O6_4  and  C10_5 
REMARK    3  A    between atoms: C10_5  and  C11_6 
REMARK    4  A    between atoms: N2_18  and  C17_19 
ROOT
ATOM      1  C2  6CP d   1       8.273  43.854  49.720  0.00  0.00     0.731 A 
ATOM      2  N1  6CP d   1       7.296  44.598  50.504  0.00  0.00    -0.035 NA
ATOM      3  C6  6CP d   1       7.688  45.505  51.351  0.00  0.00     0.216 A 
ATOM      4  C5  6CP d   1       9.093  45.784  51.547  0.00  0.00     0.158 A 
ATOM      5  N7  6CP d   1       9.890  46.656  52.364  0.00  0.00    -0.236 NA
ATOM      6  C8  6CP d   1      11.131  46.438  52.110  0.00  0.00     0.066 A 
ATOM      7  N9  6CP d   1      11.231  45.500  51.173  0.00  0.00    -0.333 N 
ATOM      8  C4  6CP d   1      10.007  45.095  50.836  0.00  0.00     0.181 A 
ATOM      9  N3  6CP d   1       9.550  44.097  49.912  0.00  0.00    -0.042 NA
ATOM     10  N2  6CP d   1       7.869  42.966  48.868  0.00  0.00    -0.188 N 
ATOM     11  H14 6CP d   1      11.970  46.943  52.588  0.00  0.00     0.143 H 
ATOM     12  H15 6CP d   1      12.111  45.144  50.773  0.00  0.00     0.168 HD
ATOM     13  H16 6CP d   1       8.514  42.818  48.079  0.00  0.00     0.184 HD
ENDROOT
BRANCH   3  14
ATOM     14  O6  6CP d   1       6.804  46.201  52.064  0.00  0.00    -0.332 OA
BRANCH  14  15
ATOM     15  C10 6CP d   1       5.545  45.529  51.861  0.00  0.00     0.031 C 
ATOM     16  H1  6CP d   1       5.712  44.443  51.920  0.00  0.00     0.075 H 
ATOM     17  H2  6CP d   1       5.165  45.788  50.861  0.00  0.00     0.075 H 
BRANCH  15  18
ATOM     18  C11 6CP d   1       4.498  45.917  52.894  0.00  0.00    -0.033 C 
ATOM     19  C12 6CP d   1       4.681  45.264  54.293  0.00  0.00    -0.060 C 
ATOM     20  C13 6CP d   1       3.619  45.592  55.338  0.00  0.00    -0.065 C 
ATOM     21  H4  6CP d   1       5.654  45.590  54.690  0.00  0.00     0.033 H 
ATOM     22  H5  6CP d   1       4.689  44.173  54.155  0.00  0.00     0.033 H 
ATOM     23  C14 6CP d   1       2.149  45.240  54.790  0.00  0.00    -0.065 C 
ATOM     24  H6  6CP d   1       3.667  46.665  55.577  0.00  0.00     0.033 H 
ATOM     25  H7  6CP d   1       3.815  45.005  56.247  0.00  0.00     0.033 H 
ATOM     26  C15 6CP d   1       1.987  45.943  53.445  0.00  0.00    -0.065 C 
ATOM     27  H8  6CP d   1       1.387  45.600  55.497  0.00  0.00     0.033 H 
ATOM     28  H9  6CP d   1       2.045  44.153  54.661  0.00  0.00     0.033 H 
ATOM     29  C16 6CP d   1       3.080  45.637  52.358  0.00  0.00    -0.060 C 
ATOM     30  H10 6CP d   1       1.995  47.027  53.631  0.00  0.00     0.033 H 
ATOM     31  H11 6CP d   1       1.012  45.650  53.030  0.00  0.00     0.033 H 
ATOM     32  H12 6CP d   1       3.010  44.578  52.067  0.00  0.00     0.033 H 
ATOM     33  H13 6CP d   1       2.898  46.272  51.478  0.00  0.00     0.033 H 
ATOM     34  H3  6CP d   1       4.588  47.004  53.039  0.00  0.00     0.043 H 
ENDBRANCH  15  18
ENDBRANCH  14  15
ENDBRANCH   3  14
BRANCH  10  35
ATOM     35  C17 6CP d   1       6.760  42.199  48.823  0.00  0.00     0.051 A 
ATOM     36  C18 6CP d   1       5.824  42.080  49.846  0.00  0.00    -0.036 A 
ATOM     37  C19 6CP d   1       4.595  41.463  49.693  0.00  0.00     0.036 A 
ATOM     38  H17 6CP d   1       6.072  42.494  50.817  0.00  0.00     0.089 H 
ATOM     39  C20 6CP d   1       4.283  40.941  48.433  0.00  0.00    -0.062 A 
ATOM     40 CL1  6CP d   1       3.361  41.306  50.919  0.00  0.00    -0.084 Cl
ATOM     41  C21 6CP d   1       5.192  41.044  47.386  0.00  0.00    -0.079 A 
ATOM     42  H18 6CP d   1       3.328  40.454  48.272  0.00  0.00     0.086 H 
ATOM     43  C22 6CP d   1       6.447  41.653  47.555  0.00  0.00    -0.057 A 
ATOM     44  H19 6CP d   1       4.926  40.644  46.414  0.00  0.00     0.083 H 
ATOM     45  H20 6CP d   1       7.156  41.703  46.737  0.00  0.00     0.086 H 
ENDBRANCH  10  35
TORSDOF 4
