REMARK WARNING: 32 MAX_TORS EXCEEDED!!!
REMARK  46 active torsions:
REMARK  status: ('A' for Active; 'I' for Inactive)
REMARK    1  A    between atoms: CA_2  and  C_3 
REMARK       I    between atoms: C_3  and  N_8 
REMARK    2  A    between atoms: N_8  and  CA_9 
REMARK    3  A    between atoms: CA_9  and  C_10 
REMARK    4  A    between atoms: CA_9  and  CB_12 
REMARK       I    between atoms: C_10  and  N_15 
REMARK    5  A    between atoms: CB_12  and  CG1_13 
REMARK    6  A    between atoms: CB_12  and  CG2_14 
REMARK    7  A    between atoms: N_15  and  CA_16 
REMARK    8  A    between atoms: CA_16  and  C_17 
REMARK    9  A    between atoms: CA_16  and  CB_19 
REMARK       I    between atoms: C_17  and  N_24 
REMARK   10  A    between atoms: CB_19  and  CG_20 
REMARK   11  A    between atoms: CG_20  and  CD_21 
REMARK   12  A    between atoms: CD_21  and  CE_22 
REMARK   13  A    between atoms: CE_22  and  NZ_23 
REMARK   14  A    between atoms: N_24  and  CA_25 
REMARK   15  A    between atoms: CA_25  and  C_26 
REMARK   16  A    between atoms: CA_25  and  CB_28 
REMARK       I    between atoms: C_26  and  N_35 
REMARK   17  A    between atoms: CB_28  and  CG_29 
REMARK   18  A    between atoms: CG_29  and  CD_30 
REMARK   19  A    between atoms: CD_30  and  NE_31 
REMARK       I    between atoms: NE_31  and  CZ_32 
REMARK       I    between atoms: CZ_32  and  NH1_33 
REMARK       I    between atoms: CZ_32  and  NH2_34 
REMARK   20  A    between atoms: N_35  and  CA_36 
REMARK   21  A    between atoms: CA_36  and  C_37 
REMARK   22  A    between atoms: CA_36  and  CB_39 
REMARK       I    between atoms: C_37  and  N_46 
REMARK   23  A    between atoms: CB_39  and  CG_40 
REMARK   24  A    between atoms: CG_40  and  CD_41 
REMARK   25  A    between atoms: CD_41  and  NE_42 
REMARK       I    between atoms: NE_42  and  CZ_43 
REMARK       I    between atoms: CZ_43  and  NH1_44 
REMARK   26  A    between atoms: N_46  and  CA_47 
REMARK   27  A    between atoms: CA_47  and  C_48 
REMARK   28  A    between atoms: CA_47  and  CB_50 
REMARK       I    between atoms: C_48  and  N_54 
REMARK   29  A    between atoms: CB_50  and  CG_51 
REMARK   30  A    between atoms: CG_51  and  CD1_52 
REMARK   31  A    between atoms: CG_51  and  CD2_53 
REMARK   32  A    between atoms: N_54  and  CA_55 
REMARK   33  A    between atoms: CA_55  and  C_56 
REMARK   34  A    between atoms: CA_55  and  CB_58 
REMARK       I    between atoms: C_56  and  N_62 
REMARK   35  A    between atoms: CB_58  and  CG_59 
REMARK   36  A    between atoms: N_62  and  CA_63 
REMARK   37  A    between atoms: CA_63  and  C_64 
REMARK   38  A    between atoms: CA_63  and  CB_66 
REMARK       I    between atoms: C_64  and  N_70 
REMARK   39  A    between atoms: CB_66  and  CG_67 
REMARK   40  A    between atoms: CG_67  and  CD1_68 
REMARK   41  A    between atoms: CG_67  and  CD2_69 
REMARK   42  A    between atoms: N_70  and  CA_71 
REMARK   43  A    between atoms: CA_71  and  C_72 
REMARK   44  A    between atoms: CA_71  and  CB_74 
REMARK   45  A    between atoms: CB_74  and  CG_75 
REMARK   46  A    between atoms: CG_75  and  CD_76 
ROOT
ATOM      1  CA  ARG d   1      10.416  85.444  69.988  0.00  0.00     0.089 C 
ATOM      2  H46 ARG d   1      10.488  84.392  69.674  0.00  0.00     0.087 H 
ENDROOT
BRANCH   1   3
ATOM      3  N   ARG d   1       9.366  85.587  70.957  0.00  0.00    -0.346 N 
ATOM      4  C   ARG d   1       9.142  84.599  71.793  0.00  0.00     0.241 C 
ATOM      5  O   ARG d   1       9.685  83.532  71.692  0.00  0.00    -0.271 OA
ATOM      6  H45 ARG d   1       8.817  86.422  70.995  0.00  0.00     0.163 HD
BRANCH   4   7
ATOM      7  CA  ARG d   1       8.157  84.850  72.894  0.00  0.00     0.089 C 
ATOM      8  H33 ARG d   1       7.498  85.678  72.593  0.00  0.00     0.087 H 
BRANCH   7   9
ATOM      9  N   ARG d   1       7.320  83.680  73.144  0.00  0.00    -0.346 N 
ATOM     10  C   LYS d   1       6.303  83.748  73.987  0.00  0.00     0.241 C 
ATOM     11  O   LYS d   1       6.068  84.758  74.639  0.00  0.00    -0.271 OA
ATOM     12  H32 ARG d   1       7.517  82.820  72.674  0.00  0.00     0.163 HD
BRANCH  10  13
ATOM     13  CA  LYS d   1       5.451  82.478  74.167  0.00  0.00     0.089 C 
ATOM     14  H20 LYS d   1       5.543  81.842  73.274  0.00  0.00     0.087 H 
BRANCH  13  15
ATOM     15  N   LYS d   1       5.968  81.774  75.335  0.00  0.00    -0.346 N 
ATOM     16  C   VAL d   1       7.278  81.605  75.501  0.00  0.00     0.241 C 
ATOM     17  O   VAL d   1       8.096  81.995  74.681  0.00  0.00    -0.271 OA
ATOM     18  H19 LYS d   1       5.332  81.415  76.018  0.00  0.00     0.163 HD
BRANCH  16  19
ATOM     19  CA  VAL d   1       7.726  80.926  76.790  0.00  0.00     0.092 C 
ATOM     20  H11 VAL d   1       8.824  80.854  76.803  0.00  0.00     0.088 H 
BRANCH  19  21
ATOM     21  N   VAL d   1       7.290  81.783  77.887  0.00  0.00    -0.346 N 
ATOM     22  C   PRO d   1       7.740  83.028  78.011  0.00  0.00     0.249 C 
ATOM     23  O   PRO d   1       8.593  83.545  77.262  0.00  0.00    -0.271 OA
ATOM     24  H10 VAL d   1       6.640  81.427  78.559  0.00  0.00     0.163 HD
BRANCH  22  25
ATOM     25  CA  PRO d   1       7.157  83.806  79.166  0.00  0.00     0.178 C 
ATOM     26  N   PRO d   1       8.131  84.808  79.678  0.00  0.00    -0.062 N 
ATOM     27  CD  PRO d   1       8.022  86.059  78.918  0.00  0.00     0.083 C 
ATOM     28  H1  PRO d   1       9.065  84.442  79.584  0.00  0.00     0.278 HD
ATOM     29  H2  PRO d   1       7.939  84.992  80.650  0.00  0.00     0.278 HD
ATOM     30  CG  PRO d   1       6.535  86.049  78.514  0.00  0.00    -0.040 C 
ATOM     31  H8  PRO d   1       8.678  86.050  78.035  0.00  0.00     0.075 H 
ATOM     32  H9  PRO d   1       8.262  86.931  79.544  0.00  0.00     0.075 H 
ATOM     33  CB  PRO d   1       5.999  84.666  78.632  0.00  0.00    -0.028 C 
ATOM     34  H6  PRO d   1       5.970  86.719  79.178  0.00  0.00     0.035 H 
ATOM     35  H7  PRO d   1       6.435  86.394  77.474  0.00  0.00     0.035 H 
ATOM     36  H4  PRO d   1       5.151  84.643  79.333  0.00  0.00     0.036 H 
ATOM     37  H5  PRO d   1       5.672  84.298  77.648  0.00  0.00     0.036 H 
ATOM     38  H3  PRO d   1       6.828  83.123  79.963  0.00  0.00     0.099 H 
ENDBRANCH  22  25
ENDBRANCH  19  21
BRANCH  19  39
ATOM     39  CB  VAL d   1       7.148  79.502  76.891  0.00  0.00    -0.033 C 
ATOM     40  H12 VAL d   1       6.545  79.320  75.989  0.00  0.00     0.042 H 
BRANCH  39  41
ATOM     41  CG1 VAL d   1       8.230  78.490  76.928  0.00  0.00    -0.071 C 
ATOM     42  H13 VAL d   1       7.789  77.485  77.000  0.00  0.00     0.028 H 
ATOM     43  H14 VAL d   1       8.873  78.672  77.802  0.00  0.00     0.028 H 
ATOM     44  H15 VAL d   1       8.831  78.562  76.010  0.00  0.00     0.028 H 
ENDBRANCH  39  41
BRANCH  39  45
ATOM     45  CG2 VAL d   1       6.227  79.358  78.107  0.00  0.00    -0.071 C 
ATOM     46  H16 VAL d   1       5.433  80.118  78.058  0.00  0.00     0.028 H 
ATOM     47  H17 VAL d   1       6.812  79.497  79.028  0.00  0.00     0.028 H 
ATOM     48  H18 VAL d   1       5.775  78.355  78.108  0.00  0.00     0.028 H 
ENDBRANCH  39  45
ENDBRANCH  19  39
ENDBRANCH  16  19
ENDBRANCH  13  15
BRANCH  13  49
ATOM     49  CB  LYS d   1       3.975  82.826  74.386  0.00  0.00    -0.038 C 
ATOM     50  H21 LYS d   1       3.934  83.727  75.015  0.00  0.00     0.036 H 
ATOM     51  H22 LYS d   1       3.509  81.985  74.920  0.00  0.00     0.036 H 
BRANCH  49  52
ATOM     52  CG  LYS d   1       3.137  83.099  73.124  0.00  0.00    -0.061 C 
ATOM     53  H23 LYS d   1       3.217  82.234  72.449  0.00  0.00     0.033 H 
ATOM     54  H24 LYS d   1       3.531  83.995  72.621  0.00  0.00     0.033 H 
BRANCH  52  55
ATOM     55  CD  LYS d   1       1.660  83.329  73.465  0.00  0.00    -0.043 C 
ATOM     56  H25 LYS d   1       1.533  83.246  74.554  0.00  0.00     0.035 H 
ATOM     57  H26 LYS d   1       1.058  82.556  72.965  0.00  0.00     0.035 H 
BRANCH  55  58
ATOM     58  CE  LYS d   1       1.158  84.713  73.014  0.00  0.00     0.080 C 
ATOM     59  H27 LYS d   1       0.103  84.812  73.309  0.00  0.00     0.075 H 
ATOM     60  H28 LYS d   1       1.239  84.771  71.918  0.00  0.00     0.075 H 
BRANCH  58  61
ATOM     61  NZ  LYS d   1       1.922  85.858  73.604  0.00  0.00    -0.079 N 
ATOM     62  H29 LYS d   1       1.539  86.727  73.266  0.00  0.00     0.274 HD
ATOM     63  H30 LYS d   1       2.891  85.790  73.334  0.00  0.00     0.274 HD
ATOM     64  H31 LYS d   1       1.850  85.828  74.609  0.00  0.00     0.274 HD
ENDBRANCH  58  61
ENDBRANCH  55  58
ENDBRANCH  52  55
ENDBRANCH  49  52
ENDBRANCH  13  49
ENDBRANCH  10  13
ENDBRANCH   7   9
BRANCH   7  65
ATOM     65  CB  ARG d   1       8.938  85.279  74.151  0.00  0.00    -0.036 C 
ATOM     66  H34 ARG d   1       8.329  85.023  75.031  0.00  0.00     0.036 H 
ATOM     67  H35 ARG d   1       9.078  86.369  74.106  0.00  0.00     0.036 H 
BRANCH  65  68
ATOM     68  CG  ARG d   1      10.287  84.648  74.325  0.00  0.00    -0.048 C 
ATOM     69  H36 ARG d   1      11.015  85.183  73.698  0.00  0.00     0.035 H 
ATOM     70  H37 ARG d   1      10.233  83.596  74.008  0.00  0.00     0.035 H 
BRANCH  68  71
ATOM     71  CD  ARG d   1      10.742  84.704  75.758  0.00  0.00     0.009 C 
ATOM     72  H38 ARG d   1      10.090  84.054  76.361  0.00  0.00     0.064 H 
ATOM     73  H39 ARG d   1      10.657  85.741  76.115  0.00  0.00     0.064 H 
BRANCH  71  74
ATOM     74  NE  ARG d   1      12.123  84.264  75.923  0.00  0.00    -0.227 N 
ATOM     75  CZ  ARG d   1      12.480  83.212  76.640  0.00  0.00     0.665 C 
ATOM     76  NH1 ARG d   1      11.543  82.483  77.253  0.00  0.00    -0.235 N 
ATOM     77  NH2 ARG d   1      13.760  82.886  76.736  0.00  0.00    -0.235 N 
ATOM     78  H41 ARG d   1      11.814  81.662  77.813  0.00  0.00     0.174 HD
ATOM     79  H42 ARG d   1      10.550  82.742  77.165  0.00  0.00     0.174 HD
ATOM     80  H43 ARG d   1      14.474  83.455  76.259  0.00  0.00     0.174 HD
ATOM     81  H44 ARG d   1      14.042  82.063  77.288  0.00  0.00     0.174 HD
ATOM     82  H40 ARG d   1      12.863  84.805  75.453  0.00  0.00     0.177 HD
ENDBRANCH  71  74
ENDBRANCH  68  71
ENDBRANCH  65  68
ENDBRANCH   7  65
ENDBRANCH   4   7
ENDBRANCH   1   3
BRANCH   1  83
ATOM     83  C   ARG d   1      11.699  85.837  70.729  0.00  0.00     0.241 C 
ATOM     84  O   ARG d   1      11.739  86.866  71.411  0.00  0.00    -0.271 OA
ATOM     85  N   LEU d   1      12.726  85.002  70.632  0.00  0.00    -0.346 N 
ATOM     86  H58 LEU d   1      12.644  84.179  70.070  0.00  0.00     0.163 HD
BRANCH  85  87
ATOM     87  CA  LEU d   1      13.968  85.272  71.334  0.00  0.00     0.089 C 
ATOM     88  H59 LEU d   1      13.730  85.507  72.382  0.00  0.00     0.087 H 
BRANCH  87  89
ATOM     89  C   LEU d   1      14.702  86.452  70.726  0.00  0.00     0.241 C 
ATOM     90  O   LEU d   1      14.829  86.520  69.513  0.00  0.00    -0.271 OA
ATOM     91  N   ASP d   1      15.187  87.362  71.570  0.00  0.00    -0.346 N 
ATOM     92  H69 ASP d   1      15.058  87.220  72.551  0.00  0.00     0.163 HD
BRANCH  91  93
ATOM     93  CA  ASP d   1      15.901  88.562  71.124  0.00  0.00     0.098 C 
ATOM     94  H70 ASP d   1      15.672  88.740  70.063  0.00  0.00     0.088 H 
BRANCH  93  95
ATOM     95  C   ASP d   1      17.395  88.359  71.286  0.00  0.00     0.241 C 
ATOM     96  O   ASP d   1      17.874  88.035  72.378  0.00  0.00    -0.271 OA
ATOM     97  N   LEU d   1      18.147  88.572  70.212  0.00  0.00    -0.346 N 
ATOM     98  H73 LEU d   1      17.734  88.898  69.362  0.00  0.00     0.163 HD
BRANCH  97  99
ATOM     99  CA  LEU d   1      19.577  88.325  70.288  0.00  0.00     0.089 C 
ATOM    100  H74 LEU d   1      19.796  88.116  71.346  0.00  0.00     0.087 H 
BRANCH  99 101
ATOM    101  C   LEU d   1      20.511  89.482  69.883  0.00  0.00     0.241 C 
ATOM    102  O   LEU d   1      21.571  89.643  70.491  0.00  0.00    -0.271 OA
ATOM    103  N   GLU d   1      20.120  90.280  68.883  0.00  0.00    -0.348 N 
ATOM    104  H84 GLU d   1      19.206  90.151  68.499  0.00  0.00     0.163 HD
BRANCH 103 105
ATOM    105  CA  GLU d   1      20.980  91.347  68.318  0.00  0.00     0.063 C 
ATOM    106  H85 GLU d   1      21.299  90.975  67.333  0.00  0.00     0.083 H 
BRANCH 105 107
ATOM    107  C   GLU d   1      22.276  91.598  69.112  0.00  0.00     0.109 C 
ATOM    108  O   GLU d   1      22.304  92.327  70.105  0.00  0.00    -0.305 OA
ATOM    109  H86 GLU d   1      23.196  91.116  68.785  0.00  0.00     0.146 H 
ENDBRANCH 105 107
BRANCH 105 110
ATOM    110  CB  GLU d   1      20.214  92.673  68.048  0.00  0.00    -0.031 C 
ATOM    111  H87 GLU d   1      20.307  93.314  68.937  0.00  0.00     0.037 H 
ATOM    112  H88 GLU d   1      19.154  92.433  67.879  0.00  0.00     0.037 H 
BRANCH 110 113
ATOM    113  CG  GLU d   1      20.737  93.458  66.824  0.00  0.00     0.018 C 
ATOM    114  H89 GLU d   1      20.179  93.114  65.941  0.00  0.00     0.049 H 
ATOM    115  H90 GLU d   1      21.803  93.217  66.701  0.00  0.00     0.049 H 
BRANCH 113 116
ATOM    116  CD  GLU d   1      20.606  94.997  66.894  0.00  0.00     0.172 C 
ATOM    117  OE1 GLU d   1      20.617  95.589  68.005  0.00  0.00    -0.648 OA
ATOM    118  OE2 GLU d   1      20.520  95.632  65.812  0.00  0.00    -0.648 OA
ENDBRANCH 113 116
ENDBRANCH 110 113
ENDBRANCH 105 110
ENDBRANCH 103 105
ENDBRANCH  99 101
BRANCH  99 119
ATOM    119  CB  LEU d   1      19.911  87.062  69.491  0.00  0.00    -0.035 C 
ATOM    120  H75 LEU d   1      20.693  86.524  70.047  0.00  0.00     0.037 H 
ATOM    121  H76 LEU d   1      20.310  87.387  68.519  0.00  0.00     0.037 H 
BRANCH 119 122
ATOM    122  CG  LEU d   1      18.785  86.061  69.208  0.00  0.00    -0.059 C 
ATOM    123  H77 LEU d   1      17.964  86.595  68.707  0.00  0.00     0.038 H 
BRANCH 122 124
ATOM    124  CD1 LEU d   1      19.302  84.985  68.297  0.00  0.00    -0.073 C 
ATOM    125  H78 LEU d   1      18.499  84.263  68.090  0.00  0.00     0.028 H 
ATOM    126  H79 LEU d   1      20.144  84.468  68.781  0.00  0.00     0.028 H 
ATOM    127  H80 LEU d   1      19.642  85.436  67.353  0.00  0.00     0.028 H 
ENDBRANCH 122 124
BRANCH 122 128
ATOM    128  CD2 LEU d   1      18.243  85.424  70.460  0.00  0.00    -0.073 C 
ATOM    129  H81 LEU d   1      17.862  86.206  71.134  0.00  0.00     0.028 H 
ATOM    130  H82 LEU d   1      19.045  84.865  70.964  0.00  0.00     0.028 H 
ATOM    131  H83 LEU d   1      17.426  84.736  70.197  0.00  0.00     0.028 H 
ENDBRANCH 122 128
ENDBRANCH 119 122
ENDBRANCH  99 119
ENDBRANCH  97  99
ENDBRANCH  93  95
BRANCH  93 132
ATOM    132  CB  ASP d   1      15.465  89.792  71.946  0.00  0.00     0.043 C 
ATOM    133  H71 ASP d   1      15.977  89.762  72.919  0.00  0.00     0.052 H 
ATOM    134  H72 ASP d   1      14.377  89.741  72.102  0.00  0.00     0.052 H 
BRANCH 132 135
ATOM    135  CG  ASP d   1      15.799  91.132  71.257  0.00  0.00     0.175 C 
ATOM    136  OD1 ASP d   1      16.873  91.263  70.618  0.00  0.00    -0.648 OA
ATOM    137  OD2 ASP d   1      15.028  92.116  71.308  0.00  0.00    -0.648 OA
ENDBRANCH 132 135
ENDBRANCH  93 132
ENDBRANCH  91  93
ENDBRANCH  87  89
BRANCH  87 138
ATOM    138  CB  LEU d   1      14.880  84.047  71.297  0.00  0.00    -0.035 C 
ATOM    139  H60 LEU d   1      15.756  84.276  71.922  0.00  0.00     0.037 H 
ATOM    140  H61 LEU d   1      15.199  83.912  70.253  0.00  0.00     0.037 H 
BRANCH 138 141
ATOM    141  CG  LEU d   1      14.324  82.711  71.774  0.00  0.00    -0.059 C 
ATOM    142  H62 LEU d   1      13.334  82.555  71.320  0.00  0.00     0.038 H 
BRANCH 141 143
ATOM    143  CD1 LEU d   1      15.229  81.596  71.339  0.00  0.00    -0.073 C 
ATOM    144  H63 LEU d   1      14.821  80.636  71.687  0.00  0.00     0.028 H 
ATOM    145  H64 LEU d   1      16.230  81.747  71.770  0.00  0.00     0.028 H 
ATOM    146  H65 LEU d   1      15.300  81.588  70.241  0.00  0.00     0.028 H 
ENDBRANCH 141 143
BRANCH 141 147
ATOM    147  CD2 LEU d   1      14.166  82.733  73.273  0.00  0.00    -0.073 C 
ATOM    148  H66 LEU d   1      13.499  83.559  73.559  0.00  0.00     0.028 H 
ATOM    149  H67 LEU d   1      15.150  82.877  73.743  0.00  0.00     0.028 H 
ATOM    150  H68 LEU d   1      13.734  81.779  73.610  0.00  0.00     0.028 H 
ENDBRANCH 141 147
ENDBRANCH 138 141
ENDBRANCH  87 138
ENDBRANCH  85  87
ENDBRANCH   1  83
BRANCH   1 151
ATOM    151  CB  ARG d   1      10.147  86.295  68.737  0.00  0.00    -0.036 C 
ATOM    152  H47 ARG d   1       9.059  86.413  68.631  0.00  0.00     0.036 H 
ATOM    153  H48 ARG d   1      10.543  85.755  67.864  0.00  0.00     0.036 H 
BRANCH 151 154
ATOM    154  CG  ARG d   1      10.752  87.633  68.760  0.00  0.00    -0.048 C 
ATOM    155  H49 ARG d   1      11.532  87.648  69.535  0.00  0.00     0.035 H 
ATOM    156  H50 ARG d   1       9.970  88.363  69.013  0.00  0.00     0.035 H 
BRANCH 154 157
ATOM    157  CD  ARG d   1      11.373  88.038  67.456  0.00  0.00     0.009 C 
ATOM    158  H51 ARG d   1      10.704  88.730  66.923  0.00  0.00     0.064 H 
ATOM    159  H52 ARG d   1      11.550  87.148  66.835  0.00  0.00     0.064 H 
BRANCH 157 160
ATOM    160  NE  ARG d   1      12.644  88.702  67.745  0.00  0.00    -0.227 N 
ATOM    161  CZ  ARG d   1      13.187  89.664  67.012  0.00  0.00     0.665 C 
ATOM    162  NH1 ARG d   1      12.580  90.085  65.910  0.00  0.00    -0.235 N 
ATOM    163  NH2 ARG d   1      14.344  90.191  67.378  0.00  0.00    -0.235 N 
ATOM    164  H54 ARG d   1      13.004  90.832  65.342  0.00  0.00     0.174 HD
ATOM    165  H55 ARG d   1      11.685  89.664  65.622  0.00  0.00     0.174 HD
ATOM    166  H56 ARG d   1      14.812  89.862  68.234  0.00  0.00     0.174 HD
ATOM    167  H57 ARG d   1      14.777  90.931  66.807  0.00  0.00     0.174 HD
ATOM    168  H53 ARG d   1      13.158  88.398  68.584  0.00  0.00     0.177 HD
ENDBRANCH 157 160
ENDBRANCH 154 157
ENDBRANCH 151 154
ENDBRANCH   1 151
TORSDOF 46
