REMARK WARNING: 32 MAX_TORS EXCEEDED!!!
REMARK  49 active torsions:
REMARK  status: ('A' for Active; 'I' for Inactive)
REMARK    1  A    between atoms: CA_2  and  C_3 
REMARK       I    between atoms: C_3  and  N_8 
REMARK    2  A    between atoms: N_8  and  CA_9 
REMARK    3  A    between atoms: CA_9  and  C_10 
REMARK    4  A    between atoms: CA_9  and  CB_12 
REMARK       I    between atoms: C_10  and  N_17 
REMARK    5  A    between atoms: CB_12  and  CG_13 
REMARK    6  A    between atoms: CG_13  and  CD_14 
REMARK    7  A    between atoms: CD_14  and  CE_15 
REMARK    8  A    between atoms: CE_15  and  NZ_16 
REMARK    9  A    between atoms: CA_18  and  C_19 
REMARK       I    between atoms: C_19  and  N_24 
REMARK   10  A    between atoms: N_24  and  CA_25 
REMARK   11  A    between atoms: CA_25  and  C_26 
REMARK   12  A    between atoms: CA_25  and  CB_28 
REMARK       I    between atoms: C_26  and  N_32 
REMARK   13  A    between atoms: CB_28  and  CG_29 
REMARK   14  A    between atoms: CG_29  and  CD1_30 
REMARK   15  A    between atoms: CG_29  and  CD2_31 
REMARK   16  A    between atoms: N_32  and  CA_33 
REMARK   17  A    between atoms: CA_33  and  C_34 
REMARK   18  A    between atoms: CA_33  and  CB_36 
REMARK       I    between atoms: C_34  and  N_41 
REMARK   19  A    between atoms: CB_36  and  CG_37 
REMARK   20  A    between atoms: CG_37  and  CD_38 
REMARK   21  A    between atoms: CD_38  and  CE_39 
REMARK   22  A    between atoms: CE_39  and  NZ_40 
REMARK   23  A    between atoms: N_41  and  CA_42 
REMARK   24  A    between atoms: CA_42  and  C_43 
REMARK   25  A    between atoms: CA_42  and  CB_45 
REMARK       I    between atoms: C_43  and  N_50 
REMARK   26  A    between atoms: CB_45  and  CG_46 
REMARK   27  A    between atoms: CG_46  and  CD_47 
REMARK   28  A    between atoms: CD_47  and  CE_48 
REMARK   29  A    between atoms: CE_48  and  NZ_49 
REMARK   30  A    between atoms: N_50  and  CA_51 
REMARK   31  A    between atoms: CA_51  and  C_52 
REMARK   32  A    between atoms: CA_51  and  CB_54 
REMARK       I    between atoms: C_52  and  N_58 
REMARK   33  A    between atoms: CB_54  and  CG_55 
REMARK   34  A    between atoms: CG_55  and  CD1_56 
REMARK   35  A    between atoms: CG_55  and  CD2_57 
REMARK   36  A    between atoms: N_58  and  CA_59 
REMARK   37  A    between atoms: CA_59  and  C_60 
REMARK   38  A    between atoms: CA_59  and  CB_62 
REMARK       I    between atoms: C_60  and  N_69 
REMARK   39  A    between atoms: CB_62  and  CG_63 
REMARK   40  A    between atoms: CG_63  and  CD_64 
REMARK   41  A    between atoms: CD_64  and  NE_65 
REMARK       I    between atoms: NE_65  and  CZ_66 
REMARK       I    between atoms: CZ_66  and  NH1_67 
REMARK   42  A    between atoms: N_69  and  CA_70 
REMARK   43  A    between atoms: CA_70  and  C_71 
REMARK   44  A    between atoms: CA_70  and  CB_73 
REMARK       I    between atoms: C_71  and  N_80 
REMARK   45  A    between atoms: CB_73  and  CG_74 
REMARK   46  A    between atoms: N_80  and  CA_81 
REMARK   47  A    between atoms: CA_81  and  C_82 
REMARK   48  A    between atoms: CA_81  and  CB_84 
REMARK   49  A    between atoms: CB_84  and  CG_85 
ROOT
ATOM      1  CA  LYS d   1      10.461  85.753  70.360  0.00  0.00     0.089 C 
ATOM      2  H55 LYS d   1      10.437  84.833  69.758  0.00  0.00     0.087 H 
ENDROOT
BRANCH   1   3
ATOM      3  N   LYS d   1       9.551  85.656  71.463  0.00  0.00    -0.346 N 
ATOM      4  C   LYS d   1       9.454  84.531  72.144  0.00  0.00     0.241 C 
ATOM      5  O   LYS d   1      10.049  83.505  71.840  0.00  0.00    -0.271 OA
ATOM      6  H54 LYS d   1       8.989  86.443  71.717  0.00  0.00     0.163 HD
BRANCH   4   7
ATOM      7  CA  LYS d   1       8.546  84.572  73.340  0.00  0.00     0.089 C 
ATOM      8  H42 LYS d   1       7.776  85.339  73.169  0.00  0.00     0.087 H 
BRANCH   7   9
ATOM      9  N   LYS d   1       7.870  83.299  73.537  0.00  0.00    -0.346 N 
ATOM     10  C   LEU d   1       7.011  83.091  74.527  0.00  0.00     0.241 C 
ATOM     11  O   LEU d   1       6.761  83.932  75.394  0.00  0.00    -0.271 OA
ATOM     12  H41 LYS d   1       8.060  82.551  72.901  0.00  0.00     0.163 HD
BRANCH  10  13
ATOM     13  CA  LEU d   1       6.340  81.721  74.535  0.00  0.00     0.089 C 
ATOM     14  H31 LEU d   1       6.805  81.112  73.746  0.00  0.00     0.087 H 
BRANCH  13  15
ATOM     15  N   LEU d   1       6.498  81.010  75.788  0.00  0.00    -0.346 N 
ATOM     16  C   PRO d   1       7.703  80.708  76.214  0.00  0.00     0.241 C 
ATOM     17  O   PRO d   1       8.681  81.059  75.616  0.00  0.00    -0.271 OA
ATOM     18  H30 LEU d   1       5.695  80.751  76.325  0.00  0.00     0.163 HD
BRANCH  16  19
ATOM     19  CA  PRO d   1       7.789  79.933  77.508  0.00  0.00     0.091 C 
ATOM     20  N   PRO d   1       7.210  80.690  78.608  0.00  0.00    -0.337 N 
ATOM     21  C   LYS d   1       7.690  81.877  78.921  0.00  0.00     0.243 C 
ATOM     22  CD  PRO d   1       6.183  79.921  79.330  0.00  0.00    -0.001 C 
ATOM     23  O   LYS d   1       8.698  82.318  78.369  0.00  0.00    -0.271 OA
ATOM     24  CG  PRO d   1       6.459  78.533  78.891  0.00  0.00    -0.048 C 
ATOM     25  H28 PRO d   1       5.171  80.237  79.038  0.00  0.00     0.064 H 
ATOM     26  H29 PRO d   1       6.300  80.025  80.419  0.00  0.00     0.064 H 
ATOM     27  CB  PRO d   1       6.903  78.688  77.465  0.00  0.00    -0.036 C 
ATOM     28  H26 PRO d   1       7.254  78.080  79.502  0.00  0.00     0.035 H 
ATOM     29  H27 PRO d   1       5.551  77.915  78.954  0.00  0.00     0.035 H 
ATOM     30  H24 PRO d   1       7.474  77.809  77.132  0.00  0.00     0.036 H 
ATOM     31  H25 PRO d   1       6.042  78.840  76.798  0.00  0.00     0.036 H 
ATOM     32  H23 PRO d   1       8.838  79.670  77.712  0.00  0.00     0.087 H 
BRANCH  21  33
ATOM     33  CA  LYS d   1       7.040  82.611  80.111  0.00  0.00     0.089 C 
ATOM     34  H11 LYS d   1       7.266  83.684  80.025  0.00  0.00     0.087 H 
BRANCH  33  35
ATOM     35  N   LYS d   1       5.584  82.458  80.243  0.00  0.00    -0.346 N 
ATOM     36  C   PRO d   1       4.736  82.295  79.222  0.00  0.00     0.249 C 
ATOM     37  O   PRO d   1       5.063  82.362  78.033  0.00  0.00    -0.271 OA
ATOM     38  H10 LYS d   1       5.199  82.477  81.166  0.00  0.00     0.163 HD
BRANCH  36  39
ATOM     39  CA  PRO d   1       3.301  81.978  79.622  0.00  0.00     0.178 C 
ATOM     40  N   PRO d   1       2.298  82.326  78.590  0.00  0.00    -0.062 N 
ATOM     41  CD  PRO d   1       1.855  81.141  77.824  0.00  0.00     0.083 C 
ATOM     42  H1  PRO d   1       2.705  82.992  77.952  0.00  0.00     0.278 HD
ATOM     43  H2  PRO d   1       1.497  82.740  79.041  0.00  0.00     0.278 HD
ATOM     44  CG  PRO d   1       2.079  79.999  78.739  0.00  0.00    -0.040 C 
ATOM     45  H8  PRO d   1       2.451  81.026  76.907  0.00  0.00     0.075 H 
ATOM     46  H9  PRO d   1       0.790  81.225  77.561  0.00  0.00     0.075 H 
ATOM     47  CB  PRO d   1       3.183  80.446  79.721  0.00  0.00    -0.028 C 
ATOM     48  H6  PRO d   1       1.155  79.762  79.286  0.00  0.00     0.035 H 
ATOM     49  H7  PRO d   1       2.407  79.115  78.173  0.00  0.00     0.035 H 
ATOM     50  H4  PRO d   1       2.912  80.156  80.747  0.00  0.00     0.036 H 
ATOM     51  H5  PRO d   1       4.140  79.978  79.448  0.00  0.00     0.036 H 
ATOM     52  H3  PRO d   1       3.062  82.472  80.575  0.00  0.00     0.099 H 
ENDBRANCH  36  39
ENDBRANCH  33  35
BRANCH  33  53
ATOM     53  CB  LYS d   1       7.691  82.035  81.371  0.00  0.00    -0.038 C 
ATOM     54  H12 LYS d   1       8.657  81.599  81.077  0.00  0.00     0.036 H 
ATOM     55  H13 LYS d   1       7.032  81.242  81.754  0.00  0.00     0.036 H 
BRANCH  53  56
ATOM     56  CG  LYS d   1       7.951  83.005  82.508  0.00  0.00    -0.061 C 
ATOM     57  H14 LYS d   1       7.000  83.453  82.831  0.00  0.00     0.033 H 
ATOM     58  H15 LYS d   1       8.632  83.798  82.164  0.00  0.00     0.033 H 
BRANCH  56  59
ATOM     59  CD  LYS d   1       8.590  82.260  83.686  0.00  0.00    -0.043 C 
ATOM     60  H16 LYS d   1       8.828  81.231  83.378  0.00  0.00     0.035 H 
ATOM     61  H17 LYS d   1       7.882  82.237  84.527  0.00  0.00     0.035 H 
BRANCH  59  62
ATOM     62  CE  LYS d   1       9.874  82.963  84.128  0.00  0.00     0.080 C 
ATOM     63  H18 LYS d   1       9.627  83.999  84.405  0.00  0.00     0.075 H 
ATOM     64  H19 LYS d   1      10.578  82.967  83.283  0.00  0.00     0.075 H 
BRANCH  62  65
ATOM     65  NZ  LYS d   1      10.541  82.303  85.300  0.00  0.00    -0.079 N 
ATOM     66  H20 LYS d   1      11.377  82.812  85.541  0.00  0.00     0.274 HD
ATOM     67  H21 LYS d   1      10.783  81.355  85.059  0.00  0.00     0.274 HD
ATOM     68  H22 LYS d   1       9.911  82.300  86.087  0.00  0.00     0.274 HD
ENDBRANCH  62  65
ENDBRANCH  59  62
ENDBRANCH  56  59
ENDBRANCH  53  56
ENDBRANCH  33  53
ENDBRANCH  21  33
ENDBRANCH  16  19
ENDBRANCH  13  15
BRANCH  13  69
ATOM     69  CB  LEU d   1       4.868  81.896  74.205  0.00  0.00    -0.035 C 
ATOM     70  H32 LEU d   1       4.280  81.126  74.726  0.00  0.00     0.037 H 
ATOM     71  H33 LEU d   1       4.720  81.799  73.119  0.00  0.00     0.037 H 
BRANCH  69  72
ATOM     72  CG  LEU d   1       4.420  83.267  74.656  0.00  0.00    -0.059 C 
ATOM     73  H34 LEU d   1       5.302  83.879  74.895  0.00  0.00     0.038 H 
BRANCH  72  74
ATOM     74  CD1 LEU d   1       3.638  83.963  73.526  0.00  0.00    -0.073 C 
ATOM     75  H35 LEU d   1       3.316  84.960  73.863  0.00  0.00     0.028 H 
ATOM     76  H36 LEU d   1       2.755  83.361  73.266  0.00  0.00     0.028 H 
ATOM     77  H37 LEU d   1       4.285  84.066  72.642  0.00  0.00     0.028 H 
ENDBRANCH  72  74
BRANCH  72  78
ATOM     78  CD2 LEU d   1       3.607  83.091  75.894  0.00  0.00    -0.073 C 
ATOM     79  H38 LEU d   1       4.214  82.591  76.663  0.00  0.00     0.028 H 
ATOM     80  H39 LEU d   1       2.723  82.477  75.668  0.00  0.00     0.028 H 
ATOM     81  H40 LEU d   1       3.285  84.075  76.264  0.00  0.00     0.028 H 
ENDBRANCH  72  78
ENDBRANCH  69  72
ENDBRANCH  13  69
ENDBRANCH  10  13
ENDBRANCH   7   9
BRANCH   7  82
ATOM     82  CB  LYS d   1       9.368  84.979  74.555  0.00  0.00    -0.038 C 
ATOM     83  H43 LYS d   1       8.714  85.554  75.227  0.00  0.00     0.036 H 
ATOM     84  H44 LYS d   1      10.190  85.621  74.206  0.00  0.00     0.036 H 
BRANCH  82  85
ATOM     85  CG  LYS d   1       9.961  83.870  75.339  0.00  0.00    -0.061 C 
ATOM     86  H45 LYS d   1      10.682  83.313  74.722  0.00  0.00     0.033 H 
ATOM     87  H46 LYS d   1       9.171  83.188  75.686  0.00  0.00     0.033 H 
BRANCH  85  88
ATOM     88  CD  LYS d   1      10.663  84.496  76.520  0.00  0.00    -0.043 C 
ATOM     89  H47 LYS d   1      10.837  83.732  77.292  0.00  0.00     0.035 H 
ATOM     90  H48 LYS d   1      10.039  85.301  76.935  0.00  0.00     0.035 H 
BRANCH  88  91
ATOM     91  CE  LYS d   1      12.020  85.080  76.054  0.00  0.00     0.080 C 
ATOM     92  H49 LYS d   1      11.857  85.534  75.065  0.00  0.00     0.075 H 
ATOM     93  H50 LYS d   1      12.722  84.239  75.960  0.00  0.00     0.075 H 
BRANCH  91  94
ATOM     94  NZ  LYS d   1      12.682  86.120  76.920  0.00  0.00    -0.079 N 
ATOM     95  H51 LYS d   1      13.550  86.407  76.496  0.00  0.00     0.274 HD
ATOM     96  H52 LYS d   1      12.866  85.731  77.832  0.00  0.00     0.274 HD
ATOM     97  H53 LYS d   1      12.073  86.918  77.012  0.00  0.00     0.274 HD
ENDBRANCH  91  94
ENDBRANCH  88  91
ENDBRANCH  85  88
ENDBRANCH  82  85
ENDBRANCH   7  82
ENDBRANCH   4   7
ENDBRANCH   1   3
BRANCH   1  98
ATOM     98  C   LYS d   1      11.818  85.947  70.983  0.00  0.00     0.241 C 
ATOM     99  O   LYS d   1      11.988  86.804  71.857  0.00  0.00    -0.271 OA
ATOM    100  N   LEU d   1      12.779  85.131  70.559  0.00  0.00    -0.346 N 
ATOM    101  H67 LEU d   1      12.569  84.436  69.871  0.00  0.00     0.163 HD
BRANCH 100 102
ATOM    102  CA  LEU d   1      14.131  85.236  71.082  0.00  0.00     0.089 C 
ATOM    103  H68 LEU d   1      14.091  85.500  72.149  0.00  0.00     0.087 H 
BRANCH 102 104
ATOM    104  C   LEU d   1      14.849  86.314  70.322  0.00  0.00     0.241 C 
ATOM    105  O   LEU d   1      15.040  86.204  69.112  0.00  0.00    -0.271 OA
ATOM    106  N   ARG d   1      15.237  87.354  71.049  0.00  0.00    -0.346 N 
ATOM    107  H78 ARG d   1      15.023  87.365  72.026  0.00  0.00     0.163 HD
BRANCH 106 108
ATOM    108  CA  ARG d   1      15.962  88.477  70.479  0.00  0.00     0.089 C 
ATOM    109  H79 ARG d   1      15.824  88.475  69.388  0.00  0.00     0.087 H 
BRANCH 108 110
ATOM    110  C   ARG d   1      17.448  88.333  70.789  0.00  0.00     0.241 C 
ATOM    111  O   ARG d   1      17.827  88.058  71.939  0.00  0.00    -0.271 OA
ATOM    112  N   PHE d   1      18.281  88.520  69.765  0.00  0.00    -0.346 N 
ATOM    113  H91 PHE d   1      17.905  88.767  68.872  0.00  0.00     0.163 HD
BRANCH 112 114
ATOM    114  CA  PHE d   1      19.729  88.374  69.912  0.00  0.00     0.093 C 
ATOM    115  H92 PHE d   1      19.921  88.168  70.975  0.00  0.00     0.088 H 
BRANCH 114 116
ATOM    116  C   PHE d   1      20.560  89.606  69.546  0.00  0.00     0.241 C 
ATOM    117  O   PHE d   1      21.663  89.777  70.070  0.00  0.00    -0.271 OA
ATOM    118  N   ASP d   1      20.049  90.448  68.644  0.00  0.00    -0.344 N 
ATOM    119 0H10 ASP d   1      19.159  90.246  68.235  0.00  0.00     0.163 HD
BRANCH 118 120
ATOM    120  CA  ASP d   1      20.765  91.664  68.239  0.00  0.00     0.105 C 
ATOM    121 1H10 ASP d   1      21.713  91.367  67.767  0.00  0.00     0.090 H 
BRANCH 120 122
ATOM    122  C   ASP d   1      21.079  92.559  69.447  0.00  0.00     0.197 C 
ATOM    123  O   ASP d   1      22.182  93.124  69.561  0.00  0.00    -0.646 OA
ATOM    124  OXT ASP d   1      20.239  92.745  70.347  0.00  0.00    -0.646 OA
ENDBRANCH 120 122
BRANCH 120 125
ATOM    125  CB  ASP d   1      19.940  92.452  67.231  0.00  0.00     0.044 C 
ATOM    126 2H10 ASP d   1      20.607  92.817  66.437  0.00  0.00     0.053 H 
ATOM    127 3H10 ASP d   1      19.478  93.308  67.745  0.00  0.00     0.053 H 
BRANCH 125 128
ATOM    128  CG  ASP d   1      18.845  91.613  66.600  0.00  0.00     0.175 C 
ATOM    129  OD1 ASP d   1      19.112  90.942  65.568  0.00  0.00    -0.648 OA
ATOM    130  OD2 ASP d   1      17.680  91.566  67.074  0.00  0.00    -0.648 OA
ENDBRANCH 125 128
ENDBRANCH 120 125
ENDBRANCH 118 120
ENDBRANCH 114 116
BRANCH 114 131
ATOM    131  CB  PHE d   1      20.207  87.166  69.104  0.00  0.00    -0.014 C 
ATOM    132  H93 PHE d   1      21.302  87.099  69.188  0.00  0.00     0.043 H 
ATOM    133  H94 PHE d   1      19.928  87.316  68.051  0.00  0.00     0.043 H 
BRANCH 131 134
ATOM    134  CG  PHE d   1      19.614  85.878  69.574  0.00  0.00    -0.056 A 
ATOM    135  CD1 PHE d   1      18.579  85.283  68.880  0.00  0.00    -0.077 A 
ATOM    136  CE1 PHE d   1      18.045  84.113  69.321  0.00  0.00    -0.082 A 
ATOM    137  H95 PHE d   1      18.191  85.750  67.982  0.00  0.00     0.084 H 
ATOM    138  CZ  PHE d   1      18.520  83.528  70.478  0.00  0.00    -0.083 A 
ATOM    139  H97 PHE d   1      17.245  83.639  68.764  0.00  0.00     0.083 H 
ATOM    140  CE2 PHE d   1      19.541  84.109  71.180  0.00  0.00    -0.082 A 
ATOM    141  H99 PHE d   1      18.081  82.602  70.833  0.00  0.00     0.083 H 
ATOM    142  CD2 PHE d   1      20.077  85.278  70.738  0.00  0.00    -0.077 A 
ATOM    143  H98 PHE d   1      19.920  83.641  72.082  0.00  0.00     0.083 H 
ATOM    144  H96 PHE d   1      20.875  85.747  71.301  0.00  0.00     0.084 H 
ENDBRANCH 131 134
ENDBRANCH 114 131
ENDBRANCH 112 114
ENDBRANCH 108 110
BRANCH 108 145
ATOM    145  CB  ARG d   1      15.419  89.795  71.043  0.00  0.00    -0.036 C 
ATOM    146  H80 ARG d   1      15.904  90.628  70.513  0.00  0.00     0.036 H 
ATOM    147  H81 ARG d   1      15.669  89.846  72.113  0.00  0.00     0.036 H 
BRANCH 145 148
ATOM    148  CG  ARG d   1      13.891  89.942  70.890  0.00  0.00    -0.048 C 
ATOM    149  H82 ARG d   1      13.408  89.458  71.752  0.00  0.00     0.035 H 
ATOM    150  H83 ARG d   1      13.585  89.433  69.964  0.00  0.00     0.035 H 
BRANCH 148 151
ATOM    151  CD  ARG d   1      13.419  91.379  70.823  0.00  0.00     0.009 C 
ATOM    152  H84 ARG d   1      14.051  91.925  70.107  0.00  0.00     0.064 H 
ATOM    153  H85 ARG d   1      13.521  91.831  71.821  0.00  0.00     0.064 H 
BRANCH 151 154
ATOM    154  NE  ARG d   1      12.023  91.490  70.397  0.00  0.00    -0.227 N 
ATOM    155  CZ  ARG d   1      11.646  91.681  69.133  0.00  0.00     0.665 C 
ATOM    156  NH1 ARG d   1      12.561  91.762  68.171  0.00  0.00    -0.235 N 
ATOM    157  NH2 ARG d   1      10.357  91.780  68.829  0.00  0.00    -0.235 N 
ATOM    158  H87 ARG d   1      12.270  91.910  67.194  0.00  0.00     0.174 HD
ATOM    159  H88 ARG d   1      13.561  91.677  68.403  0.00  0.00     0.174 HD
ATOM    160  H89 ARG d   1       9.646  91.718  69.572  0.00  0.00     0.174 HD
ATOM    161  H90 ARG d   1      10.068  91.919  67.850  0.00  0.00     0.174 HD
ATOM    162  H86 ARG d   1      11.289  91.416  71.116  0.00  0.00     0.177 HD
ENDBRANCH 151 154
ENDBRANCH 148 151
ENDBRANCH 145 148
ENDBRANCH 108 145
ENDBRANCH 106 108
ENDBRANCH 102 104
BRANCH 102 163
ATOM    163  CB  LEU d   1      14.872  83.924  70.922  0.00  0.00    -0.035 C 
ATOM    164  H69 LEU d   1      15.937  84.097  71.135  0.00  0.00     0.037 H 
ATOM    165  H70 LEU d   1      14.756  83.583  69.883  0.00  0.00     0.037 H 
BRANCH 163 166
ATOM    166  CG  LEU d   1      14.370  82.832  71.844  0.00  0.00    -0.059 C 
ATOM    167  H71 LEU d   1      13.327  82.596  71.584  0.00  0.00     0.038 H 
BRANCH 166 168
ATOM    168  CD1 LEU d   1      15.216  81.564  71.645  0.00  0.00    -0.073 C 
ATOM    169  H72 LEU d   1      14.851  80.771  72.315  0.00  0.00     0.028 H 
ATOM    170  H73 LEU d   1      16.268  81.785  71.877  0.00  0.00     0.028 H 
ATOM    171  H74 LEU d   1      15.134  81.228  70.601  0.00  0.00     0.028 H 
ENDBRANCH 166 168
BRANCH 166 172
ATOM    172  CD2 LEU d   1      14.405  83.339  73.295  0.00  0.00    -0.073 C 
ATOM    173  H75 LEU d   1      13.786  84.244  73.382  0.00  0.00     0.028 H 
ATOM    174  H76 LEU d   1      15.442  83.575  73.576  0.00  0.00     0.028 H 
ATOM    175  H77 LEU d   1      14.012  82.560  73.965  0.00  0.00     0.028 H 
ENDBRANCH 166 172
ENDBRANCH 163 166
ENDBRANCH 102 163
ENDBRANCH 100 102
ENDBRANCH   1  98
BRANCH   1 176
ATOM    176  CB  LYS d   1      10.123  86.945  69.483  0.00  0.00    -0.038 C 
ATOM    177  H56 LYS d   1       9.955  87.816  70.133  0.00  0.00     0.036 H 
ATOM    178  H57 LYS d   1       9.200  86.717  68.929  0.00  0.00     0.036 H 
BRANCH 176 179
ATOM    179  CG  LYS d   1      11.195  87.295  68.491  0.00  0.00    -0.061 C 
ATOM    180  H58 LYS d   1      11.306  86.481  67.760  0.00  0.00     0.033 H 
ATOM    181  H59 LYS d   1      12.150  87.451  69.014  0.00  0.00     0.033 H 
BRANCH 179 182
ATOM    182  CD  LYS d   1      10.789  88.552  67.791  0.00  0.00    -0.043 C 
ATOM    183  H60 LYS d   1      10.980  89.406  68.457  0.00  0.00     0.035 H 
ATOM    184  H61 LYS d   1       9.714  88.499  67.562  0.00  0.00     0.035 H 
BRANCH 182 185
ATOM    185  CE  LYS d   1      11.547  88.759  66.509  0.00  0.00     0.080 C 
ATOM    186  H62 LYS d   1      11.715  87.794  66.008  0.00  0.00     0.075 H 
ATOM    187  H63 LYS d   1      12.515  89.239  66.715  0.00  0.00     0.075 H 
BRANCH 185 188
ATOM    188  NZ  LYS d   1      10.713  89.637  65.657  0.00  0.00    -0.079 N 
ATOM    189  H64 LYS d   1      11.185  89.803  64.782  0.00  0.00     0.274 HD
ATOM    190  H65 LYS d   1      10.559  90.515  66.128  0.00  0.00     0.274 HD
ATOM    191  H66 LYS d   1       9.827  89.191  65.481  0.00  0.00     0.274 HD
ENDBRANCH 185 188
ENDBRANCH 182 185
ENDBRANCH 179 182
ENDBRANCH 176 179
ENDBRANCH   1 176
TORSDOF 49
