REMARK WARNING: 32 MAX_TORS EXCEEDED!!!
REMARK  51 active torsions:
REMARK  status: ('A' for Active; 'I' for Inactive)
REMARK    1  A    between atoms: N_1  and  CA_2 
REMARK    2  A    between atoms: CA_2  and  C_3 
REMARK    3  A    between atoms: CA_2  and  CB_5 
REMARK       I    between atoms: C_3  and  N_7 
REMARK    4  A    between atoms: CB_5  and  OG_6 
REMARK    5  A    between atoms: N_7  and  CA_8 
REMARK    6  A    between atoms: CA_8  and  C_9 
REMARK    7  A    between atoms: CA_8  and  CB_11 
REMARK       I    between atoms: C_9  and  N_18 
REMARK    8  A    between atoms: CB_11  and  CG_12 
REMARK    9  A    between atoms: CG_12  and  CD_13 
REMARK   10  A    between atoms: CD_13  and  NE_14 
REMARK       I    between atoms: NE_14  and  CZ_15 
REMARK       I    between atoms: CZ_15  and  NH1_16 
REMARK   11  A    between atoms: N_18  and  CA_19 
REMARK   12  A    between atoms: CA_19  and  C_20 
REMARK   13  A    between atoms: CA_19  and  CB_22 
REMARK       I    between atoms: C_20  and  N_28 
REMARK   14  A    between atoms: CB_22  and  CG_23 
REMARK   15  A    between atoms: N_28  and  CA_29 
REMARK   16  A    between atoms: CA_29  and  C_30 
REMARK   17  A    between atoms: CA_29  and  CB_32 
REMARK       I    between atoms: C_30  and  N_37 
REMARK   18  A    between atoms: CB_32  and  CG_33 
REMARK   19  A    between atoms: CG_33  and  CD_34 
REMARK   20  A    between atoms: CD_34  and  CE_35 
REMARK   21  A    between atoms: CE_35  and  NZ_36 
REMARK   22  A    between atoms: N_37  and  CA_38 
REMARK   23  A    between atoms: CA_38  and  C_39 
REMARK   24  A    between atoms: CA_38  and  CB_41 
REMARK       I    between atoms: C_39  and  N_46 
REMARK   25  A    between atoms: CB_41  and  CG_42 
REMARK   26  A    between atoms: CG_42  and  CD_43 
REMARK   27  A    between atoms: CD_43  and  CE_44 
REMARK   28  A    between atoms: CE_44  and  NZ_45 
REMARK   29  A    between atoms: N_46  and  CA_47 
REMARK   30  A    between atoms: CA_47  and  C_48 
REMARK   31  A    between atoms: CA_47  and  CB_50 
REMARK       I    between atoms: C_48  and  N_54 
REMARK   32  A    between atoms: CB_50  and  CG_51 
REMARK   33  A    between atoms: CG_51  and  CD1_52 
REMARK   34  A    between atoms: CG_51  and  CD2_53 
REMARK   35  A    between atoms: N_54  and  CA_55 
REMARK   36  A    between atoms: CA_55  and  C_56 
REMARK   37  A    between atoms: CA_55  and  CB_58 
REMARK       I    between atoms: C_56  and  N_62 
REMARK   38  A    between atoms: CB_58  and  CG_59 
REMARK   39  A    between atoms: CG_59  and  SD_60 
REMARK   40  A    between atoms: SD_60  and  CE_61 
REMARK   41  A    between atoms: N_62  and  CA_63 
REMARK   42  A    between atoms: CA_63  and  C_64 
REMARK   43  A    between atoms: CA_63  and  CB_66 
REMARK       I    between atoms: C_64  and  N_73 
REMARK   44  A    between atoms: CB_66  and  CG_67 
REMARK   45  A    between atoms: N_73  and  CA_74 
REMARK   46  A    between atoms: CA_74  and  C_75 
REMARK   47  A    between atoms: CA_74  and  CB_77 
REMARK   48  A    between atoms: CB_77  and  CG_78 
REMARK   49  A    between atoms: CG_78  and  CD_79 
REMARK   50  A    between atoms: CD_79  and  CE_80 
REMARK   51  A    between atoms: CE_80  and  NZ_81 
ROOT
ATOM      1  CA  LYS d   1      10.698 152.715  70.087  0.00  0.00     0.089 C 
ATOM      2  H42 LYS d   1      10.686 151.772  69.522  0.00  0.00     0.087 H 
ENDROOT
BRANCH   1   3
ATOM      3  N   LYS d   1       9.803 152.662  71.207  0.00  0.00    -0.346 N 
ATOM      4  C   LYS d   1       9.653 151.558  71.945  0.00  0.00     0.241 C 
ATOM      5  O   LYS d   1       9.904 150.427  71.519  0.00  0.00    -0.271 OA
ATOM      6  H41 LYS d   1       9.274 153.477  71.443  0.00  0.00     0.163 HD
BRANCH   4   7
ATOM      7  CA  LYS d   1       9.103 151.777  73.377  0.00  0.00     0.089 C 
ATOM      8  H29 LYS d   1       8.450 152.661  73.330  0.00  0.00     0.087 H 
BRANCH   7   9
ATOM      9  N   LYS d   1       8.286 150.685  73.912  0.00  0.00    -0.346 N 
ATOM     10  C   HIS d   1       7.076 150.431  73.432  0.00  0.00     0.241 C 
ATOM     11  O   HIS d   1       6.645 151.008  72.438  0.00  0.00    -0.271 OA
ATOM     12  H28 LYS d   1       8.648 150.120  74.654  0.00  0.00     0.163 HD
BRANCH  10  13
ATOM     13  CA  HIS d   1       6.241 149.331  74.120  0.00  0.00     0.094 C 
ATOM     14  H22 HIS d   1       6.393 148.399  73.556  0.00  0.00     0.088 H 
BRANCH  13  15
ATOM     15  N   HIS d   1       6.624 149.065  75.505  0.00  0.00    -0.346 N 
ATOM     16  C   ARG d   1       7.662 148.291  75.801  0.00  0.00     0.241 C 
ATOM     17  O   ARG d   1       8.321 147.728  74.952  0.00  0.00    -0.271 OA
ATOM     18  H21 HIS d   1       6.093 149.475  76.246  0.00  0.00     0.163 HD
BRANCH  16  19
ATOM     19  CA  ARG d   1       8.016 148.082  77.261  0.00  0.00     0.089 C 
ATOM     20  H9  ARG d   1       9.081 148.334  77.373  0.00  0.00     0.087 H 
BRANCH  19  21
ATOM     21  N   ARG d   1       7.290 148.915  78.206  0.00  0.00    -0.346 N 
ATOM     22  C   SER d   1       7.512 150.225  78.323  0.00  0.00     0.251 C 
ATOM     23  O   SER d   1       8.496 150.795  77.810  0.00  0.00    -0.271 OA
ATOM     24  H8  ARG d   1       6.598 148.490  78.790  0.00  0.00     0.163 HD
BRANCH  22  25
ATOM     25  CA  SER d   1       6.535 150.981  79.255  0.00  0.00     0.195 C 
ATOM     26  H4  SER d   1       5.997 150.239  79.864  0.00  0.00     0.102 H 
BRANCH  25  27
ATOM     27  N   SER d   1       7.281 151.891  80.168  0.00  0.00    -0.064 N 
ATOM     28  H1  SER d   1       6.630 152.374  80.767  0.00  0.00     0.275 HD
ATOM     29  H2  SER d   1       7.799 152.563  79.623  0.00  0.00     0.275 HD
ATOM     30  H3  SER d   1       7.919 151.352  80.732  0.00  0.00     0.275 HD
ENDBRANCH  25  27
BRANCH  25  31
ATOM     31  CB  SER d   1       5.503 151.784  78.448  0.00  0.00     0.051 C 
ATOM     32  H5  SER d   1       6.034 152.557  77.874  0.00  0.00     0.077 H 
ATOM     33  H6  SER d   1       4.807 152.263  79.152  0.00  0.00     0.077 H 
BRANCH  31  34
ATOM     34  OG  SER d   1       4.749 150.985  77.540  0.00  0.00    -0.398 OA
ATOM     35  H7  SER d   1       4.131 151.536  77.073  0.00  0.00     0.209 HD
ENDBRANCH  31  34
ENDBRANCH  25  31
ENDBRANCH  22  25
ENDBRANCH  19  21
BRANCH  19  36
ATOM     36  CB  ARG d   1       7.843 146.602  77.605  0.00  0.00    -0.036 C 
ATOM     37  H10 ARG d   1       8.825 146.209  77.906  0.00  0.00     0.036 H 
ATOM     38  H11 ARG d   1       7.502 146.083  76.697  0.00  0.00     0.036 H 
BRANCH  36  39
ATOM     39  CG  ARG d   1       6.849 146.287  78.726  0.00  0.00    -0.048 C 
ATOM     40  H12 ARG d   1       6.145 145.526  78.358  0.00  0.00     0.035 H 
ATOM     41  H13 ARG d   1       6.300 147.209  78.969  0.00  0.00     0.035 H 
BRANCH  39  42
ATOM     42  CD  ARG d   1       7.497 145.760  80.014  0.00  0.00     0.009 C 
ATOM     43  H14 ARG d   1       7.626 146.601  80.712  0.00  0.00     0.064 H 
ATOM     44  H15 ARG d   1       8.481 145.337  79.764  0.00  0.00     0.064 H 
BRANCH  42  45
ATOM     45  NE  ARG d   1       6.700 144.730  80.668  0.00  0.00    -0.227 N 
ATOM     46  CZ  ARG d   1       7.167 143.907  81.605  0.00  0.00     0.665 C 
ATOM     47  NH1 ARG d   1       8.436 143.988  81.979  0.00  0.00    -0.235 N 
ATOM     48  NH2 ARG d   1       6.374 142.993  82.166  0.00  0.00    -0.235 N 
ATOM     49  H17 ARG d   1       8.801 143.353  82.703  0.00  0.00     0.174 HD
ATOM     50  H18 ARG d   1       9.057 144.686  81.545  0.00  0.00     0.174 HD
ATOM     51  H19 ARG d   1       5.387 142.923  81.881  0.00  0.00     0.174 HD
ATOM     52  H20 ARG d   1       6.749 142.357  82.884  0.00  0.00     0.174 HD
ATOM     53  H16 ARG d   1       5.714 144.632  80.388  0.00  0.00     0.177 HD
ENDBRANCH  42  45
ENDBRANCH  39  42
ENDBRANCH  36  39
ENDBRANCH  19  36
ENDBRANCH  16  19
ENDBRANCH  13  15
BRANCH  13  54
ATOM     54  CB  HIS d   1       4.760 149.707  74.034  0.00  0.00     0.004 C 
ATOM     55  H23 HIS d   1       4.459 149.688  72.976  0.00  0.00     0.046 H 
ATOM     56  H24 HIS d   1       4.638 150.725  74.432  0.00  0.00     0.046 H 
BRANCH  54  57
ATOM     57  CG  HIS d   1       3.855 148.790  74.799  0.00  0.00     0.053 A 
ATOM     58  ND1 HIS d   1       2.784 148.142  74.216  0.00  0.00    -0.247 NA
ATOM     59  CE1 HIS d   1       2.147 147.428  75.131  0.00  0.00     0.064 A 
ATOM     60  NE2 HIS d   1       2.759 147.598  76.291  0.00  0.00    -0.359 N 
ATOM     61  H26 HIS d   1       1.269 146.807  74.958  0.00  0.00     0.143 H 
ATOM     62  CD2 HIS d   1       3.828 148.446  76.112  0.00  0.00     0.002 A 
ATOM     63  H27 HIS d   1       2.481 147.166  77.184  0.00  0.00     0.166 HD
ATOM     64  H25 HIS d   1       4.523 148.779  76.881  0.00  0.00     0.114 H 
ENDBRANCH  54  57
ENDBRANCH  13  54
ENDBRANCH  10  13
ENDBRANCH   7   9
BRANCH   7  65
ATOM     65  CB  LYS d   1      10.247 152.101  74.333  0.00  0.00    -0.038 C 
ATOM     66  H30 LYS d   1       9.823 152.602  75.215  0.00  0.00     0.036 H 
ATOM     67  H31 LYS d   1      10.938 152.786  73.819  0.00  0.00     0.036 H 
BRANCH  65  68
ATOM     68  CG  LYS d   1      11.046 150.897  74.813  0.00  0.00    -0.061 C 
ATOM     69  H32 LYS d   1      11.341 150.295  73.941  0.00  0.00     0.033 H 
ATOM     70  H33 LYS d   1      10.413 150.292  75.479  0.00  0.00     0.033 H 
BRANCH  68  71
ATOM     71  CD  LYS d   1      12.315 151.320  75.579  0.00  0.00    -0.043 C 
ATOM     72  H34 LYS d   1      12.021 151.857  76.493  0.00  0.00     0.035 H 
ATOM     73  H35 LYS d   1      12.915 151.985  74.941  0.00  0.00     0.035 H 
BRANCH  71  74
ATOM     74  CE  LYS d   1      13.163 150.095  75.966  0.00  0.00     0.080 C 
ATOM     75  H36 LYS d   1      13.068 149.341  75.171  0.00  0.00     0.075 H 
ATOM     76  H37 LYS d   1      12.772 149.685  76.909  0.00  0.00     0.075 H 
BRANCH  74  77
ATOM     77  NZ  LYS d   1      14.627 150.408  76.153  0.00  0.00    -0.079 N 
ATOM     78  H38 LYS d   1      15.121 149.566  76.404  0.00  0.00     0.274 HD
ATOM     79  H39 LYS d   1      14.733 151.091  76.886  0.00  0.00     0.274 HD
ATOM     80  H40 LYS d   1      15.004 150.776  75.294  0.00  0.00     0.274 HD
ENDBRANCH  74  77
ENDBRANCH  71  74
ENDBRANCH  68  71
ENDBRANCH  65  68
ENDBRANCH   7  65
ENDBRANCH   4   7
ENDBRANCH   1   3
BRANCH   1  81
ATOM     81  C   LYS d   1      12.014 152.957  70.722  0.00  0.00     0.241 C 
ATOM     82  O   LYS d   1      12.112 153.791  71.598  0.00  0.00    -0.271 OA
ATOM     83  N   LEU d   1      13.025 152.198  70.329  0.00  0.00    -0.346 N 
ATOM     84  H54 LEU d   1      12.876 151.460  69.671  0.00  0.00     0.163 HD
BRANCH  83  85
ATOM     85  CA  LEU d   1      14.347 152.447  70.860  0.00  0.00     0.089 C 
ATOM     86  H55 LEU d   1      14.249 152.694  71.927  0.00  0.00     0.087 H 
BRANCH  85  87
ATOM     87  C   LEU d   1      14.984 153.623  70.156  0.00  0.00     0.241 C 
ATOM     88  O   LEU d   1      15.046 153.667  68.922  0.00  0.00    -0.271 OA
ATOM     89  N   MET d   1      15.407 154.591  70.953  0.00  0.00    -0.346 N 
ATOM     90  H65 MET d   1      15.247 154.511  71.937  0.00  0.00     0.163 HD
BRANCH  89  91
ATOM     91  CA  MET d   1      16.098 155.771  70.446  0.00  0.00     0.090 C 
ATOM     92  H66 MET d   1      15.884 155.897  69.374  0.00  0.00     0.087 H 
BRANCH  91  93
ATOM     93  C   MET d   1      17.572 155.606  70.664  0.00  0.00     0.241 C 
ATOM     94  O   MET d   1      18.036 155.613  71.789  0.00  0.00    -0.271 OA
ATOM     95  N   PHE d   1      18.325 155.406  69.608  0.00  0.00    -0.346 N 
ATOM     96  H74 PHE d   1      17.942 155.451  68.685  0.00  0.00     0.163 HD
BRANCH  95  97
ATOM     97  CA  PHE d   1      19.722 155.120  69.822  0.00  0.00     0.093 C 
ATOM     98  H75 PHE d   1      19.858 154.784  70.860  0.00  0.00     0.088 H 
BRANCH  97  99
ATOM     99  C   PHE d   1      20.540 156.372  69.612  0.00  0.00     0.241 C 
ATOM    100  O   PHE d   1      21.760 156.371  69.794  0.00  0.00    -0.271 OA
ATOM    101  N   LYS d   1      19.843 157.459  69.302  0.00  0.00    -0.345 N 
ATOM    102  H83 LYS d   1      18.914 157.355  68.947  0.00  0.00     0.163 HD
BRANCH 101 103
ATOM    103  CA  LYS d   1      20.397 158.811  69.465  0.00  0.00     0.096 C 
ATOM    104  H84 LYS d   1      19.568 159.533  69.422  0.00  0.00     0.089 H 
BRANCH 103 105
ATOM    105  C   LYS d   1      21.378 159.133  68.323  0.00  0.00     0.196 C 
ATOM    106  O   LYS d   1      21.111 159.928  67.407  0.00  0.00    -0.646 OA
ATOM    107  OXT LYS d   1      22.462 158.551  68.293  0.00  0.00    -0.646 OA
ENDBRANCH 103 105
BRANCH 103 108
ATOM    108  CB  LYS d   1      21.090 158.947  70.847  0.00  0.00    -0.037 C 
ATOM    109  H85 LYS d   1      21.318 160.010  71.015  0.00  0.00     0.036 H 
ATOM    110  H86 LYS d   1      22.027 158.371  70.821  0.00  0.00     0.036 H 
BRANCH 108 111
ATOM    111  CG  LYS d   1      20.242 158.439  72.036  0.00  0.00    -0.061 C 
ATOM    112  H87 LYS d   1      20.499 157.387  72.226  0.00  0.00     0.033 H 
ATOM    113  H88 LYS d   1      19.178 158.513  71.765  0.00  0.00     0.033 H 
BRANCH 111 114
ATOM    114  CD  LYS d   1      20.477 159.245  73.334  0.00  0.00    -0.043 C 
ATOM    115  H89 LYS d   1      20.696 160.290  73.068  0.00  0.00     0.035 H 
ATOM    116  H90 LYS d   1      21.337 158.815  73.867  0.00  0.00     0.035 H 
BRANCH 114 117
ATOM    117  CE  LYS d   1      19.244 159.217  74.272  0.00  0.00     0.080 C 
ATOM    118  H91 LYS d   1      19.131 158.195  74.663  0.00  0.00     0.075 H 
ATOM    119  H92 LYS d   1      18.355 159.483  73.681  0.00  0.00     0.075 H 
BRANCH 117 120
ATOM    120  NZ  LYS d   1      19.335 160.165  75.444  0.00  0.00    -0.079 N 
ATOM    121  H93 LYS d   1      18.500 160.089  76.004  0.00  0.00     0.274 HD
ATOM    122  H94 LYS d   1      19.427 161.110  75.106  0.00  0.00     0.274 HD
ATOM    123  H95 LYS d   1      20.138 159.929  76.005  0.00  0.00     0.274 HD
ENDBRANCH 117 120
ENDBRANCH 114 117
ENDBRANCH 111 114
ENDBRANCH 108 111
ENDBRANCH 103 108
ENDBRANCH 101 103
ENDBRANCH  97  99
BRANCH  97 124
ATOM    124  CB  PHE d   1      20.179 154.009  68.893  0.00  0.00    -0.014 C 
ATOM    125  H76 PHE d   1      21.278 154.016  68.857  0.00  0.00     0.043 H 
ATOM    126  H77 PHE d   1      19.777 154.208  67.888  0.00  0.00     0.043 H 
BRANCH 124 127
ATOM    127  CG  PHE d   1      19.736 152.670  69.314  0.00  0.00    -0.056 A 
ATOM    128  CD1 PHE d   1      18.860 151.963  68.540  0.00  0.00    -0.077 A 
ATOM    129  CE1 PHE d   1      18.495 150.704  68.894  0.00  0.00    -0.082 A 
ATOM    130  H78 PHE d   1      18.454 152.409  67.639  0.00  0.00     0.084 H 
ATOM    131  CZ  PHE d   1      18.974 150.151  70.068  0.00  0.00    -0.083 A 
ATOM    132  H80 PHE d   1      17.829 150.133  68.257  0.00  0.00     0.083 H 
ATOM    133  CE2 PHE d   1      19.853 150.843  70.844  0.00  0.00    -0.082 A 
ATOM    134  H82 PHE d   1      18.648 149.163  70.371  0.00  0.00     0.083 H 
ATOM    135  CD2 PHE d   1      20.222 152.101  70.476  0.00  0.00    -0.077 A 
ATOM    136  H81 PHE d   1      20.255 150.397  71.746  0.00  0.00     0.083 H 
ATOM    137  H79 PHE d   1      20.905 152.663  71.102  0.00  0.00     0.084 H 
ENDBRANCH 124 127
ENDBRANCH  97 124
ENDBRANCH  95  97
ENDBRANCH  91  93
BRANCH  91 138
ATOM    138  CB  MET d   1      15.647 157.009  71.220  0.00  0.00    -0.030 C 
ATOM    139  H67 MET d   1      16.075 157.900  70.737  0.00  0.00     0.037 H 
ATOM    140  H68 MET d   1      16.023 156.935  72.251  0.00  0.00     0.037 H 
BRANCH 138 141
ATOM    141  CG  MET d   1      14.164 157.158  71.265  0.00  0.00    -0.021 C 
ATOM    142  H69 MET d   1      13.897 158.110  71.746  0.00  0.00     0.049 H 
ATOM    143  H70 MET d   1      13.720 156.325  71.830  0.00  0.00     0.049 H 
BRANCH 141 144
ATOM    144  SD  MET d   1      13.581 157.139  69.618  0.00  0.00    -0.173 SA
BRANCH 144 145
ATOM    145  CE  MET d   1      14.068 158.816  69.042  0.00  0.00    -0.035 C 
ATOM    146  H71 MET d   1      13.757 158.949  67.995  0.00  0.00     0.041 H 
ATOM    147  H72 MET d   1      15.160 158.927  69.117  0.00  0.00     0.041 H 
ATOM    148  H73 MET d   1      13.579 159.576  69.669  0.00  0.00     0.041 H 
ENDBRANCH 144 145
ENDBRANCH 141 144
ENDBRANCH 138 141
ENDBRANCH  91 138
ENDBRANCH  89  91
ENDBRANCH  85  87
BRANCH  85 149
ATOM    149  CB  LEU d   1      15.216 151.219  70.738  0.00  0.00    -0.035 C 
ATOM    150  H56 LEU d   1      16.203 151.447  71.166  0.00  0.00     0.037 H 
ATOM    151  H57 LEU d   1      15.326 150.975  69.671  0.00  0.00     0.037 H 
BRANCH 149 152
ATOM    152  CG  LEU d   1      14.648 150.001  71.456  0.00  0.00    -0.059 C 
ATOM    153  H58 LEU d   1      13.664 149.745  71.036  0.00  0.00     0.038 H 
BRANCH 152 154
ATOM    154  CD1 LEU d   1      15.608 148.837  71.211  0.00  0.00    -0.073 C 
ATOM    155  H59 LEU d   1      15.229 147.936  71.716  0.00  0.00     0.028 H 
ATOM    156  H60 LEU d   1      16.601 149.091  71.610  0.00  0.00     0.028 H 
ATOM    157  H61 LEU d   1      15.685 148.646  70.130  0.00  0.00     0.028 H 
ENDBRANCH 152 154
BRANCH 152 158
ATOM    158  CD2 LEU d   1      14.471 150.345  72.952  0.00  0.00    -0.073 C 
ATOM    159  H62 LEU d   1      13.771 151.187  73.054  0.00  0.00     0.028 H 
ATOM    160  H63 LEU d   1      15.444 150.623  73.382  0.00  0.00     0.028 H 
ATOM    161  H64 LEU d   1      14.072 149.470  73.485  0.00  0.00     0.028 H 
ENDBRANCH 152 158
ENDBRANCH 149 152
ENDBRANCH  85 149
ENDBRANCH  83  85
ENDBRANCH   1  81
BRANCH   1 162
ATOM    162  CB  LYS d   1      10.366 153.879  69.166  0.00  0.00    -0.038 C 
ATOM    163  H43 LYS d   1      10.224 154.781  69.779  0.00  0.00     0.036 H 
ATOM    164  H44 LYS d   1       9.433 153.648  68.632  0.00  0.00     0.036 H 
BRANCH 162 165
ATOM    165  CG  LYS d   1      11.453 154.154  68.144  0.00  0.00    -0.061 C 
ATOM    166  H45 LYS d   1      11.461 153.339  67.406  0.00  0.00     0.033 H 
ATOM    167  H46 LYS d   1      12.424 154.191  68.660  0.00  0.00     0.033 H 
BRANCH 165 168
ATOM    168  CD  LYS d   1      11.232 155.475  67.416  0.00  0.00    -0.043 C 
ATOM    169  H47 LYS d   1      11.270 156.293  68.151  0.00  0.00     0.035 H 
ATOM    170  H48 LYS d   1      10.240 155.454  66.942  0.00  0.00     0.035 H 
BRANCH 168 171
ATOM    171  CE  LYS d   1      12.272 155.734  66.350  0.00  0.00     0.080 C 
ATOM    172  H49 LYS d   1      12.602 154.779  65.915  0.00  0.00     0.075 H 
ATOM    173  H50 LYS d   1      13.135 156.252  66.793  0.00  0.00     0.075 H 
BRANCH 171 174
ATOM    174  NZ  LYS d   1      11.659 156.598  65.273  0.00  0.00    -0.079 N 
ATOM    175  H51 LYS d   1      12.344 156.778  64.556  0.00  0.00     0.274 HD
ATOM    176  H52 LYS d   1      11.356 157.471  65.675  0.00  0.00     0.274 HD
ATOM    177  H53 LYS d   1      10.868 156.121  64.870  0.00  0.00     0.274 HD
ENDBRANCH 171 174
ENDBRANCH 168 171
ENDBRANCH 165 168
ENDBRANCH 162 165
ENDBRANCH   1 162
TORSDOF 51
