REMARK  23 active torsions:
REMARK  status: ('A' for Active; 'I' for Inactive)
REMARK    1  A    between atoms: N_1  and  CA_2 
REMARK    2  A    between atoms: CA_2  and  C_3 
REMARK    3  A    between atoms: CA_2  and  CB_5 
REMARK       I    between atoms: C_3  and  N_12 
REMARK    4  A    between atoms: CB_5  and  CG_6 
REMARK    5  A    between atoms: CG_6  and  CD_7 
REMARK    6  A    between atoms: CD_7  and  NE_8 
REMARK       I    between atoms: NE_8  and  CZ_9 
REMARK       I    between atoms: CZ_9  and  NH1_10 
REMARK    7  A    between atoms: N_12  and  CA_13 
REMARK    8  A    between atoms: CA_13  and  C_14 
REMARK    9  A    between atoms: CA_13  and  CB_16 
REMARK       I    between atoms: C_14  and  N_20 
REMARK   10  A    between atoms: CB_16  and  CG_17 
REMARK       I    between atoms: CG_17  and  ND2_19 
REMARK   11  A    between atoms: N_20  and  CA_21 
REMARK   12  A    between atoms: CA_21  and  C_22 
REMARK   13  A    between atoms: CA_21  and  CB_24 
REMARK       I    between atoms: C_22  and  N_28 
REMARK   14  A    between atoms: CB_24  and  CG_25 
REMARK   15  A    between atoms: CG_25  and  CD1_26 
REMARK   16  A    between atoms: CG_25  and  CD2_27 
REMARK   17  A    between atoms: N_28  and  CA_29 
REMARK   18  A    between atoms: CA_29  and  C_30 
REMARK   19  A    between atoms: CA_29  and  CB_32 
REMARK       I    between atoms: C_30  and  N_39 
REMARK   20  A    between atoms: CB_32  and  CG_33 
REMARK   21  A    between atoms: N_39  and  CA_40 
REMARK   22  A    between atoms: CA_40  and  C_41 
REMARK       I    between atoms: C_41  and  N_43 
REMARK   23  A    between atoms: CA_44  and  C_45 
ROOT
ATOM      1  CA  LEU d   1      14.242 152.004  70.806  0.00  0.00     0.089 C 
ATOM      2  H23 LEU d   1      14.184 152.189  71.889  0.00  0.00     0.087 H 
ENDROOT
BRANCH   1   3
ATOM      3  N   LEU d   1      12.874 151.984  70.290  0.00  0.00    -0.346 N 
ATOM      4  C   ASN d   1      11.865 152.552  70.946  0.00  0.00     0.241 C 
ATOM      5  O   ASN d   1      12.023 153.201  71.977  0.00  0.00    -0.271 OA
ATOM      6  H22 LEU d   1      12.691 151.530  69.418  0.00  0.00     0.163 HD
BRANCH   4   7
ATOM      7  CA  ASN d   1      10.467 152.354  70.352  0.00  0.00     0.097 C 
ATOM      8  H17 ASN d   1      10.499 151.494  69.668  0.00  0.00     0.088 H 
BRANCH   7   9
ATOM      9  N   ASN d   1       9.481 152.087  71.392  0.00  0.00    -0.346 N 
ATOM     10  C   ARG d   1       9.411 150.918  72.020  0.00  0.00     0.249 C 
ATOM     11  O   ARG d   1       9.992 149.913  71.619  0.00  0.00    -0.271 OA
ATOM     12  H16 ASN d   1       8.835 152.808  71.641  0.00  0.00     0.163 HD
BRANCH  10  13
ATOM     13  CA  ARG d   1       8.504 150.866  73.254  0.00  0.00     0.176 C 
ATOM     14  H4  ARG d   1       7.987 151.833  73.341  0.00  0.00     0.099 H 
BRANCH  13  15
ATOM     15  N   ARG d   1       7.469 149.798  73.151  0.00  0.00    -0.067 N 
ATOM     16  H1  ARG d   1       6.898 149.802  73.982  0.00  0.00     0.275 HD
ATOM     17  H2  ARG d   1       7.920 148.901  73.057  0.00  0.00     0.275 HD
ATOM     18  H3  ARG d   1       6.889 149.969  72.344  0.00  0.00     0.275 HD
ENDBRANCH  13  15
BRANCH  13  19
ATOM     19  CB  ARG d   1       9.356 150.655  74.506  0.00  0.00    -0.029 C 
ATOM     20  H5  ARG d   1       9.447 149.574  74.687  0.00  0.00     0.036 H 
ATOM     21  H6  ARG d   1       8.845 151.127  75.358  0.00  0.00     0.036 H 
BRANCH  19  22
ATOM     22  CG  ARG d   1      10.756 151.245  74.396  0.00  0.00    -0.047 C 
ATOM     23  H7  ARG d   1      10.685 152.204  73.862  0.00  0.00     0.035 H 
ATOM     24  H8  ARG d   1      11.380 150.548  73.817  0.00  0.00     0.035 H 
BRANCH  22  25
ATOM     25  CD  ARG d   1      11.432 151.493  75.731  0.00  0.00     0.009 C 
ATOM     26  H9  ARG d   1      10.913 152.317  76.243  0.00  0.00     0.064 H 
ATOM     27  H10 ARG d   1      12.479 151.776  75.550  0.00  0.00     0.064 H 
BRANCH  25  28
ATOM     28  NE  ARG d   1      11.406 150.314  76.594  0.00  0.00    -0.227 N 
ATOM     29  CZ  ARG d   1      12.287 149.324  76.539  0.00  0.00     0.665 C 
ATOM     30  NH1 ARG d   1      13.263 149.348  75.642  0.00  0.00    -0.235 N 
ATOM     31  NH2 ARG d   1      12.192 148.303  77.379  0.00  0.00    -0.235 N 
ATOM     32  H12 ARG d   1      13.945 148.577  75.603  0.00  0.00     0.174 HD
ATOM     33  H13 ARG d   1      13.339 150.137  74.985  0.00  0.00     0.174 HD
ATOM     34  H14 ARG d   1      11.436 148.280  78.078  0.00  0.00     0.174 HD
ATOM     35  H15 ARG d   1      12.875 147.533  77.333  0.00  0.00     0.174 HD
ATOM     36  H11 ARG d   1      10.652 150.247  77.293  0.00  0.00     0.177 HD
ENDBRANCH  25  28
ENDBRANCH  22  25
ENDBRANCH  19  22
ENDBRANCH  13  19
ENDBRANCH  10  13
ENDBRANCH   7   9
BRANCH   7  37
ATOM     37  CB  ASN d   1      10.040 153.596  69.566  0.00  0.00     0.036 C 
ATOM     38  H18 ASN d   1      10.014 154.454  70.253  0.00  0.00     0.051 H 
ATOM     39  H19 ASN d   1       9.034 153.423  69.156  0.00  0.00     0.051 H 
BRANCH  37  40
ATOM     40  CG  ASN d   1      10.977 153.920  68.425  0.00  0.00     0.217 C 
ATOM     41  OD1 ASN d   1      12.134 154.272  68.640  0.00  0.00    -0.274 OA
ATOM     42  ND2 ASN d   1      10.460 153.868  67.204  0.00  0.00    -0.370 N 
ATOM     43  H20 ASN d   1      11.032 154.072  66.410  0.00  0.00     0.159 HD
ATOM     44  H21 ASN d   1       9.498 153.624  67.078  0.00  0.00     0.159 HD
ENDBRANCH  37  40
ENDBRANCH   7  37
ENDBRANCH   4   7
ENDBRANCH   1   3
BRANCH   1  45
ATOM     45  C   LEU d   1      15.115 153.105  70.194  0.00  0.00     0.241 C 
ATOM     46  O   LEU d   1      15.141 154.230  70.688  0.00  0.00    -0.271 OA
ATOM     47  N   PHE d   1      15.872 152.760  69.154  0.00  0.00    -0.346 N 
ATOM     48  H33 PHE d   1      15.739 151.863  68.732  0.00  0.00     0.163 HD
BRANCH  47  49
ATOM     49  CA  PHE d   1      16.892 153.656  68.613  0.00  0.00     0.093 C 
ATOM     50  H34 PHE d   1      17.313 154.229  69.452  0.00  0.00     0.088 H 
BRANCH  49  51
ATOM     51  C   PHE d   1      16.345 154.647  67.596  0.00  0.00     0.241 C 
ATOM     52  O   PHE d   1      17.089 155.473  67.070  0.00  0.00    -0.271 OA
ATOM     53  N   GLY d   1      15.055 154.547  67.295  0.00  0.00    -0.351 N 
ATOM     54  H42 GLY d   1      14.518 153.800  67.686  0.00  0.00     0.163 HD
BRANCH  53  55
ATOM     55  CA  GLY d   1      14.407 155.499  66.410  0.00  0.00     0.069 C 
ATOM     56  H43 GLY d   1      13.559 155.007  65.911  0.00  0.00     0.078 H 
ATOM     57  H44 GLY d   1      15.131 155.837  65.654  0.00  0.00     0.078 H 
BRANCH  55  58
ATOM     58  C   GLY d   1      13.898 156.702  67.183  0.00  0.00     0.238 C 
ATOM     59  O   GLY d   1      13.820 156.670  68.414  0.00  0.00    -0.272 OA
ATOM     60  N   PRO d   1      13.528 157.761  66.469  0.00  0.00    -0.336 N 
ATOM     61  CA  PRO d   1      13.027 158.980  67.112  0.00  0.00     0.098 C 
ATOM     62  CD  PRO d   1      13.503 157.863  64.998  0.00  0.00    -0.001 C 
ATOM     63  CB  PRO d   1      12.580 159.847  65.923  0.00  0.00    -0.035 C 
ATOM     64  H45 PRO d   1      13.827 159.477  67.680  0.00  0.00     0.089 H 
ATOM     65  CG  PRO d   1      12.429 158.888  64.779  0.00  0.00    -0.048 C 
ATOM     66  H46 PRO d   1      13.340 160.608  65.692  0.00  0.00     0.036 H 
ATOM     67  H47 PRO d   1      11.622 160.341  66.143  0.00  0.00     0.036 H 
ATOM     68  H48 PRO d   1      12.575 159.404  63.818  0.00  0.00     0.035 H 
ATOM     69  H49 PRO d   1      11.435 158.418  64.795  0.00  0.00     0.035 H 
ATOM     70  H50 PRO d   1      13.239 156.901  64.534  0.00  0.00     0.064 H 
ATOM     71  H51 PRO d   1      14.471 158.207  64.604  0.00  0.00     0.064 H 
BRANCH  61  72
ATOM     72  C   PRO d   1      11.854 158.685  68.051  0.00  0.00     0.196 C 
ATOM     73  O   PRO d   1      11.921 158.881  69.266  0.00  0.00    -0.646 OA
ATOM     74  OXT PRO d   1      10.806 158.189  67.640  0.00  0.00    -0.646 OA
ENDBRANCH  61  72
ENDBRANCH  55  58
ENDBRANCH  53  55
ENDBRANCH  49  51
BRANCH  49  75
ATOM     75  CB  PHE d   1      18.010 152.848  67.968  0.00  0.00    -0.014 C 
ATOM     76  H35 PHE d   1      18.910 153.478  67.917  0.00  0.00     0.043 H 
ATOM     77  H36 PHE d   1      17.698 152.572  66.950  0.00  0.00     0.043 H 
BRANCH  75  78
ATOM     78  CG  PHE d   1      18.347 151.602  68.713  0.00  0.00    -0.056 A 
ATOM     79  CD1 PHE d   1      17.580 150.463  68.559  0.00  0.00    -0.077 A 
ATOM     80  CE1 PHE d   1      17.877 149.316  69.259  0.00  0.00    -0.082 A 
ATOM     81  H37 PHE d   1      16.735 150.473  67.880  0.00  0.00     0.084 H 
ATOM     82  CZ  PHE d   1      18.946 149.298  70.127  0.00  0.00    -0.083 A 
ATOM     83  H39 PHE d   1      17.270 148.428  69.127  0.00  0.00     0.083 H 
ATOM     84  CE2 PHE d   1      19.712 150.426  70.295  0.00  0.00    -0.082 A 
ATOM     85  H41 PHE d   1      19.183 148.394  70.677  0.00  0.00     0.083 H 
ATOM     86  CD2 PHE d   1      19.408 151.575  69.598  0.00  0.00    -0.077 A 
ATOM     87  H40 PHE d   1      20.555 150.412  70.976  0.00  0.00     0.083 H 
ATOM     88  H38 PHE d   1      20.007 152.466  69.745  0.00  0.00     0.084 H 
ENDBRANCH  75  78
ENDBRANCH  49  75
ENDBRANCH  47  49
ENDBRANCH   1  45
BRANCH   1  89
ATOM     89  CB  LEU d   1      14.910 150.645  70.585  0.00  0.00    -0.035 C 
ATOM     90  H24 LEU d   1      15.982 150.761  70.805  0.00  0.00     0.037 H 
ATOM     91  H25 LEU d   1      14.780 150.379  69.526  0.00  0.00     0.037 H 
BRANCH  89  92
ATOM     92  CG  LEU d   1      14.391 149.477  71.422  0.00  0.00    -0.059 C 
ATOM     93  H26 LEU d   1      13.359 149.258  71.111  0.00  0.00     0.038 H 
BRANCH  92  94
ATOM     94  CD1 LEU d   1      15.238 148.248  71.176  0.00  0.00    -0.073 C 
ATOM     95  H27 LEU d   1      14.857 147.413  71.782  0.00  0.00     0.028 H 
ATOM     96  H28 LEU d   1      16.280 148.459  71.456  0.00  0.00     0.028 H 
ATOM     97  H29 LEU d   1      15.192 147.978  70.111  0.00  0.00     0.028 H 
ENDBRANCH  92  94
BRANCH  92  98
ATOM     98  CD2 LEU d   1      14.380 149.831  72.894  0.00  0.00    -0.073 C 
ATOM     99  H30 LEU d   1      13.760 150.726  73.051  0.00  0.00     0.028 H 
ATOM    100  H31 LEU d   1      15.408 150.034  73.230  0.00  0.00     0.028 H 
ATOM    101  H32 LEU d   1      13.965 148.991  73.470  0.00  0.00     0.028 H 
ENDBRANCH  92  98
ENDBRANCH  89  92
ENDBRANCH   1  89
TORSDOF 23
