REMARK WARNING: 32 MAX_TORS EXCEEDED!!!
REMARK  45 active torsions:
REMARK  status: ('A' for Active; 'I' for Inactive)
REMARK    1  A    between atoms: N_1  and  CA_2 
REMARK    2  A    between atoms: CA_2  and  C_3 
REMARK       I    between atoms: C_3  and  N_5 
REMARK    3  A    between atoms: N_5  and  CA_6 
REMARK    4  A    between atoms: CA_6  and  C_7 
REMARK    5  A    between atoms: CA_6  and  CB_9 
REMARK       I    between atoms: C_7  and  N_11 
REMARK    6  A    between atoms: CB_9  and  OG_10 
REMARK    7  A    between atoms: N_11  and  CA_12 
REMARK    8  A    between atoms: CA_12  and  C_13 
REMARK    9  A    between atoms: CA_12  and  CB_15 
REMARK       I    between atoms: C_13  and  N_16 
REMARK   10  A    between atoms: N_16  and  CA_17 
REMARK   11  A    between atoms: CA_17  and  C_18 
REMARK   12  A    between atoms: CA_17  and  CB_20 
REMARK       I    between atoms: C_18  and  N_25 
REMARK   13  A    between atoms: CB_20  and  CG_21 
REMARK   14  A    between atoms: CG_21  and  CD_22 
REMARK   15  A    between atoms: CD_22  and  CE_23 
REMARK   16  A    between atoms: CE_23  and  NZ_24 
REMARK   17  A    between atoms: N_25  and  CA_26 
REMARK   18  A    between atoms: CA_26  and  C_27 
REMARK   19  A    between atoms: CA_26  and  CB_29 
REMARK       I    between atoms: C_27  and  N_36 
REMARK   20  A    between atoms: CB_29  and  CG_30 
REMARK   21  A    between atoms: CG_30  and  CD_31 
REMARK   22  A    between atoms: CD_31  and  NE_32 
REMARK       I    between atoms: NE_32  and  CZ_33 
REMARK       I    between atoms: CZ_33  and  NH1_34 
REMARK       I    between atoms: CZ_33  and  NH2_35 
REMARK   23  A    between atoms: N_36  and  CA_37 
REMARK   24  A    between atoms: CA_37  and  C_38 
REMARK   25  A    between atoms: CA_37  and  CB_40 
REMARK       I    between atoms: C_38  and  N_47 
REMARK   26  A    between atoms: CB_40  and  CG_41 
REMARK   27  A    between atoms: CG_41  and  CD_42 
REMARK   28  A    between atoms: CD_42  and  NE_43 
REMARK       I    between atoms: NE_43  and  CZ_44 
REMARK       I    between atoms: CZ_44  and  NH1_45 
REMARK   29  A    between atoms: N_47  and  CA_48 
REMARK   30  A    between atoms: CA_48  and  C_49 
REMARK   31  A    between atoms: CA_48  and  CB_51 
REMARK       I    between atoms: C_49  and  N_55 
REMARK   32  A    between atoms: CB_51  and  CG_52 
REMARK   33  A    between atoms: CG_52  and  CD1_53 
REMARK   34  A    between atoms: CG_52  and  CD2_54 
REMARK   35  A    between atoms: N_55  and  CA_56 
REMARK   36  A    between atoms: CA_56  and  C_57 
REMARK   37  A    between atoms: CA_56  and  CB_59 
REMARK       I    between atoms: C_57  and  N_66 
REMARK   38  A    between atoms: CB_59  and  CG_60 
REMARK   39  A    between atoms: N_66  and  CA_67 
REMARK   40  A    between atoms: CA_67  and  C_68 
REMARK       I    between atoms: C_68  and  N_70 
REMARK   41  A    between atoms: N_70  and  CA_71 
REMARK   42  A    between atoms: CA_71  and  C_72 
REMARK   43  A    between atoms: CA_71  and  CB_74 
REMARK   44  A    between atoms: CB_74  and  CG_75 
REMARK   45  A    between atoms: CG_75  and  CD_76 
ROOT
ATOM      1  CA  ARG d   1      37.565  60.379  45.656  0.00  0.00     0.089 C 
ATOM      2  H43 ARG d   1      37.460  60.605  44.584  0.00  0.00     0.087 H 
ENDROOT
BRANCH   1   3
ATOM      3  N   ARG d   1      37.788  58.975  45.871  0.00  0.00    -0.346 N 
ATOM      4  C   ARG d   1      37.985  58.068  44.933  0.00  0.00     0.241 C 
ATOM      5  O   ARG d   1      37.947  58.292  43.753  0.00  0.00    -0.271 OA
ATOM      6  H42 ARG d   1      37.794  58.656  46.819  0.00  0.00     0.163 HD
BRANCH   4   7
ATOM      7  CA  ARG d   1      38.212  56.676  45.461  0.00  0.00     0.089 C 
ATOM      8  H30 ARG d   1      37.657  56.559  46.403  0.00  0.00     0.087 H 
BRANCH   7   9
ATOM      9  N   ARG d   1      37.686  55.764  44.486  0.00  0.00    -0.346 N 
ATOM     10  C   LYS d   1      38.032  54.495  44.514  0.00  0.00     0.241 C 
ATOM     11  O   LYS d   1      38.550  53.952  45.478  0.00  0.00    -0.271 OA
ATOM     12  H29 ARG d   1      37.055  56.094  43.784  0.00  0.00     0.163 HD
BRANCH  10  13
ATOM     13  CA  LYS d   1      37.807  53.741  43.266  0.00  0.00     0.089 C 
ATOM     14  H17 LYS d   1      38.050  54.360  42.390  0.00  0.00     0.087 H 
BRANCH  13  15
ATOM     15  N   LYS d   1      38.728  52.639  43.376  0.00  0.00    -0.346 N 
ATOM     16  C   ALA d   1      40.038  52.839  43.379  0.00  0.00     0.240 C 
ATOM     17  O   ALA d   1      40.541  53.920  43.205  0.00  0.00    -0.271 OA
ATOM     18  H16 LYS d   1      38.373  51.707  43.451  0.00  0.00     0.163 HD
BRANCH  16  19
ATOM     19  CA  ALA d   1      40.901  51.628  43.543  0.00  0.00     0.086 C 
ATOM     20  H12 ALA d   1      41.663  51.814  44.314  0.00  0.00     0.086 H 
BRANCH  19  21
ATOM     21  N   ALA d   1      40.070  50.494  43.945  0.00  0.00    -0.346 N 
ATOM     22  C   SER d   1      40.380  49.718  44.970  0.00  0.00     0.243 C 
ATOM     23  O   SER d   1      41.345  49.941  45.680  0.00  0.00    -0.271 OA
ATOM     24  H11 ALA d   1      39.238  50.298  43.426  0.00  0.00     0.163 HD
BRANCH  22  25
ATOM     25  CA  SER d   1      39.497  48.488  45.220  0.00  0.00     0.109 C 
ATOM     26  H7  SER d   1      38.433  48.767  45.193  0.00  0.00     0.090 H 
BRANCH  25  27
ATOM     27  N   SER d   1      39.765  47.440  44.209  0.00  0.00    -0.344 N 
ATOM     28  C   GLY d   1      39.125  46.272  44.125  0.00  0.00     0.243 C 
ATOM     29  O   GLY d   1      38.004  46.120  44.518  0.00  0.00    -0.272 OA
ATOM     30  H6  SER d   1      40.482  47.622  43.536  0.00  0.00     0.163 HD
BRANCH  28  31
ATOM     31  CA  GLY d   1      39.847  45.116  43.438  0.00  0.00     0.152 C 
ATOM     32  H4  GLY d   1      39.181  44.241  43.464  0.00  0.00     0.090 H 
ATOM     33  H5  GLY d   1      40.029  45.407  42.393  0.00  0.00     0.090 H 
BRANCH  31  34
ATOM     34  N   GLY d   1      41.152  44.711  44.031  0.00  0.00    -0.071 N 
ATOM     35  H1  GLY d   1      41.538  43.945  43.502  0.00  0.00     0.274 HD
ATOM     36  H2  GLY d   1      41.012  44.423  44.987  0.00  0.00     0.274 HD
ATOM     37  H3  GLY d   1      41.789  45.492  44.005  0.00  0.00     0.274 HD
ENDBRANCH  31  34
ENDBRANCH  28  31
ENDBRANCH  25  27
BRANCH  25  38
ATOM     38  CB  SER d   1      39.883  47.972  46.598  0.00  0.00     0.044 C 
ATOM     39  H8  SER d   1      39.422  46.987  46.765  0.00  0.00     0.077 H 
ATOM     40  H9  SER d   1      39.532  48.676  47.367  0.00  0.00     0.077 H 
BRANCH  38  41
ATOM     41  OG  SER d   1      41.298  47.854  46.672  0.00  0.00    -0.398 OA
ATOM     42  H10 SER d   1      41.694  48.705  46.527  0.00  0.00     0.209 HD
ENDBRANCH  38  41
ENDBRANCH  25  38
ENDBRANCH  22  25
ENDBRANCH  19  21
BRANCH  19  43
ATOM     43  CB  ALA d   1      41.568  51.351  42.233  0.00  0.00    -0.049 C 
ATOM     44  H13 ALA d   1      42.188  52.214  41.947  0.00  0.00     0.030 H 
ATOM     45  H14 ALA d   1      40.803  51.178  41.462  0.00  0.00     0.030 H 
ATOM     46  H15 ALA d   1      42.203  50.458  42.327  0.00  0.00     0.030 H 
ENDBRANCH  19  43
ENDBRANCH  16  19
ENDBRANCH  13  15
BRANCH  13  47
ATOM     47  CB  LYS d   1      36.355  53.268  43.150  0.00  0.00    -0.038 C 
ATOM     48  H18 LYS d   1      36.368  52.259  42.713  0.00  0.00     0.036 H 
ATOM     49  H19 LYS d   1      35.834  53.956  42.468  0.00  0.00     0.036 H 
BRANCH  47  50
ATOM     50  CG  LYS d   1      35.560  53.202  44.422  0.00  0.00    -0.061 C 
ATOM     51  H20 LYS d   1      35.443  54.217  44.830  0.00  0.00     0.033 H 
ATOM     52  H21 LYS d   1      36.092  52.573  45.150  0.00  0.00     0.033 H 
BRANCH  50  53
ATOM     53  CD  LYS d   1      34.189  52.609  44.156  0.00  0.00    -0.043 C 
ATOM     54  H22 LYS d   1      34.312  51.610  43.713  0.00  0.00     0.035 H 
ATOM     55  H23 LYS d   1      33.649  53.259  43.451  0.00  0.00     0.035 H 
BRANCH  53  56
ATOM     56  CE  LYS d   1      33.383  52.487  45.426  0.00  0.00     0.080 C 
ATOM     57  H24 LYS d   1      33.742  53.231  46.153  0.00  0.00     0.075 H 
ATOM     58  H25 LYS d   1      33.515  51.477  45.840  0.00  0.00     0.075 H 
BRANCH  56  59
ATOM     59  NZ  LYS d   1      31.940  52.720  45.165  0.00  0.00    -0.079 N 
ATOM     60  H26 LYS d   1      31.424  52.633  46.027  0.00  0.00     0.274 HD
ATOM     61  H27 LYS d   1      31.604  52.039  44.502  0.00  0.00     0.274 HD
ATOM     62  H28 LYS d   1      31.812  53.646  44.789  0.00  0.00     0.274 HD
ENDBRANCH  56  59
ENDBRANCH  53  56
ENDBRANCH  50  53
ENDBRANCH  47  50
ENDBRANCH  13  47
ENDBRANCH  10  13
ENDBRANCH   7   9
BRANCH   7  63
ATOM     63  CB  ARG d   1      39.702  56.381  45.742  0.00  0.00    -0.036 C 
ATOM     64  H31 ARG d   1      40.224  56.304  44.777  0.00  0.00     0.036 H 
ATOM     65  H32 ARG d   1      39.767  55.419  46.272  0.00  0.00     0.036 H 
BRANCH  63  66
ATOM     66  CG  ARG d   1      40.407  57.432  46.580  0.00  0.00    -0.048 C 
ATOM     67  H33 ARG d   1      39.659  57.893  47.241  0.00  0.00     0.035 H 
ATOM     68  H34 ARG d   1      40.811  58.193  45.896  0.00  0.00     0.035 H 
BRANCH  66  69
ATOM     69  CD  ARG d   1      41.553  56.931  47.450  0.00  0.00     0.009 C 
ATOM     70  H35 ARG d   1      41.342  55.892  47.744  0.00  0.00     0.064 H 
ATOM     71  H36 ARG d   1      41.613  57.562  48.349  0.00  0.00     0.064 H 
BRANCH  69  72
ATOM     72  NE  ARG d   1      42.844  56.968  46.769  0.00  0.00    -0.227 N 
ATOM     73  CZ  ARG d   1      43.346  55.962  46.059  0.00  0.00     0.665 C 
ATOM     74  NH1 ARG d   1      42.660  54.837  45.920  0.00  0.00    -0.235 N 
ATOM     75  NH2 ARG d   1      44.537  56.077  45.475  0.00  0.00    -0.235 N 
ATOM     76  H38 ARG d   1      43.052  54.060  45.369  0.00  0.00     0.174 HD
ATOM     77  H39 ARG d   1      41.735  54.740  46.363  0.00  0.00     0.174 HD
ATOM     78  H40 ARG d   1      45.079  56.947  45.577  0.00  0.00     0.174 HD
ATOM     79  H41 ARG d   1      44.917  55.296  44.922  0.00  0.00     0.174 HD
ATOM     80  H37 ARG d   1      43.403  57.830  46.843  0.00  0.00     0.177 HD
ENDBRANCH  69  72
ENDBRANCH  66  69
ENDBRANCH  63  66
ENDBRANCH   7  63
ENDBRANCH   4   7
ENDBRANCH   1   3
BRANCH   1  81
ATOM     81  C   ARG d   1      38.777  61.064  46.237  0.00  0.00     0.241 C 
ATOM     82  O   ARG d   1      39.011  61.008  47.436  0.00  0.00    -0.271 OA
ATOM     83  N   LEU d   1      39.570  61.695  45.394  0.00  0.00    -0.346 N 
ATOM     84  H55 LEU d   1      39.249  61.900  44.469  0.00  0.00     0.163 HD
BRANCH  83  85
ATOM     85  CA  LEU d   1      40.890  62.090  45.794  0.00  0.00     0.089 C 
ATOM     86  H56 LEU d   1      41.316  61.261  46.379  0.00  0.00     0.087 H 
BRANCH  85  87
ATOM     87  C   LEU d   1      40.909  63.320  46.676  0.00  0.00     0.241 C 
ATOM     88  O   LEU d   1      41.712  63.365  47.612  0.00  0.00    -0.271 OA
ATOM     89  N   PHE d   1      40.072  64.321  46.372  0.00  0.00    -0.346 N 
ATOM     90  H66 PHE d   1      39.422  64.210  45.620  0.00  0.00     0.163 HD
BRANCH  89  91
ATOM     91  CA  PHE d   1      40.098  65.584  47.133  0.00  0.00     0.093 C 
ATOM     92  H67 PHE d   1      40.659  65.362  48.053  0.00  0.00     0.088 H 
BRANCH  91  93
ATOM     93  C   PHE d   1      38.717  66.136  47.603  0.00  0.00     0.241 C 
ATOM     94  O   PHE d   1      37.707  65.427  47.626  0.00  0.00    -0.271 OA
ATOM     95  N   GLY d   1      38.677  67.388  48.045  0.00  0.00    -0.351 N 
ATOM     96  H75 GLY d   1      39.519  67.922  48.122  0.00  0.00     0.163 HD
BRANCH  95  97
ATOM     97  CA  GLY d   1      37.398  67.978  48.417  0.00  0.00     0.069 C 
ATOM     98  H76 GLY d   1      37.566  68.944  48.917  0.00  0.00     0.078 H 
ATOM     99  H77 GLY d   1      36.861  67.301  49.097  0.00  0.00     0.078 H 
BRANCH  97 100
ATOM    100  C   GLY d   1      36.587  68.188  47.162  0.00  0.00     0.236 C 
ATOM    101  O   GLY d   1      36.472  69.337  46.702  0.00  0.00    -0.272 OA
ATOM    102  N   GLU d   1      36.064  67.059  46.637  0.00  0.00    -0.345 N 
ATOM    103  H78 GLU d   1      36.049  66.263  47.242  0.00  0.00     0.163 HD
BRANCH 102 104
ATOM    104  CA  GLU d   1      35.496  66.845  45.246  0.00  0.00     0.097 C 
ATOM    105  H79 GLU d   1      34.913  65.916  45.323  0.00  0.00     0.089 H 
BRANCH 104 106
ATOM    106  C   GLU d   1      36.545  66.569  44.130  0.00  0.00     0.196 C 
ATOM    107  O   GLU d   1      37.013  65.440  43.911  0.00  0.00    -0.646 OA
ATOM    108  OXT GLU d   1      36.984  67.459  43.384  0.00  0.00    -0.646 OA
ENDBRANCH 104 106
BRANCH 104 109
ATOM    109  CB  GLU d   1      34.465  67.950  44.822  0.00  0.00    -0.028 C 
ATOM    110  H80 GLU d   1      34.937  68.933  44.968  0.00  0.00     0.037 H 
ATOM    111  H81 GLU d   1      33.585  67.866  45.476  0.00  0.00     0.037 H 
BRANCH 109 112
ATOM    112  CG  GLU d   1      33.983  67.860  43.351  0.00  0.00     0.018 C 
ATOM    113  H82 GLU d   1      33.111  67.190  43.321  0.00  0.00     0.049 H 
ATOM    114  H83 GLU d   1      34.799  67.427  42.754  0.00  0.00     0.049 H 
BRANCH 112 115
ATOM    115  CD  GLU d   1      33.575  69.202  42.697  0.00  0.00     0.172 C 
ATOM    116  OE1 GLU d   1      33.717  70.264  43.347  0.00  0.00    -0.648 OA
ATOM    117  OE2 GLU d   1      33.102  69.176  41.522  0.00  0.00    -0.648 OA
ENDBRANCH 112 115
ENDBRANCH 109 112
ENDBRANCH 104 109
ENDBRANCH 102 104
ENDBRANCH  97 100
ENDBRANCH  95  97
ENDBRANCH  91  93
BRANCH  91 118
ATOM    118  CB  PHE d   1      40.883  66.668  46.391  0.00  0.00    -0.014 C 
ATOM    119  H68 PHE d   1      41.267  67.383  47.134  0.00  0.00     0.043 H 
ATOM    120  H69 PHE d   1      40.193  67.184  45.707  0.00  0.00     0.043 H 
BRANCH 118 121
ATOM    121  CG  PHE d   1      42.056  66.154  45.580  0.00  0.00    -0.056 A 
ATOM    122  CD1 PHE d   1      41.929  65.889  44.225  0.00  0.00    -0.077 A 
ATOM    123  CE1 PHE d   1      43.001  65.429  43.483  0.00  0.00    -0.082 A 
ATOM    124  H70 PHE d   1      40.973  66.045  43.739  0.00  0.00     0.084 H 
ATOM    125  CZ  PHE d   1      44.185  65.233  44.074  0.00  0.00    -0.083 A 
ATOM    126  H72 PHE d   1      42.882  65.228  42.425  0.00  0.00     0.083 H 
ATOM    127  CE2 PHE d   1      44.335  65.504  45.410  0.00  0.00    -0.082 A 
ATOM    128  H74 PHE d   1      45.024  64.861  43.498  0.00  0.00     0.083 H 
ATOM    129  CD2 PHE d   1      43.269  65.971  46.157  0.00  0.00    -0.077 A 
ATOM    130  H73 PHE d   1      45.297  65.351  45.885  0.00  0.00     0.083 H 
ATOM    131  H71 PHE d   1      43.404  66.192  47.210  0.00  0.00     0.084 H 
ENDBRANCH 118 121
ENDBRANCH  91 118
ENDBRANCH  89  91
ENDBRANCH  85  87
BRANCH  85 132
ATOM    132  CB  LEU d   1      41.769  62.302  44.581  0.00  0.00    -0.035 C 
ATOM    133  H57 LEU d   1      42.761  62.628  44.926  0.00  0.00     0.037 H 
ATOM    134  H58 LEU d   1      41.319  63.091  43.961  0.00  0.00     0.037 H 
BRANCH 132 135
ATOM    135  CG  LEU d   1      41.944  61.076  43.730  0.00  0.00    -0.059 C 
ATOM    136  H59 LEU d   1      40.956  60.692  43.435  0.00  0.00     0.038 H 
BRANCH 135 137
ATOM    137  CD1 LEU d   1      42.720  61.434  42.476  0.00  0.00    -0.073 C 
ATOM    138  H60 LEU d   1      42.847  60.535  41.854  0.00  0.00     0.028 H 
ATOM    139  H61 LEU d   1      43.708  61.829  42.756  0.00  0.00     0.028 H 
ATOM    140  H62 LEU d   1      42.168  62.197  41.908  0.00  0.00     0.028 H 
ENDBRANCH 135 137
BRANCH 135 141
ATOM    141  CD2 LEU d   1      42.650  60.029  44.545  0.00  0.00    -0.073 C 
ATOM    142  H63 LEU d   1      42.055  59.800  45.442  0.00  0.00     0.028 H 
ATOM    143  H64 LEU d   1      43.639  60.404  44.847  0.00  0.00     0.028 H 
ATOM    144  H65 LEU d   1      42.772  59.117  43.943  0.00  0.00     0.028 H 
ENDBRANCH 135 141
ENDBRANCH 132 135
ENDBRANCH  85 132
ENDBRANCH  83  85
ENDBRANCH   1  81
BRANCH   1 145
ATOM    145  CB  ARG d   1      36.297  60.815  46.418  0.00  0.00    -0.036 C 
ATOM    146  H44 ARG d   1      36.471  60.673  47.495  0.00  0.00     0.036 H 
ATOM    147  H45 ARG d   1      35.460  60.178  46.095  0.00  0.00     0.036 H 
BRANCH 145 148
ATOM    148  CG  ARG d   1      35.913  62.281  46.177  0.00  0.00    -0.048 C 
ATOM    149  H46 ARG d   1      36.033  62.484  45.103  0.00  0.00     0.035 H 
ATOM    150  H47 ARG d   1      36.614  62.907  46.749  0.00  0.00     0.035 H 
BRANCH 148 151
ATOM    151  CD  ARG d   1      34.510  62.694  46.566  0.00  0.00     0.009 C 
ATOM    152  H48 ARG d   1      34.229  62.172  47.493  0.00  0.00     0.064 H 
ATOM    153  H49 ARG d   1      33.818  62.408  45.760  0.00  0.00     0.064 H 
BRANCH 151 154
ATOM    154  NE  ARG d   1      34.410  64.142  46.787  0.00  0.00    -0.227 N 
ATOM    155  CZ  ARG d   1      33.484  64.736  47.549  0.00  0.00     0.665 C 
ATOM    156  NH1 ARG d   1      32.587  64.003  48.178  0.00  0.00    -0.235 N 
ATOM    157  NH2 ARG d   1      33.453  66.060  47.677  0.00  0.00    -0.235 N 
ATOM    158  H51 ARG d   1      31.872  64.456  48.766  0.00  0.00     0.174 HD
ATOM    159  H52 ARG d   1      32.601  62.978  48.082  0.00  0.00     0.174 HD
ATOM    160  H53 ARG d   1      34.150  66.641  47.189  0.00  0.00     0.174 HD
ATOM    161  H54 ARG d   1      32.732  66.504  48.264  0.00  0.00     0.174 HD
ATOM    162  H50 ARG d   1      35.103  64.745  46.321  0.00  0.00     0.177 HD
ENDBRANCH 151 154
ENDBRANCH 148 151
ENDBRANCH 145 148
ENDBRANCH   1 145
TORSDOF 45
