REMARK  19 active torsions:
REMARK  status: ('A' for Active; 'I' for Inactive)
REMARK    1  A    between atoms: PB_1  and  O3B_4 
REMARK    2  A    between atoms: PB_1  and  O3A_5 
REMARK    3  A    between atoms: O3B_4  and  P_29 
REMARK    4  A    between atoms: O3A_5  and  PA_6 
REMARK    5  A    between atoms: PA_6  and  O5_9 
REMARK    6  A    between atoms: O5_9  and  C5_10 
REMARK    7  A    between atoms: C5_10  and  C4_11 
REMARK    8  A    between atoms: C3_13  and  O3_14 
REMARK    9  A    between atoms: C2_15  and  O2_16 
REMARK   10  A    between atoms: C1_17  and  N9_18 
REMARK   11  A    between atoms: C2_25  and  N2_26 
REMARK   12  A    between atoms: P_29  and  O5_32 
REMARK   13  A    between atoms: O5_32  and  C5_33 
REMARK   14  A    between atoms: C5_33  and  C4_34 
REMARK   15  A    between atoms: C3_36  and  O3_37 
REMARK   16  A    between atoms: C2_38  and  O2_39 
REMARK   17  A    between atoms: C1_40  and  N9_41 
REMARK   18  A    between atoms: N7_43  and  CM7_52 
REMARK   19  A    between atoms: C2_48  and  N2_49 
ROOT
ATOM      1  O3B GDP d   1      86.123 -18.801  26.119  0.00  0.00    -0.180 OA
ENDROOT
BRANCH   1   2
ATOM      2  PB  GDP d   1      86.290 -19.771  27.396  0.00  0.00     0.427 P 
ATOM      3  O1B GDP d   1      87.097 -19.070  28.459  0.00  0.00    -0.624 OA
ATOM      4  O2B GDP d   1      86.719 -21.134  26.921  0.00  0.00    -0.624 OA
BRANCH   2   5
ATOM      5  O3A GDP d   1      84.741 -19.824  27.836  0.00  0.00    -0.180 OA
BRANCH   5   6
ATOM      6  PA  GDP d   1      83.975 -19.762  29.249  0.00  0.00     0.417 P 
ATOM      7  O1A GDP d   1      83.186 -18.484  29.315  0.00  0.00    -0.624 OA
ATOM      8  O2A GDP d   1      84.952 -20.097  30.346  0.00  0.00    -0.624 OA
BRANCH   6   9
ATOM      9  O5  GDP d   1      82.948 -20.971  29.127  0.00  0.00    -0.287 OA
BRANCH   9  10
ATOM     10  C5  GDP d   1      83.423 -22.316  28.919  0.00  0.00     0.058 C 
ATOM     11  H1  GDP d   1      84.262 -22.513  29.602  0.00  0.00     0.079 H 
ATOM     12  H2  GDP d   1      83.764 -22.422  27.879  0.00  0.00     0.079 H 
BRANCH  10  13
ATOM     13  C4  GDP d   1      82.320 -23.317  29.185  0.00  0.00     0.089 C 
ATOM     14  O4  GDP d   1      82.002 -23.319  30.606  0.00  0.00    -0.353 OA
ATOM     15  C1  GDP d   1      80.613 -23.133  30.777  0.00  0.00     0.139 C 
ATOM     16  C2  GDP d   1      80.100 -22.471  29.495  0.00  0.00     0.105 C 
ATOM     17  H8  GDP d   1      80.119 -24.110  30.887  0.00  0.00     0.122 H 
ATOM     18  C3  GDP d   1      81.006 -23.090  28.433  0.00  0.00     0.091 C 
ATOM     19  H6  GDP d   1      80.233 -21.380  29.531  0.00  0.00     0.093 H 
ATOM     20  H4  GDP d   1      81.144 -22.417  27.574  0.00  0.00     0.091 H 
ATOM     21  H3  GDP d   1      82.702 -24.308  28.900  0.00  0.00     0.090 H 
BRANCH  15  22
ATOM     22  N9  GDP d   1      80.378 -22.367  32.003  0.00  0.00    -0.293 N 
ATOM     23  C8  GDP d   1      80.058 -21.031  32.111  0.00  0.00     0.071 A 
ATOM     24  N7  GDP d   1      79.848 -20.650  33.344  0.00  0.00    -0.234 NA
ATOM     25  H9  GDP d   1      79.987 -20.360  31.256  0.00  0.00     0.144 H 
ATOM     26  C5  GDP d   1      80.053 -21.798  34.098  0.00  0.00     0.173 A 
ATOM     27  C6  GDP d   1      79.954 -22.008  35.505  0.00  0.00     0.292 A 
ATOM     28  C4  GDP d   1      80.399 -22.865  33.292  0.00  0.00     0.186 A 
ATOM     29  O6  GDP d   1      79.642 -21.195  36.389  0.00  0.00    -0.265 OA
ATOM     30  N1  GDP d   1      80.253 -23.324  35.849  0.00  0.00    -0.152 N 
ATOM     31  C2  GDP d   1      80.599 -24.315  34.962  0.00  0.00     0.703 A 
ATOM     32  H10 GDP d   1      80.213 -23.567  36.818  0.00  0.00     0.187 HD
ATOM     33  N3  GDP d   1      80.683 -24.137  33.650  0.00  0.00    -0.044 NA
BRANCH  31  34
ATOM     34  N2  GDP d   1      80.861 -25.521  35.494  0.00  0.00    -0.233 N 
ATOM     35  H11 GDP d   1      81.126 -26.307  34.883  0.00  0.00     0.174 HD
ATOM     36  H12 GDP d   1      80.797 -25.660  36.513  0.00  0.00     0.174 HD
ENDBRANCH  31  34
ENDBRANCH  15  22
BRANCH  16  37
ATOM     37  O2  GDP d   1      78.731 -22.761  29.293  0.00  0.00    -0.388 OA
ATOM     38  H7  GDP d   1      78.601 -23.702  29.316  0.00  0.00     0.210 HD
ENDBRANCH  16  37
BRANCH  18  39
ATOM     39  O3  GDP d   1      80.456 -24.332  28.001  0.00  0.00    -0.390 OA
ATOM     40  H5  GDP d   1      79.642 -24.172  27.537  0.00  0.00     0.210 HD
ENDBRANCH  18  39
ENDBRANCH  10  13
ENDBRANCH   9  10
ENDBRANCH   6   9
ENDBRANCH   5   6
ENDBRANCH   2   5
ENDBRANCH   1   2
BRANCH   1  41
ATOM     41  P   7MG d   1      86.573 -17.285  25.807  0.00  0.00     0.417 P 
ATOM     42  O1P 7MG d   1      86.329 -16.416  27.019  0.00  0.00    -0.624 OA
ATOM     43  O2P 7MG d   1      86.002 -16.872  24.471  0.00  0.00    -0.624 OA
BRANCH  41  44
ATOM     44  O5  7MG d   1      88.135 -17.561  25.656  0.00  0.00    -0.287 OA
BRANCH  44  45
ATOM     45  C5  7MG d   1      89.034 -16.561  25.133  0.00  0.00     0.058 C 
ATOM     46  H13 GDP d   1      88.611 -15.561  25.311  0.00  0.00     0.079 H 
ATOM     47  H14 GDP d   1      89.165 -16.717  24.052  0.00  0.00     0.079 H 
BRANCH  45  48
ATOM     48  C4  7MG d   1      90.374 -16.668  25.820  0.00  0.00     0.089 C 
ATOM     49  O4  7MG d   1      90.262 -16.135  27.169  0.00  0.00    -0.353 OA
ATOM     50  C1  7MG d   1      90.653 -17.121  28.103  0.00  0.00     0.139 C 
ATOM     51  C2  7MG d   1      90.520 -18.465  27.390  0.00  0.00     0.105 C 
ATOM     52  H20 GDP d   1      91.705 -16.974  28.388  0.00  0.00     0.122 H 
ATOM     53  C3  7MG d   1      90.905 -18.091  25.959  0.00  0.00     0.091 C 
ATOM     54  H18 GDP d   1      89.483 -18.829  27.426  0.00  0.00     0.093 H 
ATOM     55  H16 GDP d   1      90.450 -18.771  25.223  0.00  0.00     0.091 H 
ATOM     56  H15 GDP d   1      91.102 -16.076  25.245  0.00  0.00     0.090 H 
BRANCH  50  57
ATOM     57  N9  7MG d   1      89.829 -16.979  29.300  0.00  0.00    -0.295 N 
ATOM     58  C8  7MG d   1      88.493 -16.676  29.356  0.00  0.00     0.049 A 
ATOM     59  N7  7MG d   1      88.028 -16.582  30.637  0.00  0.00    -0.340 N 
ATOM     60  H21 GDP d   1      87.870 -16.526  28.475  0.00  0.00     0.141 H 
ATOM     61  C5  7MG d   1      89.158 -16.859  31.403  0.00  0.00     0.151 A 
ATOM     62  C6  7MG d   1      89.309 -16.905  32.814  0.00  0.00     0.290 A 
ATOM     63  C4  7MG d   1      90.263 -17.109  30.608  0.00  0.00     0.184 A 
ATOM     64  O6  7MG d   1      88.455 -16.714  33.683  0.00  0.00    -0.265 OA
ATOM     65  N1  7MG d   1      90.618 -17.205  33.183  0.00  0.00    -0.153 N 
ATOM     66  C2  7MG d   1      91.652 -17.435  32.306  0.00  0.00     0.703 A 
ATOM     67  H22 GDP d   1      90.822 -17.257  34.161  0.00  0.00     0.187 HD
ATOM     68  N3  7MG d   1      91.524 -17.406  30.990  0.00  0.00    -0.044 NA
BRANCH  59  69
ATOM     69  CM7 7MG d   1      86.692 -16.219  31.067  0.00  0.00    -0.013 C 
ATOM     70  H25 GDP d   1      86.050 -16.073  30.186  0.00  0.00     0.057 H 
ATOM     71  H26 GDP d   1      86.735 -15.286  31.648  0.00  0.00     0.057 H 
ATOM     72  H27 GDP d   1      86.278 -17.022  31.694  0.00  0.00     0.057 H 
ENDBRANCH  59  69
BRANCH  66  73
ATOM     73  N2  7MG d   1      92.853 -17.695  32.854  0.00  0.00    -0.233 N 
ATOM     74  H23 GDP d   1      93.667 -17.876  32.249  0.00  0.00     0.174 HD
ATOM     75  H24 GDP d   1      92.959 -17.713  33.878  0.00  0.00     0.174 HD
ENDBRANCH  66  73
ENDBRANCH  50  57
BRANCH  51  76
ATOM     76  O2  7MG d   1      91.362 -19.443  27.973  0.00  0.00    -0.388 OA
ATOM     77  H19 GDP d   1      91.067 -19.627  28.857  0.00  0.00     0.210 HD
ENDBRANCH  51  76
BRANCH  53  78
ATOM     78  O3  7MG d   1      92.321 -18.087  25.824  0.00  0.00    -0.390 OA
ATOM     79  H17 GDP d   1      92.556 -17.744  24.970  0.00  0.00     0.210 HD
ENDBRANCH  53  78
ENDBRANCH  45  48
ENDBRANCH  44  45
ENDBRANCH  41  44
ENDBRANCH   1  41
TORSDOF 19
