REMARK  8 active torsions:
REMARK  status: ('A' for Active; 'I' for Inactive)
REMARK    1  A    between atoms: C1_2  and  C1G_1 
REMARK    2  A    between atoms: C4A_4  and  C1_2 
REMARK    3  A    between atoms: C1B_24  and  C1A_7 
REMARK    4  A    between atoms: C4B_10  and  C1C_11 
REMARK    5  A    between atoms: C1C_11  and  N1D_14 
REMARK    6  A    between atoms: N1D_14  and  C1F_15 
REMARK    7  A    between atoms: N1D_14  and  C1E_16 
REMARK    8  A    between atoms: C1E_16  and  C2E_17 
ROOT
ATOM      1  C2B R01 d   1      63.542  71.712  64.651  0.00  0.00    -0.072 A 
ATOM      2  C3B R01 d   1      62.859  71.856  63.410  0.00  0.00    -0.074 A 
ATOM      3  C4B R01 d   1      62.505  70.714  62.629  0.00  0.00    -0.033 A 
ATOM      4  C5B R01 d   1      62.855  69.416  63.128  0.00  0.00    -0.074 A 
ATOM      5  C6B R01 d   1      63.543  69.272  64.379  0.00  0.00    -0.072 A 
ATOM      6  C1B R01 d   1      63.887  70.428  65.143  0.00  0.00    -0.026 A 
ATOM      7  H3  R01 d   1      63.801  72.594  65.226  0.00  0.00     0.084 H 
ATOM      8  H4  R01 d   1      62.604  72.847  63.053  0.00  0.00     0.084 H 
ATOM      9  H7  R01 d   1      62.597  68.534  62.554  0.00  0.00     0.084 H 
ATOM     10  H8  R01 d   1      63.802  68.285  64.744  0.00  0.00     0.084 H 
ENDROOT
BRANCH   6  11
ATOM     11  C1A R01 d   1      64.589  70.325  66.456  0.00  0.00    -0.026 A 
ATOM     12  C2A R01 d   1      63.877  69.865  67.598  0.00  0.00    -0.071 A 
ATOM     13  C3A R01 d   1      64.525  69.774  68.862  0.00  0.00    -0.068 A 
ATOM     14  H2  R01 d   1      62.835  69.582  67.505  0.00  0.00     0.084 H 
ATOM     15  C4A R01 d   1      65.896  70.144  69.003  0.00  0.00     0.015 A 
ATOM     16  H1  R01 d   1      63.972  69.421  69.725  0.00  0.00     0.085 H 
ATOM     17  C5A R01 d   1      66.608  70.603  67.856  0.00  0.00    -0.068 A 
ATOM     18  C6A R01 d   1      65.964  70.696  66.590  0.00  0.00    -0.071 A 
ATOM     19  H19 R01 d   1      67.651  70.884  67.949  0.00  0.00     0.085 H 
ATOM     20  H18 R01 d   1      66.516  71.048  65.726  0.00  0.00     0.084 H 
BRANCH  15  21
ATOM     21  C1  R01 d   1      66.578  70.046  70.362  0.00  0.00     0.192 C 
ATOM     22  O2  R01 d   1      66.419  69.027  71.020  0.00  0.00    -0.287 OA
BRANCH  21  23
ATOM     23  C1G R01 d   1      67.449  71.163  70.936  0.00  0.00     0.015 A 
ATOM     24  C2G R01 d   1      68.704  70.850  71.549  0.00  0.00    -0.068 A 
ATOM     25  C3G R01 d   1      69.522  71.890  72.085  0.00  0.00    -0.065 A 
ATOM     26  H20 R01 d   1      69.035  69.819  71.606  0.00  0.00     0.085 H 
ATOM     27  C4G R01 d   1      69.086  73.247  72.009  0.00  0.00     0.011 A 
ATOM     28  H21 R01 d   1      70.472  71.650  72.549  0.00  0.00     0.085 H 
ATOM     29 BR27 R01 d   1      70.135  74.612  72.695  0.00  0.00    -0.051 Br
ATOM     30  C5G R01 d   1      67.840  73.558  71.402  0.00  0.00    -0.065 A 
ATOM     31  C6G R01 d   1      67.028  72.525  70.871  0.00  0.00    -0.068 A 
ATOM     32  H22 R01 d   1      67.509  74.589  71.345  0.00  0.00     0.085 H 
ATOM     33  H23 R01 d   1      66.078  72.772  70.411  0.00  0.00     0.085 H 
ENDBRANCH  21  23
ENDBRANCH  15  21
ENDBRANCH   6  11
BRANCH   3  34
ATOM     34  C1C R01 d   1      61.735  70.868  61.271  0.00  0.00     0.107 C 
ATOM     35  H5  R01 d   1      61.028  71.702  61.389  0.00  0.00     0.083 H 
ATOM     36  H6  R01 d   1      61.177  69.935  61.104  0.00  0.00     0.083 H 
BRANCH  34  37
ATOM     37  N1D R01 d   1      62.543  71.138  60.020  0.00  0.00    -0.068 N 
ATOM     38  H9  R01 d   1      61.888  71.192  59.256  0.00  0.00     0.280 HD
BRANCH  37  39
ATOM     39  C1F R01 d   1      63.287  72.438  60.048  0.00  0.00     0.067 C 
ATOM     40  H10 R01 d   1      63.847  72.560  59.109  0.00  0.00     0.068 H 
ATOM     41  H11 R01 d   1      63.988  72.441  60.896  0.00  0.00     0.068 H 
ATOM     42  H12 R01 d   1      62.573  73.267  60.160  0.00  0.00     0.068 H 
ENDBRANCH  37  39
BRANCH  37  43
ATOM     43  C1E R01 d   1      63.481  70.003  59.730  0.00  0.00     0.098 C 
ATOM     44  H13 R01 d   1      63.579  69.384  60.634  0.00  0.00     0.082 H 
ATOM     45  H14 R01 d   1      64.464  70.416  59.459  0.00  0.00     0.082 H 
BRANCH  43  46
ATOM     46  C2E R01 d   1      62.988  69.131  58.593  0.00  0.00    -0.087 C 
ATOM     47  C3E R01 d   1      63.647  68.045  58.164  0.00  0.00    -0.123 C 
ATOM     48  H16 R01 d   1      63.246  67.454  57.342  0.00  0.00     0.066 H 
ATOM     49  H17 R01 d   1      64.583  67.754  58.638  0.00  0.00     0.066 H 
ATOM     50  H15 R01 d   1      62.054  69.399  58.101  0.00  0.00     0.078 H 
ENDBRANCH  43  46
ENDBRANCH  37  43
ENDBRANCH  34  37
ENDBRANCH   3  34
TORSDOF 8
