REMARK  9 active torsions:
REMARK  status: ('A' for Active; 'I' for Inactive)
REMARK    1  A    between atoms: C1_2  and  C1A_1 
REMARK    2  A    between atoms: C1B_4  and  C1_2 
REMARK    3  A    between atoms: O1C_21  and  C4B_7 
REMARK    4  A    between atoms: C2C_8  and  C3C_9 
REMARK    5  A    between atoms: C2C_8  and  O1C_21 
REMARK    6  A    between atoms: C4C_10  and  C5C_11 
REMARK    7  A    between atoms: C5C_11  and  N1D_12 
REMARK    8  A    between atoms: N1D_12  and  C1F_13 
REMARK    9  A    between atoms: N1D_12  and  C1E_14 
ROOT
ATOM      1  C2C R88 d   1      63.711  70.382  64.692  0.00  0.00     0.041 C 
ATOM      2  H3  R88 d   1      62.879  69.754  65.044  0.00  0.00     0.081 H 
ATOM      3  H4  R88 d   1      63.612  71.393  65.115  0.00  0.00     0.081 H 
ENDROOT
BRANCH   1   4
ATOM      4  C3C R88 d   1      63.711  70.447  63.197  0.00  0.00    -0.082 C 
ATOM      5  C4C R88 d   1      63.939  71.574  62.528  0.00  0.00    -0.080 C 
ATOM      6  H6  R88 d   1      64.127  72.482  63.099  0.00  0.00     0.079 H 
ATOM      7  H5  R88 d   1      63.517  69.535  62.634  0.00  0.00     0.079 H 
BRANCH   5   8
ATOM      8  C5C R88 d   1      63.951  71.664  61.014  0.00  0.00     0.098 C 
ATOM      9  H7  R88 d   1      64.343  70.714  60.620  0.00  0.00     0.082 H 
ATOM     10  H8  R88 d   1      64.625  72.485  60.728  0.00  0.00     0.082 H 
BRANCH   8  11
ATOM     11  N1D R88 d   1      62.608  71.917  60.370  0.00  0.00    -0.068 N 
ATOM     12  H9  R88 d   1      62.801  72.299  59.458  0.00  0.00     0.280 HD
BRANCH  11  13
ATOM     13  C1F R88 d   1      61.818  72.972  61.074  0.00  0.00     0.067 C 
ATOM     14  H10 R88 d   1      60.855  73.112  60.562  0.00  0.00     0.068 H 
ATOM     15  H11 R88 d   1      62.379  73.918  61.064  0.00  0.00     0.068 H 
ATOM     16  H12 R88 d   1      61.639  72.663  62.114  0.00  0.00     0.068 H 
ENDBRANCH  11  13
BRANCH  11  17
ATOM     17  C1E R88 d   1      61.895  70.616  60.120  0.00  0.00     0.104 A 
ATOM     18  C2E R88 d   1      62.572  69.397  59.429  0.00  0.00    -0.036 A 
ATOM     19  C3E R88 d   1      61.577  70.277  58.645  0.00  0.00    -0.036 A 
ATOM     20  H14 R88 d   1      62.291  68.374  59.719  0.00  0.00     0.036 H 
ATOM     21  H15 R88 d   1      63.644  69.428  59.185  0.00  0.00     0.036 H 
ATOM     22  H20 R88 d   1      61.941  70.933  57.841  0.00  0.00     0.036 H 
ATOM     23  H21 R88 d   1      60.588  69.879  58.374  0.00  0.00     0.036 H 
ATOM     24  H13 R88 d   1      61.159  70.439  60.918  0.00  0.00     0.084 H 
ENDBRANCH  11  17
ENDBRANCH   8  11
ENDBRANCH   5   8
ENDBRANCH   1   4
BRANCH   1  25
ATOM     25  O1C R88 d   1      64.967  69.803  65.083  0.00  0.00    -0.348 OA
BRANCH  25  26
ATOM     26  C4B R88 d   1      65.240  69.808  66.456  0.00  0.00     0.069 A 
ATOM     27  C5B R88 d   1      64.328  69.228  67.391  0.00  0.00    -0.050 A 
ATOM     28  C6B R88 d   1      64.628  69.238  68.775  0.00  0.00    -0.067 A 
ATOM     29  H2  R88 d   1      63.405  68.780  67.040  0.00  0.00     0.087 H 
ATOM     30  C1B R88 d   1      65.841  69.823  69.255  0.00  0.00     0.015 A 
ATOM     31  H1  R88 d   1      63.930  68.797  69.478  0.00  0.00     0.085 H 
ATOM     32  C2B R88 d   1      66.749  70.402  68.311  0.00  0.00    -0.067 A 
ATOM     33  C3B R88 d   1      66.449  70.394  66.922  0.00  0.00    -0.050 A 
ATOM     34  H17 R88 d   1      67.673  70.850  68.659  0.00  0.00     0.085 H 
ATOM     35  H16 R88 d   1      67.143  70.835  66.216  0.00  0.00     0.087 H 
BRANCH  30  36
ATOM     36  C1  R88 d   1      66.131  69.808  70.761  0.00  0.00     0.192 C 
ATOM     37  O2  R88 d   1      65.411  69.132  71.489  0.00  0.00    -0.287 OA
BRANCH  36  38
ATOM     38  C1A R88 d   1      67.263  70.572  71.422  0.00  0.00     0.015 A 
ATOM     39  C6A R88 d   1      67.344  71.997  71.358  0.00  0.00    -0.068 A 
ATOM     40  C5A R88 d   1      68.412  72.678  71.998  0.00  0.00    -0.065 A 
ATOM     41  H18 R88 d   1      66.589  72.559  70.820  0.00  0.00     0.085 H 
ATOM     42  C4A R88 d   1      69.401  71.940  72.706  0.00  0.00     0.011 A 
ATOM     43  H19 R88 d   1      68.474  73.759  71.948  0.00  0.00     0.085 H 
ATOM     44 BR23 R88 d   1      70.783  72.821  73.548  0.00  0.00    -0.051 Br
ATOM     45  C3A R88 d   1      69.325  70.524  72.772  0.00  0.00    -0.065 A 
ATOM     46  C2A R88 d   1      68.259  69.843  72.132  0.00  0.00    -0.068 A 
ATOM     47  H22 R88 d   1      70.081  69.964  73.311  0.00  0.00     0.085 H 
ATOM     48  H23 R88 d   1      68.202  68.762  72.183  0.00  0.00     0.085 H 
ENDBRANCH  36  38
ENDBRANCH  30  36
ENDBRANCH  25  26
ENDBRANCH   1  25
TORSDOF 9
