REMARK  10 active torsions:
REMARK  status: ('A' for Active; 'I' for Inactive)
REMARK    1  A    between atoms: C1_2  and  C1G_1 
REMARK    2  A    between atoms: C1A_4  and  C1_2 
REMARK    3  A    between atoms: O1B_8  and  C4A_7 
REMARK    4  A    between atoms: C2B_9  and  O1B_8 
REMARK    5  A    between atoms: C3B_10  and  C2B_9 
REMARK    6  A    between atoms: N1D_14  and  C1F_13 
REMARK    7  A    between atoms: C1C_15  and  N1D_14 
REMARK    8  A    between atoms: N1D_14  and  C1E_16 
REMARK    9  A    between atoms: C1C_15  and  C4B_26 
REMARK   10  A    between atoms: C1E_16  and  C2E_17 
ROOT
ATOM      1  C3B R02 d   1      63.784  69.834  64.414  0.00  0.00    -0.028 A 
ATOM      2  C5B R02 d   1      62.436  70.593  64.498  0.00  0.00    -0.054 A 
ATOM      3  C4B R02 d   1      63.365  70.830  63.297  0.00  0.00    -0.025 A 
ATOM      4  H5  R02 d   1      63.849  68.754  64.217  0.00  0.00     0.043 H 
ATOM      5  H6  R02 d   1      62.298  71.385  65.249  0.00  0.00     0.034 H 
ATOM      6  H7  R02 d   1      61.490  70.048  64.361  0.00  0.00     0.034 H 
ATOM      7  H24 R02 d   1      63.885  71.787  63.138  0.00  0.00     0.043 H 
ENDROOT
BRANCH   1   8
ATOM      8  C2B R02 d   1      64.825  70.291  65.480  0.00  0.00     0.030 C 
ATOM      9  H3  R02 d   1      65.721  69.654  65.429  0.00  0.00     0.075 H 
ATOM     10  H4  R02 d   1      65.109  71.339  65.304  0.00  0.00     0.075 H 
BRANCH   8  11
ATOM     11  O1B R02 d   1      64.191  70.158  66.790  0.00  0.00    -0.351 OA
BRANCH  11  12
ATOM     12  C4A R02 d   1      65.019  70.297  67.937  0.00  0.00     0.068 A 
ATOM     13  C3A R02 d   1      65.986  71.333  68.012  0.00  0.00    -0.050 A 
ATOM     14  C2A R02 d   1      66.807  71.469  69.155  0.00  0.00    -0.067 A 
ATOM     15  H2  R02 d   1      66.096  72.026  67.186  0.00  0.00     0.087 H 
ATOM     16  C1A R02 d   1      66.688  70.581  70.260  0.00  0.00     0.015 A 
ATOM     17  H1  R02 d   1      67.541  72.266  69.190  0.00  0.00     0.085 H 
ATOM     18  C6A R02 d   1      65.715  69.537  70.196  0.00  0.00    -0.067 A 
ATOM     19  C5A R02 d   1      64.885  69.396  69.042  0.00  0.00    -0.050 A 
ATOM     20  H20 R02 d   1      65.606  68.849  71.027  0.00  0.00     0.085 H 
ATOM     21  H19 R02 d   1      64.149  68.602  69.002  0.00  0.00     0.087 H 
BRANCH  16  22
ATOM     22  C1  R02 d   1      67.587  70.724  71.500  0.00  0.00     0.192 C 
ATOM     23  O2  R02 d   1      67.749  69.739  72.213  0.00  0.00    -0.287 OA
BRANCH  22  24
ATOM     24  C1G R02 d   1      68.310  72.015  71.892  0.00  0.00     0.015 A 
ATOM     25  C6G R02 d   1      67.661  73.284  71.795  0.00  0.00    -0.068 A 
ATOM     26  C5G R02 d   1      68.338  74.469  72.153  0.00  0.00    -0.065 A 
ATOM     27  H21 R02 d   1      66.637  73.337  71.442  0.00  0.00     0.085 H 
ATOM     28  C4G R02 d   1      69.677  74.413  72.619  0.00  0.00     0.011 A 
ATOM     29  H22 R02 d   1      67.834  75.425  72.072  0.00  0.00     0.085 H 
ATOM     30 BR25 R02 d   1      70.544  75.991  73.074  0.00  0.00    -0.051 Br
ATOM     31  C3G R02 d   1      70.341  73.150  72.728  0.00  0.00    -0.065 A 
ATOM     32  C2G R02 d   1      69.659  71.958  72.366  0.00  0.00    -0.068 A 
ATOM     33  H23 R02 d   1      71.363  73.103  73.086  0.00  0.00     0.085 H 
ATOM     34  H27 R02 d   1      70.162  71.001  72.449  0.00  0.00     0.085 H 
ENDBRANCH  22  24
ENDBRANCH  16  22
ENDBRANCH  11  12
ENDBRANCH   8  11
ENDBRANCH   1   8
BRANCH   3  35
ATOM     35  C1C R02 d   1      62.911  70.175  61.955  0.00  0.00     0.088 C 
ATOM     36  H12 R02 d   1      63.611  69.356  61.733  0.00  0.00     0.076 H 
ATOM     37  H13 R02 d   1      61.903  69.764  62.112  0.00  0.00     0.076 H 
BRANCH  35  38
ATOM     38  N1D R02 d   1      62.854  71.064  60.739  0.00  0.00    -0.063 N 
ATOM     39  H11 R02 d   1      61.887  71.132  60.464  0.00  0.00     0.280 HD
BRANCH  38  40
ATOM     40  C1F R02 d   1      63.352  72.447  61.021  0.00  0.00     0.104 A 
ATOM     41  C2F R02 d   1      62.522  73.618  60.465  0.00  0.00    -0.036 A 
ATOM     42  C3F R02 d   1      63.910  73.329  59.870  0.00  0.00    -0.036 A 
ATOM     43  H8  R02 d   1      62.365  74.518  61.078  0.00  0.00     0.036 H 
ATOM     44  H9  R02 d   1      61.618  73.416  59.871  0.00  0.00     0.036 H 
ATOM     45  H25 R02 d   1      64.745  74.019  60.060  0.00  0.00     0.036 H 
ATOM     46  H26 R02 d   1      63.999  72.917  58.854  0.00  0.00     0.036 H 
ATOM     47  H10 R02 d   1      63.804  72.493  62.023  0.00  0.00     0.084 H 
ENDBRANCH  38  40
BRANCH  38  48
ATOM     48  C1E R02 d   1      63.614  70.506  59.598  0.00  0.00     0.098 C 
ATOM     49  H14 R02 d   1      64.589  70.162  59.972  0.00  0.00     0.082 H 
ATOM     50  H15 R02 d   1      63.766  71.310  58.863  0.00  0.00     0.082 H 
BRANCH  48  51
ATOM     51  C2E R02 d   1      62.942  69.344  58.894  0.00  0.00    -0.087 C 
ATOM     52  C3E R02 d   1      63.645  68.326  58.388  0.00  0.00    -0.123 C 
ATOM     53  H17 R02 d   1      63.132  67.506  57.888  0.00  0.00     0.066 H 
ATOM     54  H18 R02 d   1      64.730  68.317  58.476  0.00  0.00     0.066 H 
ATOM     55  H16 R02 d   1      61.857  69.338  58.798  0.00  0.00     0.078 H 
ENDBRANCH  48  51
ENDBRANCH  38  48
ENDBRANCH  35  38
ENDBRANCH   3  35
TORSDOF 10
