REMARK  13 active torsions:
REMARK  status: ('A' for Active; 'I' for Inactive)
REMARK    1  A    between atoms: C2A_2  and  C1A_3 
REMARK    2  A    between atoms: C1A_3  and  N1_4 
REMARK    3  A    between atoms: N1_4  and  C1B_5 
REMARK    4  A    between atoms: N1_4  and  C1F_29 
REMARK    5  A    between atoms: C1B_5  and  C2B_6 
REMARK    6  A    between atoms: C2B_6  and  C3B_7 
REMARK    7  A    between atoms: C3B_7  and  C4B_8 
REMARK    8  A    between atoms: C4B_8  and  C5B_9 
REMARK    9  A    between atoms: C5B_9  and  C6B_10 
REMARK   10  A    between atoms: C6B_10  and  O_11 
REMARK   11  A    between atoms: O_11  and  C6C_12 
REMARK   12  A    between atoms: N1C_15  and  C1E_28 
REMARK   13  A    between atoms: C3C_17  and  C1D_21 
ROOT
ATOM      1  C6B R03 d   1      65.138  69.508  67.264  0.00  0.00     0.026 C 
ATOM      2  H17 R03 d   1      65.622  70.308  66.685  0.00  0.00     0.075 H 
ATOM      3  H18 R03 d   1      65.863  68.703  67.455  0.00  0.00     0.075 H 
ENDROOT
BRANCH   1   4
ATOM      4  C5B R03 d   1      63.932  68.946  66.470  0.00  0.00    -0.045 C 
ATOM      5  H15 R03 d   1      64.291  68.163  65.785  0.00  0.00     0.036 H 
ATOM      6  H16 R03 d   1      63.212  68.511  67.179  0.00  0.00     0.036 H 
BRANCH   4   7
ATOM      7  C4B R03 d   1      63.217  70.049  65.641  0.00  0.00    -0.063 C 
ATOM      8  H13 R03 d   1      62.200  69.707  65.397  0.00  0.00     0.033 H 
ATOM      9  H14 R03 d   1      63.160  70.967  66.245  0.00  0.00     0.033 H 
BRANCH   7  10
ATOM     10  C3B R03 d   1      63.975  70.364  64.316  0.00  0.00    -0.063 C 
ATOM     11  H11 R03 d   1      64.158  71.447  64.258  0.00  0.00     0.033 H 
ATOM     12  H12 R03 d   1      64.936  69.829  64.319  0.00  0.00     0.033 H 
BRANCH  10  13
ATOM     13  C2B R03 d   1      63.156  69.923  63.073  0.00  0.00    -0.042 C 
ATOM     14  H9  R03 d   1      63.850  69.580  62.291  0.00  0.00     0.035 H 
ATOM     15  H10 R03 d   1      62.489  69.097  63.359  0.00  0.00     0.035 H 
BRANCH  13  16
ATOM     16  C1B R03 d   1      62.300  71.092  62.511  0.00  0.00     0.083 C 
ATOM     17  H7  R03 d   1      61.239  70.830  62.639  0.00  0.00     0.075 H 
ATOM     18  H8  R03 d   1      62.528  71.994  63.097  0.00  0.00     0.075 H 
BRANCH  16  19
ATOM     19  N1  R03 d   1      62.528  71.407  61.070  0.00  0.00    -0.072 N 
ATOM     20  H6  R03 d   1      63.435  71.050  60.814  0.00  0.00     0.279 HD
BRANCH  19  21
ATOM     21  C1A R03 d   1      61.519  70.779  60.167  0.00  0.00     0.097 C 
ATOM     22  H4  R03 d   1      60.599  70.596  60.742  0.00  0.00     0.082 H 
ATOM     23  H5  R03 d   1      61.304  71.475  59.343  0.00  0.00     0.082 H 
BRANCH  21  24
ATOM     24  C2A R03 d   1      61.993  69.462  59.579  0.00  0.00    -0.087 C 
ATOM     25  C3A R03 d   1      62.890  69.374  58.587  0.00  0.00    -0.123 C 
ATOM     26  H1  R03 d   1      63.189  68.398  58.209  0.00  0.00     0.066 H 
ATOM     27  H2  R03 d   1      63.320  70.279  58.160  0.00  0.00     0.066 H 
ATOM     28  H3  R03 d   1      61.582  68.539  59.985  0.00  0.00     0.078 H 
ENDBRANCH  21  24
ENDBRANCH  19  21
BRANCH  19  29
ATOM     29  C1F R03 d   1      62.531  72.887  60.885  0.00  0.00     0.067 C 
ATOM     30  H29 R03 d   1      62.699  73.124  59.824  0.00  0.00     0.068 H 
ATOM     31  H30 R03 d   1      63.335  73.331  61.491  0.00  0.00     0.068 H 
ATOM     32  H31 R03 d   1      61.562  73.298  61.203  0.00  0.00     0.068 H 
ENDBRANCH  19  29
ENDBRANCH  16  19
ENDBRANCH  13  16
ENDBRANCH  10  13
ENDBRANCH   7  10
ENDBRANCH   4   7
ENDBRANCH   1   4
BRANCH   1  33
ATOM     33  O   R03 d   1      64.659  70.038  68.519  0.00  0.00    -0.351 OA
BRANCH  33  34
ATOM     34  C6C R03 d   1      65.633  70.675  69.306  0.00  0.00     0.071 A 
ATOM     35  C7C R03 d   1      66.459  69.906  70.189  0.00  0.00    -0.022 A 
ATOM     36  C7P R03 d   1      67.436  70.599  70.972  0.00  0.00     0.067 A 
ATOM     37  H19 R03 d   1      66.347  68.830  70.262  0.00  0.00     0.091 H 
ATOM     38  N1C R03 d   1      68.312  70.101  71.858  0.00  0.00    -0.273 N 
ATOM     39  C3P R03 d   1      67.576  71.997  70.872  0.00  0.00     0.024 A 
ATOM     40  N2C R03 d   1      68.963  71.058  72.297  0.00  0.00    -0.171 NA
ATOM     41  C3C R03 d   1      68.608  72.236  71.776  0.00  0.00     0.100 A 
ATOM     42  C4C R03 d   1      66.764  72.781  70.002  0.00  0.00    -0.066 A 
ATOM     43  C5C R03 d   1      65.788  72.095  69.219  0.00  0.00    -0.050 A 
ATOM     44  H20 R03 d   1      66.883  73.856  69.938  0.00  0.00     0.085 H 
ATOM     45  H21 R03 d   1      65.153  72.660  68.546  0.00  0.00     0.087 H 
BRANCH  38  46
ATOM     46  C1E R03 d   1      68.478  68.697  72.241  0.00  0.00     0.003 C 
ATOM     47  H26 R03 d   1      69.279  68.614  72.990  0.00  0.00     0.059 H 
ATOM     48  H27 R03 d   1      68.743  68.104  71.353  0.00  0.00     0.059 H 
ATOM     49  H28 R03 d   1      67.537  68.319  72.667  0.00  0.00     0.059 H 
ENDBRANCH  38  46
BRANCH  41  50
ATOM     50  C1D R03 d   1      69.249  73.568  72.139  0.00  0.00    -0.005 A 
ATOM     51  C6D R03 d   1      70.566  73.880  71.687  0.00  0.00    -0.069 A 
ATOM     52  C5D R03 d   1      71.180  75.122  72.026  0.00  0.00    -0.065 A 
ATOM     53  H22 R03 d   1      71.107  73.164  71.078  0.00  0.00     0.085 H 
ATOM     54  C4D R03 d   1      70.480  76.069  72.827  0.00  0.00     0.011 A 
ATOM     55  H23 R03 d   1      72.180  75.345  71.674  0.00  0.00     0.085 H 
ATOM     56  C3D R03 d   1      69.158  75.764  73.282  0.00  0.00    -0.065 A 
ATOM     57 BR27 R03 d   1      71.290  77.687  73.279  0.00  0.00    -0.051 Br
ATOM     58  C2D R03 d   1      68.545  74.518  72.939  0.00  0.00    -0.069 A 
ATOM     59  H24 R03 d   1      68.618  76.481  73.890  0.00  0.00     0.085 H 
ATOM     60  H25 R03 d   1      67.543  74.294  73.287  0.00  0.00     0.085 H 
ENDBRANCH  41  50
ENDBRANCH  33  34
ENDBRANCH   1  33
TORSDOF 13
