REMARK  10 active torsions:
REMARK  status: ('A' for Active; 'I' for Inactive)
REMARK    1  A    between atoms: C2A_2  and  C1A_3 
REMARK    2  A    between atoms: C1A_3  and  N1_4 
REMARK    3  A    between atoms: N1_4  and  C1B_5 
REMARK    4  A    between atoms: N1_4  and  C1F_28 
REMARK    5  A    between atoms: C1B_5  and  C2B_6 
REMARK    6  A    between atoms: C3B_7  and  C4B_8 
REMARK    7  A    between atoms: C4B_8  and  O_9 
REMARK    8  A    between atoms: O_9  and  C6C_10 
REMARK    9  A    between atoms: N1C_13  and  C1E_27 
REMARK   10  A    between atoms: C3C_15  and  C1D_19 
ROOT
ATOM      1  C6C R04 d   1      63.537  69.590  66.340  0.00  0.00     0.110 A 
ATOM      2  C7C R04 d   1      63.949  70.965  66.266  0.00  0.00    -0.019 A 
ATOM      3  C7P R04 d   1      64.893  71.439  67.201  0.00  0.00     0.068 A 
ATOM      4  N1C R04 d   1      65.405  72.669  67.307  0.00  0.00    -0.273 N 
ATOM      5  N2C R04 d   1      66.187  72.672  68.241  0.00  0.00    -0.171 NA
ATOM      6  C3C R04 d   1      66.280  71.486  68.845  0.00  0.00     0.100 A 
ATOM      7  C3P R04 d   1      65.423  70.594  68.190  0.00  0.00     0.027 A 
ATOM      8  C4C R04 d   1      65.030  69.214  68.295  0.00  0.00    -0.028 A 
ATOM      9  C5C R04 d   1      64.074  68.730  67.347  0.00  0.00     0.150 A 
ATOM     10  F   R04 d   1      63.683  67.458  67.406  0.00  0.00    -0.203 F 
ATOM     11  H13 R04 d   1      63.543  71.624  65.507  0.00  0.00     0.091 H 
ATOM     12  H14 R04 d   1      65.442  68.567  69.061  0.00  0.00     0.089 H 
ENDROOT
BRANCH   1  13
ATOM     13  O   R04 d   1      62.586  69.043  65.416  0.00  0.00    -0.344 OA
BRANCH  13  14
ATOM     14  C4B R04 d   1      61.967  69.962  64.481  0.00  0.00     0.041 C 
ATOM     15  H11 R04 d   1      60.918  69.673  64.320  0.00  0.00     0.081 H 
ATOM     16  H12 R04 d   1      62.008  70.984  64.886  0.00  0.00     0.081 H 
BRANCH  14  17
ATOM     17  C3B R04 d   1      62.717  69.907  63.165  0.00  0.00    -0.082 C 
ATOM     18  C2B R04 d   1      62.845  70.973  62.354  0.00  0.00    -0.080 C 
ATOM     19  H9  R04 d   1      62.383  71.912  62.653  0.00  0.00     0.079 H 
ATOM     20  H10 R04 d   1      63.172  68.965  62.863  0.00  0.00     0.079 H 
BRANCH  18  21
ATOM     21  C1B R04 d   1      63.606  70.925  61.038  0.00  0.00     0.098 C 
ATOM     22  H7  R04 d   1      64.491  71.571  61.137  0.00  0.00     0.082 H 
ATOM     23  H8  R04 d   1      63.927  69.886  60.873  0.00  0.00     0.082 H 
BRANCH  21  24
ATOM     24  N1  R04 d   1      62.844  71.372  59.817  0.00  0.00    -0.069 N 
ATOM     25  H6  R04 d   1      63.501  71.402  59.053  0.00  0.00     0.280 HD
BRANCH  24  26
ATOM     26  C1A R04 d   1      61.762  70.421  59.426  0.00  0.00     0.098 C 
ATOM     27  H4  R04 d   1      61.249  70.071  60.334  0.00  0.00     0.082 H 
ATOM     28  H5  R04 d   1      61.044  70.945  58.778  0.00  0.00     0.082 H 
BRANCH  26  29
ATOM     29  C2A R04 d   1      62.313  69.222  58.680  0.00  0.00    -0.087 C 
ATOM     30  C3A R04 d   1      63.199  69.323  57.681  0.00  0.00    -0.123 C 
ATOM     31  H1  R04 d   1      63.560  68.426  57.181  0.00  0.00     0.066 H 
ATOM     32  H2  R04 d   1      63.558  70.302  57.369  0.00  0.00     0.066 H 
ATOM     33  H3  R04 d   1      61.971  68.230  58.971  0.00  0.00     0.078 H 
ENDBRANCH  26  29
ENDBRANCH  24  26
BRANCH  24  34
ATOM     34  C1F R04 d   1      62.300  72.759  59.997  0.00  0.00     0.067 C 
ATOM     35  H22 R04 d   1      61.750  73.057  59.092  0.00  0.00     0.068 H 
ATOM     36  H23 R04 d   1      63.131  73.459  60.169  0.00  0.00     0.068 H 
ATOM     37  H24 R04 d   1      61.620  72.777  60.862  0.00  0.00     0.068 H 
ENDBRANCH  24  34
ENDBRANCH  21  24
ENDBRANCH  18  21
ENDBRANCH  14  17
ENDBRANCH  13  14
ENDBRANCH   1  13
BRANCH   4  38
ATOM     38  C1E R04 d   1      65.103  73.828  66.462  0.00  0.00     0.003 C 
ATOM     39  H19 R04 d   1      65.687  74.695  66.806  0.00  0.00     0.059 H 
ATOM     40  H20 R04 d   1      64.030  74.060  66.528  0.00  0.00     0.059 H 
ATOM     41  H21 R04 d   1      65.366  73.599  65.419  0.00  0.00     0.059 H 
ENDBRANCH   4  38
BRANCH   6  42
ATOM     42  C1D R04 d   1      67.201  71.280  70.032  0.00  0.00    -0.005 A 
ATOM     43  C6D R04 d   1      67.654  69.986  70.447  0.00  0.00    -0.069 A 
ATOM     44  C5D R04 d   1      68.520  69.851  71.571  0.00  0.00    -0.065 A 
ATOM     45  H15 R04 d   1      67.336  69.104  69.903  0.00  0.00     0.085 H 
ATOM     46  C4D R04 d   1      68.938  71.012  72.284  0.00  0.00     0.011 A 
ATOM     47  H16 R04 d   1      68.859  68.870  71.882  0.00  0.00     0.085 H 
ATOM     48  C3D R04 d   1      68.488  72.299  71.869  0.00  0.00    -0.065 A 
ATOM     49 BR27 R04 d   1      70.064  70.850  73.752  0.00  0.00    -0.051 Br
ATOM     50  C2D R04 d   1      67.628  72.425  70.754  0.00  0.00    -0.069 A 
ATOM     51  H17 R04 d   1      68.806  73.183  72.409  0.00  0.00     0.085 H 
ATOM     52  H18 R04 d   1      67.290  73.408  70.447  0.00  0.00     0.085 H 
ENDBRANCH   6  42
TORSDOF 10
