REMARK  12 active torsions:
REMARK  status: ('A' for Active; 'I' for Inactive)
REMARK    1  A    between atoms: C2A_2  and  C1A_3 
REMARK    2  A    between atoms: C1A_3  and  N1_4 
REMARK    3  A    between atoms: N1_4  and  C1B_5 
REMARK    4  A    between atoms: N1_4  and  C1E_28 
REMARK    5  A    between atoms: C1B_5  and  C2B_6 
REMARK    6  A    between atoms: C2B_6  and  C3B_7 
REMARK    7  A    between atoms: C3B_7  and  C4B_8 
REMARK    8  A    between atoms: C4B_8  and  C5B_9 
REMARK    9  A    between atoms: C5B_9  and  C6B_10 
REMARK   10  A    between atoms: C6B_10  and  O_11 
REMARK   11  A    between atoms: O_11  and  C6C_12 
REMARK   12  A    between atoms: C3C_17  and  C1D_21 
ROOT
ATOM      1  C5B R79 d   1      63.908  69.107  65.883  0.00  0.00    -0.045 C 
ATOM      2  H15 R79 d   1      64.320  68.474  65.084  0.00  0.00     0.036 H 
ATOM      3  H16 R79 d   1      63.225  68.512  66.507  0.00  0.00     0.036 H 
ENDROOT
BRANCH   1   4
ATOM      4  C4B R79 d   1      63.120  70.276  65.245  0.00  0.00    -0.063 C 
ATOM      5  H13 R79 d   1      62.072  69.969  65.108  0.00  0.00     0.033 H 
ATOM      6  H14 R79 d   1      63.163  71.146  65.917  0.00  0.00     0.033 H 
BRANCH   4   7
ATOM      7  C3B R79 d   1      63.715  70.671  63.869  0.00  0.00    -0.063 C 
ATOM      8  H11 R79 d   1      63.712  71.767  63.777  0.00  0.00     0.033 H 
ATOM      9  H12 R79 d   1      64.749  70.300  63.804  0.00  0.00     0.033 H 
BRANCH   7  10
ATOM     10  C2B R79 d   1      62.884  70.062  62.710  0.00  0.00    -0.042 C 
ATOM     11  H9  R79 d   1      63.570  69.699  61.931  0.00  0.00     0.035 H 
ATOM     12  H10 R79 d   1      62.292  69.220  63.099  0.00  0.00     0.035 H 
BRANCH  10  13
ATOM     13  C1B R79 d   1      61.919  71.113  62.084  0.00  0.00     0.083 C 
ATOM     14  H7  R79 d   1      60.914  70.668  62.034  0.00  0.00     0.075 H 
ATOM     15  H8  R79 d   1      61.898  71.994  62.743  0.00  0.00     0.075 H 
BRANCH  13  16
ATOM     16  N1  R79 d   1      62.295  71.567  60.714  0.00  0.00    -0.072 N 
ATOM     17  H6  R79 d   1      63.227  71.237  60.519  0.00  0.00     0.279 HD
BRANCH  16  18
ATOM     18  C1A R79 d   1      61.389  71.024  59.658  0.00  0.00     0.097 C 
ATOM     19  H4  R79 d   1      60.525  70.554  60.151  0.00  0.00     0.082 H 
ATOM     20  H5  R79 d   1      61.044  71.862  59.034  0.00  0.00     0.082 H 
BRANCH  18  21
ATOM     21  C2A R79 d   1      62.044  69.989  58.751  0.00  0.00    -0.087 C 
ATOM     22  C3A R79 d   1      63.106  69.239  59.087  0.00  0.00    -0.123 C 
ATOM     23  H1  R79 d   1      63.512  68.521  58.376  0.00  0.00     0.066 H 
ATOM     24  H2  R79 d   1      63.561  69.349  60.070  0.00  0.00     0.066 H 
ATOM     25  H3  R79 d   1      61.620  69.847  57.758  0.00  0.00     0.078 H 
ENDBRANCH  18  21
ENDBRANCH  16  18
BRANCH  16  26
ATOM     26  C1E R79 d   1      62.304  73.061  60.684  0.00  0.00     0.067 C 
ATOM     27  H26 R79 d   1      62.581  73.406  59.677  0.00  0.00     0.068 H 
ATOM     28  H27 R79 d   1      63.035  73.438  61.414  0.00  0.00     0.068 H 
ATOM     29  H28 R79 d   1      61.303  73.439  60.939  0.00  0.00     0.068 H 
ENDBRANCH  16  26
ENDBRANCH  13  16
ENDBRANCH  10  13
ENDBRANCH   7  10
ENDBRANCH   4   7
ENDBRANCH   1   4
BRANCH   1  30
ATOM     30  C6B R79 d   1      65.070  69.628  66.763  0.00  0.00     0.026 C 
ATOM     31  H17 R79 d   1      65.609  70.422  66.226  0.00  0.00     0.075 H 
ATOM     32  H18 R79 d   1      65.761  68.802  66.986  0.00  0.00     0.075 H 
BRANCH  30  33
ATOM     33  O   R79 d   1      64.538  70.156  67.996  0.00  0.00    -0.351 OA
BRANCH  33  34
ATOM     34  C6C R79 d   1      65.498  70.612  68.896  0.00  0.00     0.070 A 
ATOM     35  C7C R79 d   1      66.266  69.693  69.700  0.00  0.00    -0.032 A 
ATOM     36  C7P R79 d   1      67.223  70.242  70.581  0.00  0.00     0.038 A 
ATOM     37  H19 R79 d   1      66.114  68.622  69.630  0.00  0.00     0.089 H 
ATOM     38  S1C R79 d   1      68.313  69.395  71.685  0.00  0.00     0.012 SA
ATOM     39  C3P R79 d   1      67.413  71.671  70.665  0.00  0.00     0.013 A 
ATOM     40  N2C R79 d   1      68.895  70.801  72.136  0.00  0.00    -0.210 NA
ATOM     41  C3C R79 d   1      68.407  71.946  71.591  0.00  0.00     0.087 A 
ATOM     42  C4C R79 d   1      66.643  72.538  69.870  0.00  0.00    -0.067 A 
ATOM     43  C5C R79 d   1      65.696  71.994  68.996  0.00  0.00    -0.050 A 
ATOM     44  H20 R79 d   1      66.781  73.611  69.933  0.00  0.00     0.085 H 
ATOM     45  H21 R79 d   1      65.101  72.659  68.381  0.00  0.00     0.087 H 
BRANCH  41  46
ATOM     46  C1D R79 d   1      68.981  73.291  72.037  0.00  0.00    -0.006 A 
ATOM     47  C6D R79 d   1      70.345  73.547  71.772  0.00  0.00    -0.070 A 
ATOM     48  C5D R79 d   1      70.950  74.787  72.175  0.00  0.00    -0.065 A 
ATOM     49  H22 R79 d   1      70.941  72.801  71.260  0.00  0.00     0.085 H 
ATOM     50  C4D R79 d   1      70.196  75.788  72.850  0.00  0.00     0.011 A 
ATOM     51  H23 R79 d   1      71.998  74.963  71.961  0.00  0.00     0.085 H 
ATOM     52  C3D R79 d   1      68.817  75.548  73.126  0.00  0.00    -0.065 A 
ATOM     53 BR27 R79 d   1      71.033  77.368  73.366  0.00  0.00    -0.051 Br
ATOM     54  C2D R79 d   1      68.199  74.299  72.723  0.00  0.00    -0.070 A 
ATOM     55  H24 R79 d   1      68.229  76.301  73.638  0.00  0.00     0.085 H 
ATOM     56  H25 R79 d   1      67.151  74.120  72.935  0.00  0.00     0.085 H 
ENDBRANCH  41  46
ENDBRANCH  33  34
ENDBRANCH  30  33
ENDBRANCH   1  30
TORSDOF 12
