REMARK WARNING: 32 MAX_TORS EXCEEDED!!!
REMARK  44 active torsions:
REMARK  status: ('A' for Active; 'I' for Inactive)
REMARK    1  A    between atoms: N_1  and  CA_2 
REMARK    2  A    between atoms: CA_2  and  C_3 
REMARK    3  A    between atoms: CA_2  and  CB_5 
REMARK       I    between atoms: C_3  and  N_6 
REMARK    4  A    between atoms: CA_7  and  C_8 
REMARK       I    between atoms: C_8  and  N_13 
REMARK    5  A    between atoms: N_13  and  CA_14 
REMARK    6  A    between atoms: CA_14  and  C_15 
REMARK    7  A    between atoms: CA_14  and  CB_17 
REMARK       I    between atoms: C_15  and  N_19 
REMARK    8  A    between atoms: CB_17  and  OG_18 
REMARK    9  A    between atoms: N_19  and  CA_20 
REMARK   10  A    between atoms: CA_20  and  C_21 
REMARK   11  A    between atoms: CA_20  and  CB_23 
REMARK       I    between atoms: C_21  and  N_27 
REMARK   12  A    between atoms: CB_23  and  CG1_24 
REMARK   13  A    between atoms: CB_23  and  CG2_25 
REMARK   14  A    between atoms: CG1_24  and  CD1_26 
REMARK   15  A    between atoms: N_27  and  CA_28 
REMARK   16  A    between atoms: CA_28  and  C_29 
REMARK   17  A    between atoms: CA_28  and  CB_31 
REMARK       I    between atoms: C_29  and  N_35 
REMARK   18  A    between atoms: CB_31  and  CG_32 
REMARK   19  A    between atoms: N_35  and  CA_36 
REMARK   20  A    between atoms: CA_36  and  C_37 
REMARK   21  A    between atoms: CA_36  and  CB_39 
REMARK       I    between atoms: C_37  and  N_46 
REMARK   22  A    between atoms: CB_39  and  CG_40 
REMARK   23  A    between atoms: CG_40  and  CD_41 
REMARK   24  A    between atoms: CD_41  and  NE_42 
REMARK       I    between atoms: NE_42  and  CZ_43 
REMARK       I    between atoms: CZ_43  and  NH1_44 
REMARK   25  A    between atoms: N_46  and  CA_47 
REMARK   26  A    between atoms: CA_47  and  C_48 
REMARK   27  A    between atoms: CA_47  and  CB_50 
REMARK       I    between atoms: C_48  and  N_52 
REMARK   28  A    between atoms: CB_50  and  OG_51 
REMARK   29  A    between atoms: N_52  and  CA_53 
REMARK   30  A    between atoms: CA_53  and  C_54 
REMARK   31  A    between atoms: CA_53  and  CB_56 
REMARK       I    between atoms: C_54  and  N_59 
REMARK   32  A    between atoms: CB_56  and  OG1_57 
REMARK   33  A    between atoms: CB_56  and  CG2_58 
REMARK   34  A    between atoms: N_59  and  CA_60 
REMARK   35  A    between atoms: CA_60  and  C_61 
REMARK   36  A    between atoms: CA_60  and  CB_63 
REMARK       I    between atoms: C_61  and  N_68 
REMARK   37  A    between atoms: CB_63  and  CG_64 
REMARK   38  A    between atoms: CG_64  and  CD_65 
REMARK   39  A    between atoms: CD_65  and  CE_66 
REMARK   40  A    between atoms: CE_66  and  NZ_67 
REMARK   41  A    between atoms: CA_69  and  C_70 
REMARK       I    between atoms: C_70  and  N_75 
REMARK   42  A    between atoms: N_75  and  CA_76 
REMARK   43  A    between atoms: CA_76  and  C_77 
REMARK   44  A    between atoms: CA_76  and  CB_79 
ROOT
ATOM      1  CA  ARG d   1      11.743  -2.503   1.795  0.00  0.00     0.089 C 
ATOM      2  H36 ARG d   1      10.672  -2.679   1.613  0.00  0.00     0.087 H 
ENDROOT
BRANCH   1   3
ATOM      3  N   ARG d   1      11.886  -1.837   3.086  0.00  0.00    -0.346 N 
ATOM      4  C   ASP d   1      11.211  -2.238   4.157  0.00  0.00     0.241 C 
ATOM      5  O   ASP d   1      10.427  -3.186   4.137  0.00  0.00    -0.271 OA
ATOM      6  H35 ARG d   1      12.508  -1.058   3.166  0.00  0.00     0.163 HD
BRANCH   4   7
ATOM      7  CA  ASP d   1      11.449  -1.449   5.440  0.00  0.00     0.098 C 
ATOM      8  H32 ASP d   1      12.088  -0.584   5.207  0.00  0.00     0.088 H 
BRANCH   7   9
ATOM      9  N   ASP d   1      10.186  -0.961   5.982  0.00  0.00    -0.345 N 
ATOM     10  C   ILE d   1       9.857   0.325   5.947  0.00  0.00     0.241 C 
ATOM     11  O   ILE d   1      10.584   1.194   5.463  0.00  0.00    -0.271 OA
ATOM     12  H31 ASP d   1       9.549  -1.614   6.392  0.00  0.00     0.163 HD
BRANCH  10  13
ATOM     13  CA  ILE d   1       8.499   0.679   6.550  0.00  0.00     0.092 C 
ATOM     14  H21 ILE d   1       8.185  -0.154   7.196  0.00  0.00     0.088 H 
BRANCH  13  15
ATOM     15  N   ILE d   1       8.582   1.875   7.369  0.00  0.00    -0.346 N 
ATOM     16  C   SER d   1       8.363   1.839   8.676  0.00  0.00     0.243 C 
ATOM     17  O   SER d   1       8.077   0.808   9.285  0.00  0.00    -0.271 OA
ATOM     18  H20 ILE d   1       8.810   2.747   6.936  0.00  0.00     0.163 HD
BRANCH  16  19
ATOM     19  CA  SER d   1       8.478   3.171   9.398  0.00  0.00     0.109 C 
ATOM     20  H16 SER d   1       8.671   3.955   8.651  0.00  0.00     0.090 H 
BRANCH  19  21
ATOM     21  N   SER d   1       7.239   3.496  10.094  0.00  0.00    -0.344 N 
ATOM     22  C   PRO d   1       6.423   4.448   9.653  0.00  0.00     0.241 C 
ATOM     23  O   PRO d   1       6.652   5.113   8.643  0.00  0.00    -0.271 OA
ATOM     24  H15 SER d   1       6.997   2.991  10.923  0.00  0.00     0.163 HD
BRANCH  22  25
ATOM     25  CA  PRO d   1       5.159   4.686  10.472  0.00  0.00     0.091 C 
ATOM     26  N   PRO d   1       5.032   6.081  10.906  0.00  0.00    -0.337 N 
ATOM     27  C   ALA d   1       5.880   6.649  11.783  0.00  0.00     0.250 C 
ATOM     28  CD  PRO d   1       3.885   6.746  10.270  0.00  0.00    -0.001 C 
ATOM     29  O   ALA d   1       6.820   6.024  12.275  0.00  0.00    -0.271 OA
ATOM     30  CG  PRO d   1       2.999   5.593   9.904  0.00  0.00    -0.048 C 
ATOM     31  H13 PRO d   1       4.197   7.306   9.376  0.00  0.00     0.064 H 
ATOM     32  H14 PRO d   1       3.381   7.426  10.972  0.00  0.00     0.064 H 
ATOM     33  CB  PRO d   1       3.914   4.454   9.604  0.00  0.00    -0.036 C 
ATOM     34  H11 PRO d   1       2.335   5.339  10.743  0.00  0.00     0.035 H 
ATOM     35  H12 PRO d   1       2.394   5.841   9.020  0.00  0.00     0.035 H 
ATOM     36  H9  PRO d   1       3.436   3.498   9.865  0.00  0.00     0.036 H 
ATOM     37  H10 PRO d   1       4.184   4.449   8.538  0.00  0.00     0.036 H 
ATOM     38  H8  PRO d   1       5.160   4.013  11.342  0.00  0.00     0.087 H 
BRANCH  27  39
ATOM     39  CA  ALA d   1       5.637   8.109  12.156  0.00  0.00     0.172 C 
ATOM     40  H4  ALA d   1       4.952   8.547  11.415  0.00  0.00     0.098 H 
BRANCH  39  41
ATOM     41  N   ALA d   1       5.009   8.217  13.497  0.00  0.00    -0.067 N 
ATOM     42  H1  ALA d   1       4.859   9.188  13.720  0.00  0.00     0.275 HD
ATOM     43  H2  ALA d   1       5.617   7.804  14.187  0.00  0.00     0.275 HD
ATOM     44  H3  ALA d   1       4.125   7.732  13.494  0.00  0.00     0.275 HD
ENDBRANCH  39  41
BRANCH  39  45
ATOM     45  CB  ALA d   1       6.943   8.886  12.125  0.00  0.00    -0.042 C 
ATOM     46  H5  ALA d   1       7.398   8.798  11.127  0.00  0.00     0.030 H 
ATOM     47  H6  ALA d   1       7.631   8.477  12.879  0.00  0.00     0.030 H 
ATOM     48  H7  ALA d   1       6.745   9.945  12.346  0.00  0.00     0.030 H 
ENDBRANCH  39  45
ENDBRANCH  27  39
ENDBRANCH  22  25
ENDBRANCH  19  21
BRANCH  19  49
ATOM     49  CB  SER d   1       9.649   3.137  10.379  0.00  0.00     0.044 C 
ATOM     50  H17 SER d   1      10.166   2.170  10.288  0.00  0.00     0.077 H 
ATOM     51  H18 SER d   1       9.264   3.252  11.403  0.00  0.00     0.077 H 
BRANCH  49  52
ATOM     52  OG  SER d   1      10.569   4.180  10.111  0.00  0.00    -0.398 OA
ATOM     53  H19 SER d   1      11.286   4.136  10.733  0.00  0.00     0.209 HD
ENDBRANCH  49  52
ENDBRANCH  19  49
ENDBRANCH  16  19
ENDBRANCH  13  15
BRANCH  13  54
ATOM     54  CB  ILE d   1       7.439   0.851   5.435  0.00  0.00    -0.030 C 
ATOM     55  H22 ILE d   1       7.065   1.885   5.477  0.00  0.00     0.043 H 
BRANCH  54  56
ATOM     56  CG1 ILE d   1       6.262  -0.094   5.689  0.00  0.00    -0.063 C 
ATOM     57  H23 ILE d   1       5.408   0.249   5.086  0.00  0.00     0.033 H 
ATOM     58  H24 ILE d   1       6.002  -0.042   6.756  0.00  0.00     0.033 H 
BRANCH  56  59
ATOM     59  CD1 ILE d   1       6.541  -1.542   5.338  0.00  0.00    -0.076 C 
ATOM     60  H28 ILE d   1       5.649  -2.149   5.550  0.00  0.00     0.027 H 
ATOM     61  H29 ILE d   1       7.385  -1.909   5.940  0.00  0.00     0.027 H 
ATOM     62  H30 ILE d   1       6.792  -1.619   4.270  0.00  0.00     0.027 H 
ENDBRANCH  56  59
ENDBRANCH  54  56
BRANCH  54  63
ATOM     63  CG2 ILE d   1       8.035   0.627   4.049  0.00  0.00    -0.071 C 
ATOM     64  H25 ILE d   1       8.877   1.319   3.896  0.00  0.00     0.028 H 
ATOM     65  H26 ILE d   1       7.266   0.811   3.285  0.00  0.00     0.028 H 
ATOM     66  H27 ILE d   1       8.393  -0.410   3.967  0.00  0.00     0.028 H 
ENDBRANCH  54  63
ENDBRANCH  13  54
ENDBRANCH  10  13
ENDBRANCH   7   9
BRANCH   7  67
ATOM     67  CB  ASP d   1      12.167  -2.325   6.469  0.00  0.00     0.043 C 
ATOM     68  H33 ASP d   1      13.245  -2.110   6.425  0.00  0.00     0.052 H 
ATOM     69  H34 ASP d   1      11.993  -3.381   6.216  0.00  0.00     0.052 H 
BRANCH  67  70
ATOM     70  CG  ASP d   1      11.679  -2.077   7.883  0.00  0.00     0.175 C 
ATOM     71  OD1 ASP d   1      11.737  -0.914   8.336  0.00  0.00    -0.648 OA
ATOM     72  OD2 ASP d   1      11.239  -3.045   8.537  0.00  0.00    -0.648 OA
ENDBRANCH  67  70
ENDBRANCH   7  67
ENDBRANCH   4   7
ENDBRANCH   1   3
BRANCH   1  73
ATOM     73  C   ARG d   1      12.460  -3.850   1.784  0.00  0.00     0.241 C 
ATOM     74  O   ARG d   1      12.372  -4.602   0.813  0.00  0.00    -0.271 OA
ATOM     75  N   SER d   1      13.176  -4.146   2.864  0.00  0.00    -0.344 N 
ATOM     76  H48 SER d   1      13.210  -3.493   3.621  0.00  0.00     0.163 HD
BRANCH  75  77
ATOM     77  CA  SER d   1      13.914  -5.400   2.973  0.00  0.00     0.109 C 
ATOM     78  H49 SER d   1      14.418  -5.588   2.013  0.00  0.00     0.090 H 
BRANCH  77  79
ATOM     79  C   SER d   1      12.982  -6.575   3.264  0.00  0.00     0.243 C 
ATOM     80  O   SER d   1      13.436  -7.706   3.439  0.00  0.00    -0.271 OA
ATOM     81  N   THR d   1      11.681  -6.304   3.317  0.00  0.00    -0.344 N 
ATOM     82  H53 THR d   1      11.371  -5.365   3.167  0.00  0.00     0.163 HD
BRANCH  81  83
ATOM     83  CA  THR d   1      10.696  -7.346   3.589  0.00  0.00     0.113 C 
ATOM     84  H54 THR d   1      11.207  -8.319   3.532  0.00  0.00     0.091 H 
BRANCH  83  85
ATOM     85  C   THR d   1       9.571  -7.334   2.554  0.00  0.00     0.243 C 
ATOM     86  O   THR d   1       8.451  -7.765   2.833  0.00  0.00    -0.271 OA
ATOM     87  N   LYS d   1       9.879  -6.842   1.357  0.00  0.00    -0.346 N 
ATOM     88  H60 LYS d   1      10.807  -6.508   1.194  0.00  0.00     0.163 HD
BRANCH  87  89
ATOM     89  CA  LYS d   1       8.901  -6.775   0.274  0.00  0.00     0.089 C 
ATOM     90  H61 LYS d   1       8.082  -6.109   0.582  0.00  0.00     0.087 H 
BRANCH  89  91
ATOM     91  C   LYS d   1       8.320  -8.159  -0.024  0.00  0.00     0.243 C 
ATOM     92  O   LYS d   1       8.915  -9.174   0.339  0.00  0.00    -0.271 OA
ATOM     93  N   PRO d   1       7.143  -8.221  -0.687  0.00  0.00    -0.337 N 
ATOM     94  CA  PRO d   1       6.493  -9.492  -1.025  0.00  0.00     0.091 C 
ATOM     95  CD  PRO d   1       6.354  -7.063  -1.157  0.00  0.00    -0.001 C 
ATOM     96  CB  PRO d   1       5.443  -9.085  -2.055  0.00  0.00    -0.036 C 
ATOM     97  H73 PRO d   1       6.021  -9.932  -0.134  0.00  0.00     0.087 H 
ATOM     98  CG  PRO d   1       5.091  -7.685  -1.692  0.00  0.00    -0.048 C 
ATOM     99  H74 PRO d   1       4.560  -9.738  -1.990  0.00  0.00     0.036 H 
ATOM    100  H75 PRO d   1       5.858  -9.130  -3.073  0.00  0.00     0.036 H 
ATOM    101  H76 PRO d   1       4.305  -7.676  -0.922  0.00  0.00     0.035 H 
ATOM    102  H77 PRO d   1       4.742  -7.137  -2.579  0.00  0.00     0.035 H 
ATOM    103  H78 PRO d   1       6.889  -6.519  -1.949  0.00  0.00     0.064 H 
ATOM    104  H79 PRO d   1       6.132  -6.377  -0.327  0.00  0.00     0.064 H 
BRANCH  94 105
ATOM    105  C   PRO d   1       7.461 -10.503  -1.627  0.00  0.00     0.241 C 
ATOM    106  O   PRO d   1       7.782 -10.443  -2.814  0.00  0.00    -0.271 OA
ATOM    107  N   ALA d   1       7.922 -11.431  -0.797  0.00  0.00    -0.345 N 
ATOM    108  H80 ALA d   1       7.622 -11.424   0.157  0.00  0.00     0.163 HD
BRANCH 107 109
ATOM    109  CA  ALA d   1       8.853 -12.459  -1.240  0.00  0.00     0.093 C 
ATOM    110  H81 ALA d   1       8.769 -12.553  -2.333  0.00  0.00     0.089 H 
BRANCH 109 111
ATOM    111  C   ALA d   1       8.515 -13.809  -0.617  0.00  0.00     0.196 C 
ATOM    112  O   ALA d   1       7.600 -13.854   0.232  0.00  0.00    -0.646 OA
ATOM    113  OXT ALA d   1       9.168 -14.809  -0.981  0.00  0.00    -0.646 OA
ENDBRANCH 109 111
BRANCH 109 114
ATOM    114  CB  ALA d   1      10.281 -12.061  -0.900  0.00  0.00    -0.048 C 
ATOM    115  H82 ALA d   1      10.972 -12.847  -1.240  0.00  0.00     0.030 H 
ATOM    116  H83 ALA d   1      10.377 -11.935   0.189  0.00  0.00     0.030 H 
ATOM    117  H84 ALA d   1      10.527 -11.114  -1.402  0.00  0.00     0.030 H 
ENDBRANCH 109 114
ENDBRANCH 107 109
ENDBRANCH  94 105
ENDBRANCH  89  91
BRANCH  89 118
ATOM    118  CB  LYS d   1       9.555  -6.204  -0.986  0.00  0.00    -0.038 C 
ATOM    119  H62 LYS d   1       9.200  -6.780  -1.853  0.00  0.00     0.036 H 
ATOM    120  H63 LYS d   1      10.645  -6.316  -0.893  0.00  0.00     0.036 H 
BRANCH 118 121
ATOM    121  CG  LYS d   1       9.242  -4.735  -1.224  0.00  0.00    -0.061 C 
ATOM    122  H64 LYS d   1       8.783  -4.316  -0.317  0.00  0.00     0.033 H 
ATOM    123  H65 LYS d   1       8.537  -4.652  -2.064  0.00  0.00     0.033 H 
BRANCH 121 124
ATOM    124  CD  LYS d   1      10.497  -3.941  -1.553  0.00  0.00    -0.043 C 
ATOM    125  H66 LYS d   1      11.280  -4.192  -0.823  0.00  0.00     0.035 H 
ATOM    126  H67 LYS d   1      10.267  -2.867  -1.490  0.00  0.00     0.035 H 
BRANCH 124 127
ATOM    127  CE  LYS d   1      11.007  -4.255  -2.951  0.00  0.00     0.080 C 
ATOM    128  H68 LYS d   1      10.327  -3.803  -3.688  0.00  0.00     0.075 H 
ATOM    129  H69 LYS d   1      11.022  -5.346  -3.087  0.00  0.00     0.075 H 
BRANCH 127 130
ATOM    130  NZ  LYS d   1      12.380  -3.723  -3.174  0.00  0.00    -0.079 N 
ATOM    131  H70 LYS d   1      12.681  -3.951  -4.109  0.00  0.00     0.274 HD
ATOM    132  H71 LYS d   1      13.013  -4.136  -2.507  0.00  0.00     0.274 HD
ATOM    133  H72 LYS d   1      12.376  -2.722  -3.057  0.00  0.00     0.274 HD
ENDBRANCH 127 130
ENDBRANCH 124 127
ENDBRANCH 121 124
ENDBRANCH 118 121
ENDBRANCH  89 118
ENDBRANCH  87  89
ENDBRANCH  83  85
BRANCH  83 134
ATOM    134  CB  THR d   1      10.098  -7.195   5.002  0.00  0.00     0.060 C 
ATOM    135  H55 THR d   1      10.919  -7.216   5.734  0.00  0.00     0.086 H 
BRANCH 134 136
ATOM    136  OG1 THR d   1       9.205  -8.282   5.278  0.00  0.00    -0.393 OA
ATOM    137  H56 THR d   1       8.502  -8.282   4.640  0.00  0.00     0.210 HD
ENDBRANCH 134 136
BRANCH 134 138
ATOM    138  CG2 THR d   1       9.357  -5.875   5.140  0.00  0.00    -0.050 C 
ATOM    139  H57 THR d   1       8.941  -5.792   6.155  0.00  0.00     0.031 H 
ATOM    140  H58 THR d   1       8.540  -5.834   4.404  0.00  0.00     0.031 H 
ATOM    141  H59 THR d   1      10.054  -5.043   4.960  0.00  0.00     0.031 H 
ENDBRANCH 134 138
ENDBRANCH  83 134
ENDBRANCH  81  83
ENDBRANCH  77  79
BRANCH  77 142
ATOM    142  CB  SER d   1      14.976  -5.295   4.068  0.00  0.00     0.044 C 
ATOM    143  H50 SER d   1      15.696  -4.509   3.796  0.00  0.00     0.077 H 
ATOM    144  H51 SER d   1      15.500  -6.258   4.154  0.00  0.00     0.077 H 
BRANCH 142 145
ATOM    145  OG  SER d   1      14.390  -4.974   5.318  0.00  0.00    -0.398 OA
ATOM    146  H52 SER d   1      15.070  -4.915   5.979  0.00  0.00     0.209 HD
ENDBRANCH 142 145
ENDBRANCH  77 142
ENDBRANCH  75  77
ENDBRANCH   1  73
BRANCH   1 147
ATOM    147  CB  ARG d   1      12.288  -1.612   0.677  0.00  0.00    -0.036 C 
ATOM    148  H37 ARG d   1      11.918  -1.996  -0.285  0.00  0.00     0.036 H 
ATOM    149  H38 ARG d   1      13.387  -1.665   0.695  0.00  0.00     0.036 H 
BRANCH 147 150
ATOM    150  CG  ARG d   1      11.874  -0.154   0.805  0.00  0.00    -0.048 C 
ATOM    151  H39 ARG d   1      12.552   0.349   1.510  0.00  0.00     0.035 H 
ATOM    152  H40 ARG d   1      10.845  -0.107   1.190  0.00  0.00     0.035 H 
BRANCH 150 153
ATOM    153  CD  ARG d   1      11.933   0.563  -0.535  0.00  0.00     0.009 C 
ATOM    154  H41 ARG d   1      11.953   1.648  -0.356  0.00  0.00     0.064 H 
ATOM    155  H42 ARG d   1      11.035   0.304  -1.116  0.00  0.00     0.064 H 
BRANCH 153 156
ATOM    156  NE  ARG d   1      13.116   0.191  -1.306  0.00  0.00    -0.227 N 
ATOM    157  CZ  ARG d   1      14.351   0.577  -0.999  0.00  0.00     0.665 C 
ATOM    158  NH1 ARG d   1      14.567   1.344   0.063  0.00  0.00    -0.235 N 
ATOM    159  NH2 ARG d   1      15.373   0.197  -1.752  0.00  0.00    -0.235 N 
ATOM    160  H44 ARG d   1      15.525   1.641   0.298  0.00  0.00     0.174 HD
ATOM    161  H45 ARG d   1      13.777   1.642   0.652  0.00  0.00     0.174 HD
ATOM    162  H46 ARG d   1      15.212  -0.398  -2.577  0.00  0.00     0.174 HD
ATOM    163  H47 ARG d   1      16.329   0.497  -1.512  0.00  0.00     0.174 HD
ATOM    164  H43 ARG d   1      12.986  -0.405  -2.136  0.00  0.00     0.177 HD
ENDBRANCH 153 156
ENDBRANCH 150 153
ENDBRANCH 147 150
ENDBRANCH   1 147
TORSDOF 44
