REMARK  6 active torsions:
REMARK  status: ('A' for Active; 'I' for Inactive)
REMARK    1  A    between atoms: C8_10  and  C9_11 
REMARK       I    between atoms: C9_11  and  N2_13 
REMARK    2  A    between atoms: N2_13  and  C10_14 
REMARK    3  A    between atoms: C10_14  and  C11_15 
REMARK    4  A    between atoms: C10_14  and  C17_24 
REMARK       I    between atoms: C11_15  and  N3_17 
REMARK    5  A    between atoms: C14_20  and  O3_21 
REMARK    6  A    between atoms: C17_24  and  C18_25 
ROOT
ATOM      1  C10 CHI d   1      18.699  12.904  57.927  0.00  0.00     0.093 C 
ATOM      2  H7  CHI d   1      18.185  13.873  57.846  0.00  0.00     0.088 H 
ENDROOT
BRANCH   1   3
ATOM      3  N2  CHI d   1      18.479  12.147  56.681  0.00  0.00    -0.342 N 
ATOM      4  C9  CHI d   1      18.850  12.615  55.454  0.00  0.00     0.269 C 
ATOM      5  O1  CHI d   1      19.377  13.720  55.297  0.00  0.00    -0.266 OA
ATOM      6  H6  CHI d   1      18.038  11.251  56.738  0.00  0.00     0.163 HD
BRANCH   4   7
ATOM      7  C8  CHI d   1      18.625  11.806  54.249  0.00  0.00     0.102 A 
ATOM      8  N1  CHI d   1      19.016  12.263  53.061  0.00  0.00    -0.351 N 
ATOM      9  C4  CHI d   1      18.756  11.395  52.086  0.00  0.00     0.043 A 
ATOM     10  H3  CHI d   1      19.465  13.178  52.914  0.00  0.00     0.166 HD
ATOM     11  C3  CHI d   1      19.025  11.499  50.660  0.00  0.00    -0.055 A 
ATOM     12  C5  CHI d   1      18.140  10.241  52.650  0.00  0.00    -0.005 A 
ATOM     13  C2  CHI d   1      18.631  10.374  49.843  0.00  0.00    -0.060 A 
ATOM     14  H2  CHI d   1      19.497  12.376  50.232  0.00  0.00     0.087 H 
ATOM     15  C1  CHI d   1      18.006   9.216  50.433  0.00  0.00     0.035 A 
ATOM     16  H1  CHI d   1      18.807  10.401  48.774  0.00  0.00     0.086 H 
ATOM     17 CL1  CHI d   1      17.541   7.872  49.458  0.00  0.00    -0.084 Cl
ATOM     18  C6  CHI d   1      17.745   9.130  51.840  0.00  0.00    -0.050 A 
ATOM     19  H4  CHI d   1      17.268   8.258  52.273  0.00  0.00     0.087 H 
ATOM     20  C7  CHI d   1      18.074  10.562  54.109  0.00  0.00    -0.040 A 
ATOM     21  H5  CHI d   1      17.669   9.933  54.900  0.00  0.00     0.088 H 
ENDBRANCH   4   7
ENDBRANCH   1   3
BRANCH   1  22
ATOM     22  C11 CHI d   1      20.249  13.124  58.111  0.00  0.00     0.242 C 
ATOM     23  O2  CHI d   1      20.949  12.114  58.191  0.00  0.00    -0.271 OA
ATOM     24  N3  CHI d   1      20.843  14.419  58.188  0.00  0.00    -0.350 N 
ATOM     25  C12 CHI d   1      22.306  14.548  58.381  0.00  0.00    -0.000 C 
ATOM     26  C16 CHI d   1      20.030  15.667  58.094  0.00  0.00    -0.000 C 
ATOM     27  C13 CHI d   1      22.550  15.299  59.717  0.00  0.00    -0.026 C 
ATOM     28  H8  CHI d   1      22.744  15.117  57.548  0.00  0.00     0.064 H 
ATOM     29  H9  CHI d   1      22.766  13.550  58.425  0.00  0.00     0.064 H 
ATOM     30  C14 CHI d   1      21.819  16.680  59.732  0.00  0.00     0.038 C 
ATOM     31  H10 CHI d   1      23.630  15.464  59.844  0.00  0.00     0.039 H 
ATOM     32  H11 CHI d   1      22.173  14.685  60.548  0.00  0.00     0.039 H 
ATOM     33  C15 CHI d   1      20.299  16.593  59.329  0.00  0.00    -0.026 C 
ATOM     34  H12 CHI d   1      21.871  17.078  60.756  0.00  0.00     0.083 H 
ATOM     35  H14 CHI d   1      19.945  17.606  59.088  0.00  0.00     0.039 H 
ATOM     36  H15 CHI d   1      19.733  16.201  60.187  0.00  0.00     0.039 H 
ATOM     37  H16 CHI d   1      18.963  15.402  58.066  0.00  0.00     0.064 H 
ATOM     38  H17 CHI d   1      20.299  16.205  57.173  0.00  0.00     0.064 H 
BRANCH  30  39
ATOM     39  O3  CHI d   1      22.513  17.595  58.843  0.00  0.00    -0.395 OA
ATOM     40  H13 CHI d   1      22.511  17.241  57.961  0.00  0.00     0.210 HD
ENDBRANCH  30  39
ENDBRANCH   1  22
BRANCH   1  41
ATOM     41  C17 CHI d   1      18.192  12.154  59.235  0.00  0.00    -0.014 C 
ATOM     42  H18 CHI d   1      18.716  11.193  59.337  0.00  0.00     0.043 H 
ATOM     43  H19 CHI d   1      17.109  11.975  59.163  0.00  0.00     0.043 H 
BRANCH  41  44
ATOM     44  C18 CHI d   1      18.489  13.035  60.452  0.00  0.00    -0.056 A 
ATOM     45  C19 CHI d   1      17.657  14.190  60.706  0.00  0.00    -0.074 A 
ATOM     46  C20 CHI d   1      17.943  15.041  61.831  0.00  0.00    -0.045 A 
ATOM     47  H20 CHI d   1      16.822  14.414  60.052  0.00  0.00     0.084 H 
ATOM     48  C21 CHI d   1      19.067  14.729  62.701  0.00  0.00     0.116 A 
ATOM     49  H21 CHI d   1      17.325  15.909  62.029  0.00  0.00     0.088 H 
ATOM     50  F1  CHI d   1      19.341  15.515  63.735  0.00  0.00    -0.206 F 
ATOM     51  C22 CHI d   1      19.881  13.583  62.444  0.00  0.00    -0.045 A 
ATOM     52  C23 CHI d   1      19.604  12.734  61.334  0.00  0.00    -0.074 A 
ATOM     53  H22 CHI d   1      20.715  13.358  63.098  0.00  0.00     0.088 H 
ATOM     54  H23 CHI d   1      20.224  11.865  61.148  0.00  0.00     0.084 H 
ENDBRANCH  41  44
ENDBRANCH   1  41
TORSDOF 6
