REMARK  4 active torsions:
REMARK  status: ('A' for Active; 'I' for Inactive)
REMARK    1  A    between atoms: C10_11  and  C19_20 
REMARK    2  A    between atoms: C13_14  and  C18_19 
REMARK    3  A    between atoms: C17_18  and  C20_21 
REMARK    4  A    between atoms: C20_21  and  C21_23 
ROOT
ATOM      1  C1  STR d   1      20.415  11.822  20.975  0.00  0.00    -0.049 C 
ATOM      2  C2  STR d   1      20.222  10.698  22.240  0.00  0.00    -0.017 C 
ATOM      3  C3  STR d   1      20.148   9.287  21.600  0.00  0.00     0.085 C 
ATOM      4  O3  STR d   1      19.400   8.453  22.312  0.00  0.00    -0.197 OA
ATOM      5  C4  STR d   1      20.807   8.933  20.365  0.00  0.00    -0.049 C 
ATOM      6  C5  STR d   1      21.578   9.877  19.804  0.00  0.00    -0.069 C 
ATOM      7  C6  STR d   1      22.461   9.427  18.664  0.00  0.00    -0.043 C 
ATOM      8  C7  STR d   1      22.295  10.404  17.500  0.00  0.00    -0.058 C 
ATOM      9  C8  STR d   1      22.656  11.844  17.792  0.00  0.00    -0.045 C 
ATOM     10  C9  STR d   1      21.526  12.277  18.868  0.00  0.00    -0.040 C 
ATOM     11  C10 STR d   1      21.645  11.449  20.168  0.00  0.00    -0.016 C 
ATOM     12  C11 STR d   1      21.513  13.767  19.163  0.00  0.00    -0.060 C 
ATOM     13  C12 STR d   1      21.483  14.637  17.730  0.00  0.00    -0.057 C 
ATOM     14  C13 STR d   1      22.643  14.304  16.874  0.00  0.00    -0.030 C 
ATOM     15  C14 STR d   1      22.329  12.613  16.637  0.00  0.00    -0.043 C 
ATOM     16  C15 STR d   1      23.140  12.424  15.337  0.00  0.00    -0.060 C 
ATOM     17  C16 STR d   1      22.920  13.688  14.525  0.00  0.00    -0.054 C 
ATOM     18  C17 STR d   1      22.408  14.738  15.455  0.00  0.00     0.011 C 
ATOM     19  H1  STR d   1      20.541  12.831  21.394  0.00  0.00     0.035 H 
ATOM     20  H2  STR d   1      19.528  11.803  20.325  0.00  0.00     0.035 H 
ATOM     21  H3  STR d   1      19.294  10.909  22.792  0.00  0.00     0.043 H 
ATOM     22  H4  STR d   1      21.079  10.755  22.927  0.00  0.00     0.043 H 
ATOM     23  H5  STR d   1      20.684   7.950  19.912  0.00  0.00     0.087 H 
ATOM     24  H6  STR d   1      22.166   8.417  18.344  0.00  0.00     0.039 H 
ATOM     25  H7  STR d   1      23.511   9.416  18.991  0.00  0.00     0.039 H 
ATOM     26  H8  STR d   1      21.241  10.377  17.185  0.00  0.00     0.034 H 
ATOM     27  H9  STR d   1      22.934  10.057  16.674  0.00  0.00     0.034 H 
ATOM     28  H10 STR d   1      23.692  11.982  18.134  0.00  0.00     0.041 H 
ATOM     29  H11 STR d   1      20.552  12.036  18.418  0.00  0.00     0.042 H 
ATOM     30  H12 STR d   1      22.416  14.033  19.732  0.00  0.00     0.033 H 
ATOM     31  H13 STR d   1      20.620  14.013  19.757  0.00  0.00     0.033 H 
ATOM     32  H14 STR d   1      21.506  15.712  17.963  0.00  0.00     0.034 H 
ATOM     33  H15 STR d   1      20.557  14.400  17.186  0.00  0.00     0.034 H 
ATOM     34  H16 STR d   1      21.263  12.435  16.430  0.00  0.00     0.041 H 
ATOM     35  H17 STR d   1      22.777  11.545  14.784  0.00  0.00     0.033 H 
ATOM     36  H18 STR d   1      24.208  12.297  15.567  0.00  0.00     0.033 H 
ATOM     37  H19 STR d   1      22.184  13.500  13.730  0.00  0.00     0.034 H 
ATOM     38  H20 STR d   1      23.869  14.015  14.076  0.00  0.00     0.034 H 
ATOM     39  H21 STR d   1      21.321  14.828  15.314  0.00  0.00     0.052 H 
ENDROOT
BRANCH  18  40
ATOM     40  C20 STR d   1      23.078  16.194  15.059  0.00  0.00     0.128 C 
ATOM     41  O20 STR d   1      24.088  16.266  14.606  0.00  0.00    -0.298 OA
BRANCH  40  42
ATOM     42  C21 STR d   1      22.163  17.486  15.831  0.00  0.00    -0.021 C 
ATOM     43  H28 STR d   1      22.608  18.457  15.569  0.00  0.00     0.037 H 
ATOM     44  H29 STR d   1      22.190  17.353  16.923  0.00  0.00     0.037 H 
ATOM     45  H30 STR d   1      21.120  17.454  15.484  0.00  0.00     0.037 H 
ENDBRANCH  40  42
ENDBRANCH  18  40
BRANCH  14  46
ATOM     46  C18 STR d   1      24.104  14.489  17.293  0.00  0.00    -0.068 C 
ATOM     47  H22 STR d   1      24.231  14.160  18.335  0.00  0.00     0.028 H 
ATOM     48  H23 STR d   1      24.378  15.551  17.208  0.00  0.00     0.028 H 
ATOM     49  H24 STR d   1      24.752  13.889  16.637  0.00  0.00     0.028 H 
ENDBRANCH  14  46
BRANCH  11  50
ATOM     50  C19 STR d   1      22.992  11.670  20.933  0.00  0.00    -0.065 C 
ATOM     51  H25 STR d   1      23.003  11.051  21.842  0.00  0.00     0.028 H 
ATOM     52  H26 STR d   1      23.087  12.730  21.210  0.00  0.00     0.028 H 
ATOM     53  H27 STR d   1      23.833  11.384  20.285  0.00  0.00     0.028 H 
ENDBRANCH  11  50
TORSDOF 4
