REMARK  6 active torsions:
REMARK  status: ('A' for Active; 'I' for Inactive)
REMARK    1  A    between atoms: C10_10  and  C19_19 
REMARK    2  A    between atoms: C13_13  and  C18_18 
REMARK    3  A    between atoms: C17_17  and  C20_20 
REMARK    4  A    between atoms: C17_17  and  O3_24 
REMARK    5  A    between atoms: C20_20  and  C21_21 
REMARK    6  A    between atoms: C20_20  and  O4_25 
ROOT
ATOM      1  C1  PDN d   1      20.636  11.858  21.148  0.00  0.00    -0.087 A 
ATOM      2  C2  PDN d   1      19.883  10.851  21.762  0.00  0.00    -0.037 A 
ATOM      3  C3  PDN d   1      19.956   9.433  21.345  0.00  0.00     0.172 A 
ATOM      4  C4  PDN d   1      20.859   9.125  20.232  0.00  0.00    -0.031 A 
ATOM      5  C5  PDN d   1      21.637  10.039  19.570  0.00  0.00    -0.064 A 
ATOM      6  C6  PDN d   1      22.618   9.609  18.360  0.00  0.00    -0.043 C 
ATOM      7  C7  PDN d   1      22.385  10.589  17.290  0.00  0.00    -0.057 C 
ATOM      8  C8  PDN d   1      22.390  11.970  17.560  0.00  0.00    -0.042 C 
ATOM      9  C9  PDN d   1      21.341  12.358  18.721  0.00  0.00    -0.000 C 
ATOM     10  C10 PDN d   1      21.612  11.562  19.981  0.00  0.00     0.004 A 
ATOM     11  C11 PDN d   1      21.330  13.943  18.938  0.00  0.00     0.137 C 
ATOM     12  C12 PDN d   1      21.101  14.666  17.593  0.00  0.00    -0.020 C 
ATOM     13  C13 PDN d   1      22.101  14.363  16.544  0.00  0.00    -0.003 C 
ATOM     14  C14 PDN d   1      22.080  12.841  16.314  0.00  0.00    -0.040 C 
ATOM     15  C15 PDN d   1      22.957  12.710  15.016  0.00  0.00    -0.058 C 
ATOM     16  C16 PDN d   1      22.777  13.884  14.262  0.00  0.00    -0.033 C 
ATOM     17  C17 PDN d   1      21.792  14.776  15.064  0.00  0.00     0.094 C 
ATOM     18  O1  PDN d   1      19.314   8.600  21.893  0.00  0.00    -0.289 OA
ATOM     19  O2  PDN d   1      21.468  14.574  20.145  0.00  0.00    -0.225 OA
ATOM     20  H1  PDN d   1      20.533  12.883  21.502  0.00  0.00     0.078 H 
ATOM     21  H2  PDN d   1      19.216  11.122  22.580  0.00  0.00     0.089 H 
ATOM     22  H3  PDN d   1      20.916   8.088  19.905  0.00  0.00     0.090 H 
ATOM     23  H4  PDN d   1      22.374   8.595  18.011  0.00  0.00     0.039 H 
ATOM     24  H5  PDN d   1      23.668   9.641  18.688  0.00  0.00     0.039 H 
ATOM     25  H6  PDN d   1      21.398  10.357  16.863  0.00  0.00     0.034 H 
ATOM     26  H7  PDN d   1      23.163  10.415  16.532  0.00  0.00     0.034 H 
ATOM     27  H8  PDN d   1      23.400  12.229  17.910  0.00  0.00     0.041 H 
ATOM     28  H9  PDN d   1      20.337  12.073  18.373  0.00  0.00     0.047 H 
ATOM     29  H10 PDN d   1      21.120  15.750  17.780  0.00  0.00     0.039 H 
ATOM     30  H11 PDN d   1      20.110  14.377  17.214  0.00  0.00     0.039 H 
ATOM     31  H12 PDN d   1      21.055  12.557  16.035  0.00  0.00     0.042 H 
ATOM     32  H13 PDN d   1      22.634  11.836  14.432  0.00  0.00     0.033 H 
ATOM     33  H14 PDN d   1      24.017  12.598  15.289  0.00  0.00     0.033 H 
ATOM     34  H15 PDN d   1      22.353  13.641  13.276  0.00  0.00     0.037 H 
ATOM     35  H16 PDN d   1      23.738  14.402  14.131  0.00  0.00     0.037 H 
ENDROOT
BRANCH  17  36
ATOM     36  C20 PDN d   1      21.841  16.327  14.937  0.00  0.00     0.096 C 
ATOM     37  H23 PDN d   1      22.075  16.710  15.941  0.00  0.00     0.091 H 
BRANCH  36  38
ATOM     38  C21 PDN d   1      20.827  16.768  14.703  0.00  0.00     0.130 C 
ATOM     39  O5  PDN d   1      20.922  18.125  15.144  0.00  0.00    -0.230 OA
ATOM     40  H24 PDN d   1      19.972  16.272  14.246  0.00  0.00     0.096 H 
ENDBRANCH  36  38
BRANCH  36  41
ATOM     41  O4  PDN d   1      22.872  16.659  14.207  0.00  0.00    -0.390 OA
ATOM     42  H26 PDN d   1      23.644  16.208  14.528  0.00  0.00     0.210 HD
ENDBRANCH  36  41
ENDBRANCH  17  36
BRANCH  17  43
ATOM     43  O3  PDN d   1      20.340  14.400  14.830  0.00  0.00    -0.386 OA
ATOM     44  H25 PDN d   1      20.134  14.494  13.907  0.00  0.00     0.210 HD
ENDBRANCH  17  43
BRANCH  13  45
ATOM     45  C18 PDN d   1      23.498  14.949  17.028  0.00  0.00    -0.066 C 
ATOM     46  H17 PDN d   1      23.684  14.642  18.068  0.00  0.00     0.028 H 
ATOM     47  H18 PDN d   1      23.475  16.047  16.969  0.00  0.00     0.028 H 
ATOM     48  H19 PDN d   1      24.301  14.563  16.382  0.00  0.00     0.028 H 
ENDBRANCH  13  45
BRANCH  10  49
ATOM     49  C19 PDN d   1      22.949  11.949  20.581  0.00  0.00    -0.062 C 
ATOM     50  H20 PDN d   1      23.126  11.360  21.493  0.00  0.00     0.029 H 
ATOM     51  H21 PDN d   1      22.942  13.020  20.831  0.00  0.00     0.029 H 
ATOM     52  H22 PDN d   1      23.749  11.747  19.854  0.00  0.00     0.029 H 
ENDBRANCH  10  49
TORSDOF 6
