REMARK  2 active torsions:
REMARK  status: ('A' for Active; 'I' for Inactive)
REMARK    1  A    between atoms: C10_2  and  C19_11 
REMARK    2  A    between atoms: C13_5  and  C18_10 
ROOT
ATOM      1  C1  ANB d   1      20.416  11.684  21.375  0.00  0.00    -0.087 A 
ATOM      2  C10 ANB d   1      21.462  11.368  20.307  0.00  0.00     0.001 A 
ATOM      3  C11 ANB d   1      21.122  13.631  19.158  0.00  0.00    -0.059 C 
ATOM      4  C12 ANB d   1      20.853  14.381  17.801  0.00  0.00    -0.051 C 
ATOM      5  C13 ANB d   1      22.017  14.108  16.837  0.00  0.00     0.021 C 
ATOM      6  C14 ANB d   1      22.048  12.605  16.562  0.00  0.00    -0.036 C 
ATOM      7  C15 ANB d   1      23.008  12.442  15.332  0.00  0.00    -0.054 C 
ATOM      8  C16 ANB d   1      22.489  13.639  14.497  0.00  0.00    -0.009 C 
ATOM      9  C17 ANB d   1      21.848  14.721  15.441  0.00  0.00     0.135 C 
ATOM     10  C2  ANB d   1      19.643  10.744  21.952  0.00  0.00    -0.037 A 
ATOM     11  C3  ANB d   1      19.766   9.309  21.569  0.00  0.00     0.172 A 
ATOM     12  C4  ANB d   1      20.741   8.963  20.551  0.00  0.00    -0.031 A 
ATOM     13  C5  ANB d   1      21.556   9.873  19.933  0.00  0.00    -0.064 A 
ATOM     14  C6  ANB d   1      22.549   9.462  18.888  0.00  0.00    -0.043 C 
ATOM     15  C7  ANB d   1      22.338  10.325  17.619  0.00  0.00    -0.058 C 
ATOM     16  C8  ANB d   1      22.301  11.768  17.862  0.00  0.00    -0.044 C 
ATOM     17  C9  ANB d   1      21.184  12.163  18.969  0.00  0.00    -0.036 C 
ATOM     18  O1  ANB d   1      19.074   8.426  22.078  0.00  0.00    -0.289 OA
ATOM     19  O2  ANB d   1      21.369  15.732  15.163  0.00  0.00    -0.297 OA
ATOM     20  H1  ANB d   1      20.289  12.720  21.685  0.00  0.00     0.078 H 
ATOM     21  H2  ANB d   1      20.310  13.866  19.862  0.00  0.00     0.033 H 
ATOM     22  H3  ANB d   1      22.080  13.978  19.573  0.00  0.00     0.033 H 
ATOM     23  H4  ANB d   1      20.775  15.462  17.987  0.00  0.00     0.034 H 
ATOM     24  H5  ANB d   1      19.915  14.016  17.358  0.00  0.00     0.034 H 
ATOM     25  H6  ANB d   1      21.048  12.302  16.218  0.00  0.00     0.042 H 
ATOM     26  H7  ANB d   1      22.866  11.481  14.816  0.00  0.00     0.034 H 
ATOM     27  H8  ANB d   1      24.066  12.556  15.611  0.00  0.00     0.034 H 
ATOM     28  H9  ANB d   1      21.730  13.283  13.784  0.00  0.00     0.044 H 
ATOM     29  H10 ANB d   1      23.328  14.089  13.946  0.00  0.00     0.044 H 
ATOM     30  H17 ANB d   1      18.918  11.037  22.709  0.00  0.00     0.089 H 
ATOM     31  H18 ANB d   1      20.829   7.917  20.262  0.00  0.00     0.090 H 
ATOM     32  H19 ANB d   1      22.404   8.400  18.640  0.00  0.00     0.039 H 
ATOM     33  H20 ANB d   1      23.569   9.613  19.270  0.00  0.00     0.039 H 
ATOM     34  H21 ANB d   1      21.384  10.030  17.159  0.00  0.00     0.034 H 
ATOM     35  H22 ANB d   1      23.162  10.116  16.921  0.00  0.00     0.034 H 
ATOM     36  H23 ANB d   1      23.286  12.055  18.258  0.00  0.00     0.041 H 
ATOM     37  H24 ANB d   1      20.202  11.841  18.591  0.00  0.00     0.042 H 
ENDROOT
BRANCH   2  38
ATOM     38  C19 ANB d   1      22.852  11.815  20.941  0.00  0.00    -0.062 C 
ATOM     39  H14 ANB d   1      23.029  11.253  21.870  0.00  0.00     0.029 H 
ATOM     40  H15 ANB d   1      22.824  12.892  21.164  0.00  0.00     0.029 H 
ATOM     41  H16 ANB d   1      23.663  11.609  20.227  0.00  0.00     0.029 H 
ENDBRANCH   2  38
BRANCH   5  42
ATOM     42  C18 ANB d   1      23.388  14.697  17.379  0.00  0.00    -0.062 C 
ATOM     43  H11 ANB d   1      23.280  15.778  17.550  0.00  0.00     0.029 H 
ATOM     44  H12 ANB d   1      24.181  14.520  16.638  0.00  0.00     0.029 H 
ATOM     45  H13 ANB d   1      23.652  14.201  18.325  0.00  0.00     0.029 H 
ENDBRANCH   5  42
TORSDOF 2
