REMARK WARNING: 32 MAX_TORS EXCEEDED!!!
REMARK  42 active torsions:
REMARK  status: ('A' for Active; 'I' for Inactive)
REMARK    1  A    between atoms: N_1  and  CA_2 
REMARK    2  A    between atoms: CA_2  and  C_3 
REMARK    3  A    between atoms: CA_2  and  CB_5 
REMARK       I    between atoms: C_3  and  N_8 
REMARK    4  A    between atoms: CB_5  and  OG1_6 
REMARK    5  A    between atoms: CB_5  and  CG2_7 
REMARK    6  A    between atoms: N_8  and  CA_9 
REMARK    7  A    between atoms: CA_9  and  C_10 
REMARK    8  A    between atoms: CA_9  and  CB_12 
REMARK       I    between atoms: C_10  and  N_15 
REMARK    9  A    between atoms: CB_12  and  OG1_13 
REMARK   10  A    between atoms: CB_12  and  CG2_14 
REMARK   11  A    between atoms: N_15  and  CA_16 
REMARK   12  A    between atoms: CA_16  and  C_17 
REMARK       I    between atoms: C_17  and  N_19 
REMARK   13  A    between atoms: N_19  and  CA_20 
REMARK   14  A    between atoms: CA_20  and  C_21 
REMARK   15  A    between atoms: CA_20  and  CB_23 
REMARK       I    between atoms: C_21  and  N_26 
REMARK   16  A    between atoms: CB_23  and  CG1_24 
REMARK   17  A    between atoms: CB_23  and  CG2_25 
REMARK   18  A    between atoms: N_26  and  CA_27 
REMARK   19  A    between atoms: CA_27  and  C_28 
REMARK   20  A    between atoms: CA_27  and  CB_30 
REMARK       I    between atoms: C_28  and  N_38 
REMARK   21  A    between atoms: CB_30  and  CG_31 
REMARK   22  A    between atoms: CZ_36  and  OH_37 
REMARK   23  A    between atoms: N_38  and  CA_39 
REMARK   24  A    between atoms: CA_39  and  C_40 
REMARK   25  A    between atoms: CA_39  and  CB_42 
REMARK       I    between atoms: C_40  and  N_45 
REMARK   26  A    between atoms: CB_42  and  CG1_43 
REMARK   27  A    between atoms: CB_42  and  CG2_44 
REMARK   28  A    between atoms: N_45  and  CA_46 
REMARK   29  A    between atoms: CA_46  and  C_47 
REMARK   30  A    between atoms: CA_46  and  CB_49 
REMARK       I    between atoms: C_47  and  N_54 
REMARK   31  A    between atoms: CB_49  and  CG_50 
REMARK   32  A    between atoms: CG_50  and  CD_51 
REMARK   33  A    between atoms: CD_51  and  CE_52 
REMARK   34  A    between atoms: CE_52  and  NZ_53 
REMARK   35  A    between atoms: N_54  and  CA_55 
REMARK   36  A    between atoms: CA_55  and  C_56 
REMARK   37  A    between atoms: CA_55  and  CB_58 
REMARK       I    between atoms: C_56  and  N_62 
REMARK   38  A    between atoms: CB_58  and  CG_59 
REMARK   39  A    between atoms: CG_59  and  SD_60 
REMARK   40  A    between atoms: SD_60  and  CE_61 
REMARK   41  A    between atoms: CA_63  and  C_64 
REMARK       I    between atoms: C_64  and  N_69 
REMARK   42  A    between atoms: CA_70  and  C_71 
ROOT
ATOM      1  CA  VAL d   1      57.555  -0.161   5.318  0.00  0.00     0.092 C 
ATOM      2  H39 VAL d   1      58.253  -0.831   5.842  0.00  0.00     0.088 H 
ENDROOT
BRANCH   1   3
ATOM      3  N   VAL d   1      58.305   0.577   4.314  0.00  0.00    -0.346 N 
ATOM      4  C   TYR d   1      59.591   0.865   4.480  0.00  0.00     0.241 C 
ATOM      5  O   TYR d   1      60.213   0.587   5.500  0.00  0.00    -0.271 OA
ATOM      6  H38 VAL d   1      57.842   0.875   3.479  0.00  0.00     0.163 HD
BRANCH   4   7
ATOM      7  CA  TYR d   1      60.271   1.595   3.338  0.00  0.00     0.093 C 
ATOM      8  H30 TYR d   1      59.695   2.493   3.069  0.00  0.00     0.088 H 
BRANCH   7   9
ATOM      9  N   TYR d   1      61.597   1.975   3.777  0.00  0.00    -0.346 N 
ATOM     10  C   VAL d   1      61.816   3.104   4.435  0.00  0.00     0.241 C 
ATOM     11  O   VAL d   1      60.938   3.921   4.694  0.00  0.00    -0.271 OA
ATOM     12  H29 TYR d   1      62.368   1.370   3.579  0.00  0.00     0.163 HD
BRANCH  10  13
ATOM     13  CA  VAL d   1      63.244   3.363   4.855  0.00  0.00     0.092 C 
ATOM     14  H21 VAL d   1      63.925   2.689   4.314  0.00  0.00     0.088 H 
BRANCH  13  15
ATOM     15  N   VAL d   1      63.572   4.739   4.540  0.00  0.00    -0.346 N 
ATOM     16  C   GLY d   1      63.412   5.245   3.324  0.00  0.00     0.236 C 
ATOM     17  O   GLY d   1      62.975   4.603   2.365  0.00  0.00    -0.272 OA
ATOM     18  H20 VAL d   1      63.931   5.327   5.264  0.00  0.00     0.163 HD
BRANCH  16  19
ATOM     19  CA  GLY d   1      63.804   6.694   3.183  0.00  0.00     0.069 C 
ATOM     20  H18 GLY d   1      64.792   6.764   2.705  0.00  0.00     0.078 H 
ATOM     21  H19 GLY d   1      63.060   7.220   2.566  0.00  0.00     0.078 H 
BRANCH  19  22
ATOM     22  N   GLY d   1      63.856   7.296   4.501  0.00  0.00    -0.350 N 
ATOM     23  C   THR d   1      63.005   8.262   4.816  0.00  0.00     0.243 C 
ATOM     24  O   THR d   1      62.156   8.688   4.031  0.00  0.00    -0.271 OA
ATOM     25  H17 GLY d   1      64.531   6.984   5.169  0.00  0.00     0.163 HD
BRANCH  23  26
ATOM     26  CA  THR d   1      63.114   8.832   6.212  0.00  0.00     0.113 C 
ATOM     27  H11 THR d   1      62.099   9.070   6.561  0.00  0.00     0.091 H 
BRANCH  26  28
ATOM     28  N   THR d   1      63.681   7.868   7.140  0.00  0.00    -0.344 N 
ATOM     29  C   THR d   1      63.290   7.859   8.408  0.00  0.00     0.251 C 
ATOM     30  O   THR d   1      62.478   8.668   8.851  0.00  0.00    -0.271 OA
ATOM     31  H10 THR d   1      64.366   7.212   6.823  0.00  0.00     0.163 HD
BRANCH  29  32
ATOM     32  CA  THR d   1      63.900   6.804   9.320  0.00  0.00     0.199 C 
ATOM     33  H4  THR d   1      64.750   6.330   8.807  0.00  0.00     0.103 H 
BRANCH  32  34
ATOM     34  N   THR d   1      64.400   7.419  10.587  0.00  0.00    -0.064 N 
ATOM     35  H1  THR d   1      65.103   8.108  10.371  0.00  0.00     0.275 HD
ATOM     36  H2  THR d   1      64.800   6.703  11.173  0.00  0.00     0.275 HD
ATOM     37  H3  THR d   1      63.634   7.861  11.071  0.00  0.00     0.275 HD
ENDBRANCH  32  34
BRANCH  32  38
ATOM     38  CB  THR d   1      62.806   5.726   9.591  0.00  0.00     0.068 C 
ATOM     39  H5  THR d   1      62.662   5.131   8.677  0.00  0.00     0.086 H 
BRANCH  38  40
ATOM     40  OG1 THR d   1      61.563   6.353   9.941  0.00  0.00    -0.393 OA
ATOM     41  H6  THR d   1      61.279   6.911   9.226  0.00  0.00     0.210 HD
ENDBRANCH  38  40
BRANCH  38  42
ATOM     42  CG2 THR d   1      63.237   4.800  10.721  0.00  0.00    -0.050 C 
ATOM     43  H7  THR d   1      62.454   4.048  10.897  0.00  0.00     0.031 H 
ATOM     44  H8  THR d   1      63.394   5.388  11.637  0.00  0.00     0.031 H 
ATOM     45  H9  THR d   1      64.174   4.295  10.444  0.00  0.00     0.031 H 
ENDBRANCH  38  42
ENDBRANCH  32  38
ENDBRANCH  29  32
ENDBRANCH  26  28
BRANCH  26  46
ATOM     46  CB  THR d   1      63.922  10.147   6.176  0.00  0.00     0.060 C 
ATOM     47  H12 THR d   1      64.984   9.922   6.351  0.00  0.00     0.086 H 
BRANCH  46  48
ATOM     48  OG1 THR d   1      63.439  11.020   7.202  0.00  0.00    -0.393 OA
ATOM     49  H13 THR d   1      63.545  10.601   8.048  0.00  0.00     0.210 HD
ENDBRANCH  46  48
BRANCH  46  50
ATOM     50  CG2 THR d   1      63.772  10.848   4.830  0.00  0.00    -0.050 C 
ATOM     51  H14 THR d   1      64.357  11.779   4.834  0.00  0.00     0.031 H 
ATOM     52  H15 THR d   1      62.712  11.082   4.655  0.00  0.00     0.031 H 
ATOM     53  H16 THR d   1      64.139  10.188   4.030  0.00  0.00     0.031 H 
ENDBRANCH  46  50
ENDBRANCH  26  46
ENDBRANCH  23  26
ENDBRANCH  19  22
ENDBRANCH  16  19
ENDBRANCH  13  15
BRANCH  13  54
ATOM     54  CB  VAL d   1      63.354   3.103   6.365  0.00  0.00    -0.033 C 
ATOM     55  H22 VAL d   1      64.365   3.379   6.700  0.00  0.00     0.042 H 
BRANCH  54  56
ATOM     56  CG1 VAL d   1      62.340   3.960   7.102  0.00  0.00    -0.071 C 
ATOM     57  H23 VAL d   1      62.419   3.773   8.183  0.00  0.00     0.028 H 
ATOM     58  H24 VAL d   1      61.326   3.705   6.759  0.00  0.00     0.028 H 
ATOM     59  H25 VAL d   1      62.540   5.022   6.898  0.00  0.00     0.028 H 
ENDBRANCH  54  56
BRANCH  54  60
ATOM     60  CG2 VAL d   1      63.122   1.627   6.673  0.00  0.00    -0.071 C 
ATOM     61  H26 VAL d   1      63.863   1.019   6.133  0.00  0.00     0.028 H 
ATOM     62  H27 VAL d   1      62.109   1.340   6.353  0.00  0.00     0.028 H 
ATOM     63  H28 VAL d   1      63.227   1.457   7.755  0.00  0.00     0.028 H 
ENDBRANCH  54  60
ENDBRANCH  13  54
ENDBRANCH  10  13
ENDBRANCH   7   9
BRANCH   7  64
ATOM     64  CB  TYR d   1      60.365   0.668   2.132  0.00  0.00    -0.014 C 
ATOM     65  H31 TYR d   1      59.465   0.036   2.113  0.00  0.00     0.043 H 
ATOM     66  H32 TYR d   1      61.255   0.034   2.255  0.00  0.00     0.043 H 
BRANCH  64  67
ATOM     67  CG  TYR d   1      60.471   1.376   0.805  0.00  0.00    -0.056 A 
ATOM     68  CD1 TYR d   1      59.374   2.039   0.252  0.00  0.00    -0.074 A 
ATOM     69  CE1 TYR d   1      59.469   2.685  -0.975  0.00  0.00    -0.051 A 
ATOM     70  H33 TYR d   1      58.432   2.050   0.789  0.00  0.00     0.084 H 
ATOM     71  CZ  TYR d   1      60.673   2.674  -1.657  0.00  0.00     0.065 A 
ATOM     72  H35 TYR d   1      58.608   3.193  -1.394  0.00  0.00     0.087 H 
ATOM     73  CE2 TYR d   1      61.770   2.026  -1.129  0.00  0.00    -0.051 A 
ATOM     74  CD2 TYR d   1      61.664   1.380   0.096  0.00  0.00    -0.074 A 
ATOM     75  H36 TYR d   1      62.711   2.021  -1.668  0.00  0.00     0.087 H 
ATOM     76  H34 TYR d   1      62.528   0.870   0.505  0.00  0.00     0.084 H 
BRANCH  71  77
ATOM     77  OH  TYR d   1      60.798   3.322  -2.861  0.00  0.00    -0.361 OA
ATOM     78  H37 TYR d   1      59.966   3.718  -3.094  0.00  0.00     0.217 HD
ENDBRANCH  71  77
ENDBRANCH  64  67
ENDBRANCH   7  64
ENDBRANCH   4   7
ENDBRANCH   1   3
BRANCH   1  79
ATOM     79  C   VAL d   1      56.477  -1.001   4.647  0.00  0.00     0.241 C 
ATOM     80  O   VAL d   1      55.820  -0.559   3.700  0.00  0.00    -0.271 OA
ATOM     81  N   LYS d   1      56.315  -2.219   5.153  0.00  0.00    -0.346 N 
ATOM     82  H47 LYS d   1      56.886  -2.492   5.928  0.00  0.00     0.163 HD
BRANCH  81  83
ATOM     83  CA  LYS d   1      55.348  -3.176   4.636  0.00  0.00     0.089 C 
ATOM     84  H48 LYS d   1      55.549  -3.344   3.568  0.00  0.00     0.087 H 
BRANCH  83  85
ATOM     85  C   LYS d   1      53.939  -2.636   4.800  0.00  0.00     0.241 C 
ATOM     86  O   LYS d   1      53.601  -2.066   5.841  0.00  0.00    -0.271 OA
ATOM     87  N   MET d   1      53.122  -2.810   3.765  0.00  0.00    -0.346 N 
ATOM     88  H60 MET d   1      53.463  -3.261   2.940  0.00  0.00     0.163 HD
BRANCH  87  89
ATOM     89  CA  MET d   1      51.742  -2.356   3.811  0.00  0.00     0.090 C 
ATOM     90  H61 MET d   1      51.692  -1.373   4.302  0.00  0.00     0.087 H 
BRANCH  89  91
ATOM     91  C   MET d   1      50.958  -3.373   4.610  0.00  0.00     0.243 C 
ATOM     92  O   MET d   1      51.364  -4.534   4.719  0.00  0.00    -0.271 OA
ATOM     93  N   PRO d   1      49.830  -2.946   5.196  0.00  0.00    -0.337 N 
ATOM     94  CA  PRO d   1      48.962  -3.810   6.006  0.00  0.00     0.092 C 
ATOM     95  CD  PRO d   1      49.616  -1.524   5.530  0.00  0.00    -0.001 C 
ATOM     96  CB  PRO d   1      48.661  -2.928   7.203  0.00  0.00    -0.036 C 
ATOM     97  H69 PRO d   1      49.536  -4.693   6.324  0.00  0.00     0.087 H 
ATOM     98  CG  PRO d   1      48.485  -1.586   6.541  0.00  0.00    -0.048 C 
ATOM     99  H70 PRO d   1      49.498  -2.918   7.917  0.00  0.00     0.036 H 
ATOM    100  H71 PRO d   1      47.743  -3.247   7.718  0.00  0.00     0.036 H 
ATOM    101  H72 PRO d   1      48.573  -0.773   7.276  0.00  0.00     0.035 H 
ATOM    102  H73 PRO d   1      47.508  -1.523   6.039  0.00  0.00     0.035 H 
ATOM    103  H74 PRO d   1      49.322  -0.947   4.641  0.00  0.00     0.064 H 
ATOM    104  H75 PRO d   1      50.520  -1.080   5.973  0.00  0.00     0.064 H 
BRANCH  94 105
ATOM    105  C   PRO d   1      47.672  -4.325   5.339  0.00  0.00     0.243 C 
ATOM    106  O   PRO d   1      46.571  -4.046   5.820  0.00  0.00    -0.271 OA
ATOM    107  N   PRO d   1      47.793  -5.087   4.230  0.00  0.00    -0.336 N 
ATOM    108  CA  PRO d   1      46.635  -5.638   3.511  0.00  0.00     0.098 C 
ATOM    109  CD  PRO d   1      49.030  -5.360   3.477  0.00  0.00    -0.001 C 
ATOM    110  CB  PRO d   1      47.280  -6.399   2.353  0.00  0.00    -0.035 C 
ATOM    111  H76 PRO d   1      46.005  -4.822   3.127  0.00  0.00     0.089 H 
ATOM    112  CG  PRO d   1      48.508  -5.599   2.079  0.00  0.00    -0.048 C 
ATOM    113  H77 PRO d   1      46.617  -6.422   1.475  0.00  0.00     0.036 H 
ATOM    114  H78 PRO d   1      47.534  -7.428   2.647  0.00  0.00     0.036 H 
ATOM    115  H79 PRO d   1      48.267  -4.653   1.573  0.00  0.00     0.035 H 
ATOM    116  H80 PRO d   1      49.230  -6.165   1.472  0.00  0.00     0.035 H 
ATOM    117  H81 PRO d   1      49.546  -6.250   3.867  0.00  0.00     0.064 H 
ATOM    118  H82 PRO d   1      49.713  -4.498   3.506  0.00  0.00     0.064 H 
BRANCH 108 119
ATOM    119  C   PRO d   1      45.766  -6.547   4.386  0.00  0.00     0.196 C 
ATOM    120  O   PRO d   1      44.537  -6.641   4.123  0.00  0.00    -0.646 OA
ATOM    121  OXT PRO d   1      46.343  -7.171   5.309  0.00  0.00    -0.646 OA
ENDBRANCH 108 119
ENDBRANCH  94 105
ENDBRANCH  89  91
BRANCH  89 122
ATOM    122  CB  MET d   1      51.155  -2.248   2.410  0.00  0.00    -0.030 C 
ATOM    123  H62 MET d   1      50.080  -2.033   2.499  0.00  0.00     0.037 H 
ATOM    124  H63 MET d   1      51.295  -3.212   1.899  0.00  0.00     0.037 H 
BRANCH 122 125
ATOM    125  CG  MET d   1      51.789  -1.168   1.573  0.00  0.00    -0.021 C 
ATOM    126  H64 MET d   1      52.826  -1.457   1.346  0.00  0.00     0.049 H 
ATOM    127  H65 MET d   1      51.787  -0.228   2.145  0.00  0.00     0.049 H 
BRANCH 125 128
ATOM    128  SD  MET d   1      50.912  -0.910   0.036  0.00  0.00    -0.173 SA
BRANCH 128 129
ATOM    129  CE  MET d   1      49.432  -0.197   0.655  0.00  0.00    -0.035 C 
ATOM    130  H66 MET d   1      48.757   0.032  -0.183  0.00  0.00     0.041 H 
ATOM    131  H67 MET d   1      49.670   0.730   1.197  0.00  0.00     0.041 H 
ATOM    132  H68 MET d   1      48.941  -0.906   1.338  0.00  0.00     0.041 H 
ENDBRANCH 128 129
ENDBRANCH 125 128
ENDBRANCH 122 125
ENDBRANCH  89 122
ENDBRANCH  87  89
ENDBRANCH  83  85
BRANCH  83 133
ATOM    133  CB  LYS d   1      55.459  -4.510   5.384  0.00  0.00    -0.038 C 
ATOM    134  H49 LYS d   1      55.252  -5.320   4.669  0.00  0.00     0.036 H 
ATOM    135  H50 LYS d   1      54.699  -4.519   6.179  0.00  0.00     0.036 H 
BRANCH 133 136
ATOM    136  CG  LYS d   1      56.815  -4.781   6.025  0.00  0.00    -0.061 C 
ATOM    137  H51 LYS d   1      57.599  -4.653   5.264  0.00  0.00     0.033 H 
ATOM    138  H52 LYS d   1      56.831  -5.816   6.398  0.00  0.00     0.033 H 
BRANCH 136 139
ATOM    139  CD  LYS d   1      57.101  -3.826   7.198  0.00  0.00    -0.043 C 
ATOM    140  H53 LYS d   1      56.364  -4.010   7.994  0.00  0.00     0.035 H 
ATOM    141  H54 LYS d   1      57.007  -2.789   6.843  0.00  0.00     0.035 H 
BRANCH 139 142
ATOM    142  CE  LYS d   1      58.508  -4.028   7.769  0.00  0.00     0.080 C 
ATOM    143  H55 LYS d   1      59.216  -4.119   6.932  0.00  0.00     0.075 H 
ATOM    144  H56 LYS d   1      58.517  -4.956   8.360  0.00  0.00     0.075 H 
BRANCH 142 145
ATOM    145  NZ  LYS d   1      58.949  -2.901   8.646  0.00  0.00    -0.079 N 
ATOM    146  H57 LYS d   1      59.877  -3.088   8.992  0.00  0.00     0.274 HD
ATOM    147  H58 LYS d   1      58.313  -2.811   9.423  0.00  0.00     0.274 HD
ATOM    148  H59 LYS d   1      58.954  -2.044   8.115  0.00  0.00     0.274 HD
ENDBRANCH 142 145
ENDBRANCH 139 142
ENDBRANCH 136 139
ENDBRANCH 133 136
ENDBRANCH  83 133
ENDBRANCH  81  83
ENDBRANCH   1  79
BRANCH   1 149
ATOM    149  CB  VAL d   1      56.896   0.755   6.356  0.00  0.00    -0.033 C 
ATOM    150  H40 VAL d   1      56.189   1.429   5.851  0.00  0.00     0.042 H 
BRANCH 149 151
ATOM    151  CG1 VAL d   1      56.154  -0.088   7.376  0.00  0.00    -0.071 C 
ATOM    152  H41 VAL d   1      55.681   0.569   8.121  0.00  0.00     0.028 H 
ATOM    153  H42 VAL d   1      56.862  -0.762   7.879  0.00  0.00     0.028 H 
ATOM    154  H43 VAL d   1      55.380  -0.682   6.868  0.00  0.00     0.028 H 
ENDBRANCH 149 151
BRANCH 149 155
ATOM    155  CG2 VAL d   1      57.940   1.565   7.061  0.00  0.00    -0.071 C 
ATOM    156  H44 VAL d   1      58.483   2.180   6.329  0.00  0.00     0.028 H 
ATOM    157  H45 VAL d   1      58.645   0.891   7.569  0.00  0.00     0.028 H 
ATOM    158  H46 VAL d   1      57.458   2.219   7.803  0.00  0.00     0.028 H 
ENDBRANCH 149 155
ENDBRANCH   1 149
TORSDOF 42
