REMARK  10 active torsions:
REMARK  status: ('A' for Active; 'I' for Inactive)
REMARK    1  A    between atoms: PA_1  and  O3A_4 
REMARK    2  A    between atoms: PA_1  and  O5_13 
REMARK    3  A    between atoms: O3A_4  and  PB_5 
REMARK    4  A    between atoms: PB_5  and  O3B_8 
REMARK    5  A    between atoms: O3B_8  and  PG_9 
REMARK    6  A    between atoms: O5_13  and  C5_14 
REMARK    7  A    between atoms: C5_14  and  C4_15 
REMARK    8  A    between atoms: C3_17  and  O3_18 
REMARK    9  A    between atoms: C1_20  and  N1_21 
REMARK   10  A    between atoms: C5_27  and  C5M_28 
ROOT
ATOM      1  C4  TTP d   1      39.271  41.782  64.526  0.00  0.00     0.087 C 
ATOM      2  O4  TTP d   1      39.583  43.167  64.455  0.00  0.00    -0.356 OA
ATOM      3  C3  TTP d   1      38.437  41.566  63.289  0.00  0.00     0.066 C 
ATOM      4  C2  TTP d   1      38.482  42.914  62.554  0.00  0.00     0.002 C 
ATOM      5  C1  TTP d   1      38.954  43.879  63.371  0.00  0.00     0.116 C 
ATOM      6  H3  TTP d   1      38.674  41.561  65.423  0.00  0.00     0.090 H 
ATOM      7  H4  TTP d   1      38.870  40.767  62.670  0.00  0.00     0.087 H 
ATOM      8  H6  TTP d   1      37.467  43.182  62.225  0.00  0.00     0.043 H 
ATOM      9  H7  TTP d   1      39.141  42.827  61.677  0.00  0.00     0.043 H 
ATOM     10  H8  TTP d   1      38.081  44.394  63.799  0.00  0.00     0.118 H 
ENDROOT
BRANCH   1  11
ATOM     11  C5  TTP d   1      40.553  40.952  64.581  0.00  0.00     0.058 C 
ATOM     12  H1  TTP d   1      40.861  40.838  65.631  0.00  0.00     0.079 H 
ATOM     13  H2  TTP d   1      40.357  39.961  64.146  0.00  0.00     0.079 H 
BRANCH  11  14
ATOM     14  O5  TTP d   1      41.605  41.578  63.854  0.00  0.00    -0.287 OA
BRANCH  14  15
ATOM     15  PA  TTP d   1      42.836  40.705  63.353  0.00  0.00     0.417 P 
ATOM     16  O1A TTP d   1      42.455  39.280  63.479  0.00  0.00    -0.624 OA
ATOM     17  O2A TTP d   1      43.998  41.162  64.157  0.00  0.00    -0.624 OA
BRANCH  15  18
ATOM     18  O3A TTP d   1      43.013  41.145  61.804  0.00  0.00    -0.180 OA
BRANCH  18  19
ATOM     19  PB  TTP d   1      44.247  40.621  60.878  0.00  0.00     0.428 P 
ATOM     20  O1B TTP d   1      45.015  41.805  60.403  0.00  0.00    -0.624 OA
ATOM     21  O2B TTP d   1      43.603  39.777  59.827  0.00  0.00    -0.624 OA
BRANCH  19  22
ATOM     22  O3B TTP d   1      45.169  39.725  61.871  0.00  0.00    -0.173 OA
BRANCH  22  23
ATOM     23  PG  TTP d   1      45.289  38.125  61.746  0.00  0.00     0.431 P 
ATOM     24  O1G TTP d   1      43.947  37.537  61.872  0.00  0.00    -0.616 OA
ATOM     25  O2G TTP d   1      46.279  37.736  62.784  0.00  0.00    -0.616 OA
ATOM     26  O3G TTP d   1      45.897  37.875  60.281  0.00  0.00    -0.616 OA
ENDBRANCH  22  23
ENDBRANCH  19  22
ENDBRANCH  18  19
ENDBRANCH  15  18
ENDBRANCH  14  15
ENDBRANCH  11  14
ENDBRANCH   1  11
BRANCH   3  27
ATOM     27  O3  TTP d   1      37.073  41.239  63.606  0.00  0.00    -0.393 OA
ATOM     28  H5  TTP d   1      36.584  41.111  62.802  0.00  0.00     0.210 HD
ENDBRANCH   3  27
BRANCH   5  29
ATOM     29  N1  TTP d   1      39.695  44.902  62.740  0.00  0.00    -0.282 N 
ATOM     30  C2  TTP d   1      39.331  46.245  63.002  0.00  0.00     0.331 A 
ATOM     31  O2  TTP d   1      38.341  46.516  63.692  0.00  0.00    -0.246 OA
ATOM     32  N3  TTP d   1      40.114  47.290  62.471  0.00  0.00    -0.275 N 
ATOM     33  C4  TTP d   1      41.247  47.004  61.688  0.00  0.00     0.256 A 
ATOM     34  H9  TTP d   1      39.862  48.241  62.652  0.00  0.00     0.173 HD
ATOM     35  O4  TTP d   1      41.906  47.935  61.245  0.00  0.00    -0.267 OA
ATOM     36  C5  TTP d   1      41.619  45.680  61.416  0.00  0.00     0.022 A 
ATOM     37  C6  TTP d   1      40.851  44.635  61.931  0.00  0.00    -0.002 A 
ATOM     38  H13 TTP d   1      41.132  43.605  61.717  0.00  0.00     0.113 H 
BRANCH  36  39
ATOM     39  C5M TTP d   1      42.871  45.369  60.582  0.00  0.00    -0.045 C 
ATOM     40  H10 TTP d   1      42.986  44.279  60.485  0.00  0.00     0.033 H 
ATOM     41  H11 TTP d   1      43.757  45.788  61.081  0.00  0.00     0.033 H 
ATOM     42  H12 TTP d   1      42.767  45.817  59.583  0.00  0.00     0.033 H 
ENDBRANCH  36  39
ENDBRANCH   5  29
TORSDOF 10
