REMARK  10 active torsions:
REMARK  status: ('A' for Active; 'I' for Inactive)
REMARK    1  A    between atoms: O3B_8  and  PG_1 
REMARK    2  A    between atoms: PB_5  and  O3B_8 
REMARK    3  A    between atoms: O3A_12  and  PB_5 
REMARK    4  A    between atoms: PA_9  and  O3A_12 
REMARK    5  A    between atoms: PA_9  and  O5_13 
REMARK    6  A    between atoms: O5_13  and  C5_14 
REMARK    7  A    between atoms: C5_14  and  C4_15 
REMARK    8  A    between atoms: C3_17  and  O3_18 
REMARK    9  A    between atoms: C1_20  and  N9_21 
REMARK   10  A    between atoms: C6_25  and  N6_26 
ROOT
ATOM      1  C4  DTP d   1      38.500  43.784  64.487  0.00  0.00     0.087 C 
ATOM      2  O4  DTP d   1      38.702  45.214  64.418  0.00  0.00    -0.356 OA
ATOM      3  C3  DTP d   1      37.328  43.495  63.623  0.00  0.00     0.066 C 
ATOM      4  C2  DTP d   1      37.651  44.433  62.465  0.00  0.00     0.002 C 
ATOM      5  C1  DTP d   1      38.205  45.716  63.157  0.00  0.00     0.115 C 
ATOM      6  H3  DTP d   1      38.319  43.454  65.521  0.00  0.00     0.090 H 
ATOM      7  H4  DTP d   1      37.307  42.451  63.278  0.00  0.00     0.087 H 
ATOM      8  H6  DTP d   1      36.745  44.663  61.884  0.00  0.00     0.043 H 
ATOM      9  H7  DTP d   1      38.408  43.989  61.803  0.00  0.00     0.043 H 
ATOM     10  H8  DTP d   1      37.388  46.439  63.295  0.00  0.00     0.118 H 
ENDROOT
BRANCH   1  11
ATOM     11  C5  DTP d   1      39.712  43.121  63.929  0.00  0.00     0.058 C 
ATOM     12  H1  DTP d   1      39.539  42.035  63.931  0.00  0.00     0.079 H 
ATOM     13  H2  DTP d   1      39.847  43.469  62.894  0.00  0.00     0.079 H 
BRANCH  11  14
ATOM     14  O5  DTP d   1      40.883  43.372  64.624  0.00  0.00    -0.287 OA
BRANCH  14  15
ATOM     15  PA  DTP d   1      42.132  42.618  64.178  0.00  0.00     0.417 P 
ATOM     16  O1A DTP d   1      41.816  41.197  64.404  0.00  0.00    -0.624 OA
ATOM     17  O2A DTP d   1      43.350  43.210  64.810  0.00  0.00    -0.624 OA
BRANCH  15  18
ATOM     18  O3A DTP d   1      42.193  42.810  62.595  0.00  0.00    -0.180 OA
BRANCH  18  19
ATOM     19  PB  DTP d   1      43.021  42.125  61.411  0.00  0.00     0.428 P 
ATOM     20  O1B DTP d   1      43.925  43.195  60.806  0.00  0.00    -0.624 OA
ATOM     21  O2B DTP d   1      42.176  41.294  60.532  0.00  0.00    -0.624 OA
BRANCH  19  22
ATOM     22  O3B DTP d   1      44.005  41.117  62.260  0.00  0.00    -0.173 OA
BRANCH  22  23
ATOM     23  PG  DTP d   1      44.096  39.506  62.361  0.00  0.00     0.431 P 
ATOM     24  O1G DTP d   1      42.848  39.064  63.002  0.00  0.00    -0.616 OA
ATOM     25  O2G DTP d   1      45.274  39.409  63.233  0.00  0.00    -0.616 OA
ATOM     26  O3G DTP d   1      44.254  38.976  60.971  0.00  0.00    -0.616 OA
ENDBRANCH  22  23
ENDBRANCH  19  22
ENDBRANCH  18  19
ENDBRANCH  15  18
ENDBRANCH  14  15
ENDBRANCH  11  14
ENDBRANCH   1  11
BRANCH   3  27
ATOM     27  O3  DTP d   1      36.124  43.756  64.387  0.00  0.00    -0.393 OA
ATOM     28  H5  DTP d   1      35.363  43.576  63.848  0.00  0.00     0.210 HD
ENDBRANCH   3  27
BRANCH   5  29
ATOM     29  N9  DTP d   1      39.370  46.414  62.508  0.00  0.00    -0.296 N 
ATOM     30  C8  DTP d   1      40.479  45.900  61.903  0.00  0.00     0.070 A 
ATOM     31  N7  DTP d   1      41.325  46.778  61.456  0.00  0.00    -0.236 NA
ATOM     32  H9  DTP d   1      40.644  44.828  61.802  0.00  0.00     0.144 H 
ATOM     33  C5  DTP d   1      40.728  47.981  61.786  0.00  0.00     0.149 A 
ATOM     34  C6  DTP d   1      41.112  49.361  61.593  0.00  0.00     0.155 A 
ATOM     35  C4  DTP d   1      39.530  47.776  62.417  0.00  0.00     0.167 A 
ATOM     36  N1  DTP d   1      40.299  50.338  62.035  0.00  0.00    -0.222 NA
ATOM     37  C2  DTP d   1      39.153  50.006  62.635  0.00  0.00     0.091 A 
ATOM     38  N3  DTP d   1      38.670  48.760  62.882  0.00  0.00    -0.222 NA
ATOM     39  H12 DTP d   1      38.532  50.831  62.965  0.00  0.00     0.146 H 
BRANCH  34  40
ATOM     40  N6  DTP d   1      42.246  49.690  61.007  0.00  0.00    -0.382 N 
ATOM     41  H10 DTP d   1      42.493  50.682  60.883  0.00  0.00     0.157 HD
ATOM     42  H11 DTP d   1      42.885  48.955  60.673  0.00  0.00     0.157 HD
ENDBRANCH  34  40
ENDBRANCH   5  29
TORSDOF 10
