REMARK  7 active torsions:
REMARK  status: ('A' for Active; 'I' for Inactive)
REMARK    1  A    between atoms: C8_1  and  S7_2 
REMARK    2  A    between atoms: C8_1  and  C9_9 
REMARK    3  A    between atoms: C8_1  and  C10_12 
REMARK    4  A    between atoms: S7_2  and  C6_3 
REMARK    5  A    between atoms: C6_3  and  C5_4 
REMARK    6  A    between atoms: C5_4  and  N3_5 
REMARK       I    between atoms: N3_5  and  C1_6 
REMARK       I    between atoms: C1_6  and  N4_7 
REMARK    7  A    between atoms: C10_12  and  C11_13 
ROOT
ATOM      1  C6  GEM d   1       9.318  33.225  19.550  0.00  0.00    -0.007 C 
ATOM      2  H2  GEM d   1       9.556  32.956  20.590  0.00  0.00     0.051 H 
ATOM      3  H3  GEM d   1       9.707  34.231  19.334  0.00  0.00     0.051 H 
ENDROOT
BRANCH   1   4
ATOM      4  S7  GEM d   1       7.536  33.222  19.333  0.00  0.00    -0.151 SA
BRANCH   4   5
ATOM      5  C8  GEM d   1       7.010  32.256  20.766  0.00  0.00     0.084 C 
ATOM      6  H1  GEM d   1       7.582  31.317  20.750  0.00  0.00     0.074 H 
BRANCH   5   7
ATOM      7  C9  GEM d   1       5.525  31.902  20.656  0.00  0.00     0.187 C 
ATOM      8  O14 GEM d   1       4.987  31.771  19.546  0.00  0.00    -0.647 OA
ATOM      9  O15 GEM d   1       4.889  31.788  21.714  0.00  0.00    -0.647 OA
ENDBRANCH   5   7
BRANCH   5  10
ATOM     10  C10 GEM d   1       7.294  32.938  22.123  0.00  0.00     0.036 C 
ATOM     11  H11 GEM d   1       8.321  33.331  22.109  0.00  0.00     0.051 H 
ATOM     12  H12 GEM d   1       7.200  32.185  22.920  0.00  0.00     0.051 H 
BRANCH  10  13
ATOM     13  C11 GEM d   1       6.348  34.076  22.423  0.00  0.00     0.174 C 
ATOM     14  O12 GEM d   1       6.852  35.111  22.866  0.00  0.00    -0.648 OA
ATOM     15  O13 GEM d   1       5.110  33.924  22.349  0.00  0.00    -0.648 OA
ENDBRANCH  10  13
ENDBRANCH   5  10
ENDBRANCH   4   5
ENDBRANCH   1   4
BRANCH   1  16
ATOM     16  C5  GEM d   1       9.974  32.223  18.611  0.00  0.00     0.017 C 
ATOM     17  H4  GEM d   1      10.963  32.606  18.319  0.00  0.00     0.066 H 
ATOM     18  H5  GEM d   1       9.345  32.112  17.716  0.00  0.00     0.066 H 
BRANCH  16  19
ATOM     19  N3  GEM d   1      10.142  30.916  19.230  0.00  0.00    -0.226 N 
ATOM     20  C1  GEM d   1      10.299  29.781  18.556  0.00  0.00     0.665 C 
ATOM     21  N4  GEM d   1      10.299  29.775  17.232  0.00  0.00    -0.235 N 
ATOM     22  N2  GEM d   1      10.484  28.650  19.214  0.00  0.00    -0.235 N 
ATOM     23  H7  GEM d   1      10.421  28.889  16.721  0.00  0.00     0.174 HD
ATOM     24  H8  GEM d   1      10.177  30.656  16.713  0.00  0.00     0.174 HD
ATOM     25  H9  GEM d   1      10.485  28.648  20.244  0.00  0.00     0.174 HD
ATOM     26  H10 GEM d   1      10.627  27.771  18.697  0.00  0.00     0.174 HD
ATOM     27  H6  GEM d   1      10.139  30.867  20.259  0.00  0.00     0.177 HD
ENDBRANCH  16  19
ENDBRANCH   1  16
TORSDOF 7
