REMARK  12 active torsions:
REMARK  status: ('A' for Active; 'I' for Inactive)
REMARK    1  A    between atoms: C6_3  and  C7_1 
REMARK    2  A    between atoms: C2_2  and  S21_14 
REMARK    3  A    between atoms: C5_4  and  C6_3 
REMARK    4  A    between atoms: C6_3  and  C61_7 
REMARK    5  A    between atoms: C3_5  and  C31_11 
REMARK    6  A    between atoms: C61_7  and  O62_8 
REMARK    7  A    between atoms: C61_7  and  C62_9 
REMARK    8  A    between atoms: S21_14  and  C1A_15 
REMARK    9  A    between atoms: C5A_17  and  C6A_22 
REMARK   10  A    between atoms: C1_18  and  C11_20 
REMARK       I    between atoms: C6A_22  and  N7A_23 
REMARK   11  A    between atoms: N7A_23  and  C8A_25 
REMARK   12  A    between atoms: N7A_23  and  C9A_26 
ROOT
ATOM      1  C2  MER d   1      32.709  91.629  55.300  0.00  0.00     0.045 C 
ATOM      2  C5  MER d   1      30.448  92.216  54.930  0.00  0.00     0.049 C 
ATOM      3  C3  MER d   1      32.621  92.751  54.539  0.00  0.00     0.119 C 
ATOM      4  N4  MER d   1      31.355  93.169  54.452  0.00  0.00    -0.280 NA
ATOM      5  C1  MER d   1      31.300  91.071  55.421  0.00  0.00    -0.018 C 
ATOM      6  H2  MER d   1      32.969  91.989  56.306  0.00  0.00     0.067 H 
ATOM      7  H4  MER d   1      30.029  92.662  55.844  0.00  0.00     0.077 H 
ATOM      8  H14 MER d   1      31.016  90.715  56.422  0.00  0.00     0.045 H 
ENDROOT
BRANCH   1   9
ATOM      9  S21 MER d   1      34.040  90.407  54.936  0.00  0.00    -0.151 SA
BRANCH   9  10
ATOM     10  C1A MER d   1      35.692  91.143  55.240  0.00  0.00     0.017 C 
ATOM     11  C4A MER d   1      35.744  92.040  56.492  0.00  0.00    -0.017 C 
ATOM     12  C5A MER d   1      35.359  91.011  57.626  0.00  0.00     0.179 C 
ATOM     13  H11 MER d   1      35.015  92.862  56.429  0.00  0.00     0.038 H 
ATOM     14  H12 MER d   1      36.751  92.454  56.649  0.00  0.00     0.038 H 
ATOM     15  N3A MER d   1      35.629  89.721  56.990  0.00  0.00    -0.061 N 
ATOM     16  H13 MER d   1      34.296  91.092  57.897  0.00  0.00     0.099 H 
ATOM     17  C2A MER d   1      36.525  89.929  55.830  0.00  0.00     0.094 C 
ATOM     18  H15 MER d   1      34.763  89.311  56.678  0.00  0.00     0.278 HD
ATOM     19  H16 MER d   1      36.073  89.105  57.653  0.00  0.00     0.278 HD
ATOM     20  H20 MER d   1      37.548  90.210  56.121  0.00  0.00     0.077 H 
ATOM     21  H21 MER d   1      36.561  89.062  55.153  0.00  0.00     0.077 H 
ATOM     22  H10 MER d   1      36.111  91.619  54.341  0.00  0.00     0.059 H 
BRANCH  12  23
ATOM     23  C6A MER d   1      36.241  91.282  58.905  0.00  0.00     0.250 C 
ATOM     24  N7A MER d   1      36.747  92.625  59.149  0.00  0.00    -0.359 N 
ATOM     25  O6A MER d   1      37.077  90.376  59.130  0.00  0.00    -0.271 OA
BRANCH  24  26
ATOM     26  C8A MER d   1      38.068  93.024  58.719  0.00  0.00    -0.017 C 
ATOM     27  H22 MER d   1      38.245  94.072  59.003  0.00  0.00     0.056 H 
ATOM     28  H23 MER d   1      38.144  92.922  57.626  0.00  0.00     0.056 H 
ATOM     29  H24 MER d   1      38.820  92.382  59.200  0.00  0.00     0.056 H 
ENDBRANCH  24  26
BRANCH  24  30
ATOM     30  C9A MER d   1      36.181  93.304  60.279  0.00  0.00    -0.017 C 
ATOM     31  H25 MER d   1      35.181  92.897  60.488  0.00  0.00     0.056 H 
ATOM     32  H26 MER d   1      36.101  94.379  60.059  0.00  0.00     0.056 H 
ATOM     33  H27 MER d   1      36.827  93.157  61.157  0.00  0.00     0.056 H 
ENDBRANCH  24  30
ENDBRANCH  12  23
ENDBRANCH   9  10
ENDBRANCH   1   9
BRANCH   3  34
ATOM     34  C31 MER d   1      33.721  93.446  53.949  0.00  0.00     0.225 C 
ATOM     35  O31 MER d   1      33.755  93.554  52.703  0.00  0.00    -0.643 OA
ATOM     36  O32 MER d   1      34.879  93.713  54.653  0.00  0.00    -0.643 OA
ENDBRANCH   3  34
BRANCH   5  37
ATOM     37  C11 MER d   1      31.363  89.930  54.331  0.00  0.00    -0.070 C 
ATOM     38  H17 MER d   1      31.986  89.103  54.702  0.00  0.00     0.028 H 
ATOM     39  H18 MER d   1      31.800  90.332  53.405  0.00  0.00     0.028 H 
ATOM     40  H19 MER d   1      30.347  89.561  54.128  0.00  0.00     0.028 H 
ENDBRANCH   5  37
BRANCH   2  41
ATOM     41  C6  MER d   1      29.142  91.907  54.082  0.00  0.00     0.043 C 
ATOM     42  H3  MER d   1      29.304  91.119  53.332  0.00  0.00     0.058 H 
BRANCH  41  43
ATOM     43  C7  MER d   1      28.706  93.298  53.493  0.00  0.00     0.096 C 
ATOM     44  O7  MER d   1      29.187  93.630  52.407  0.00  0.00    -0.306 OA
ATOM     45  H1  MER d   1      28.007  93.943  54.023  0.00  0.00     0.144 H 
ENDBRANCH  41  43
BRANCH  41  46
ATOM     46  C61 MER d   1      27.908  91.625  55.042  0.00  0.00     0.043 C 
ATOM     47  H5  MER d   1      27.662  92.628  55.421  0.00  0.00     0.083 H 
BRANCH  46  48
ATOM     48  O62 MER d   1      28.230  90.980  56.184  0.00  0.00    -0.395 OA
ATOM     49  H6  MER d   1      27.446  90.848  56.703  0.00  0.00     0.210 HD
ENDBRANCH  46  48
BRANCH  46  50
ATOM     50  C62 MER d   1      26.650  91.264  54.303  0.00  0.00    -0.052 C 
ATOM     51  H7  MER d   1      25.840  91.083  55.025  0.00  0.00     0.030 H 
ATOM     52  H8  MER d   1      26.822  90.354  53.709  0.00  0.00     0.030 H 
ATOM     53  H9  MER d   1      26.367  92.091  53.635  0.00  0.00     0.030 H 
ENDBRANCH  46  50
ENDBRANCH  41  46
ENDBRANCH   2  41
TORSDOF 12
