REMARK  6 active torsions:
REMARK  status: ('A' for Active; 'I' for Inactive)
REMARK    1  A    between atoms: C2_2  and  C3_3 
REMARK    2  A    between atoms: C2_2  and  C6_6 
REMARK    3  A    between atoms: C13_13  and  C2_2 
REMARK    4  A    between atoms: C3_3  and  C4_4 
REMARK    5  A    between atoms: C4_4  and  C5_5 
REMARK    6  A    between atoms: C14_14  and  O4_23 
ROOT
ATOM      1  C2  RWF d   1      30.851  14.227   9.572  0.00  0.00     0.008 C 
ATOM      2  H1  RWF d   1      30.188  15.022   9.201  0.00  0.00     0.055 H 
ENDROOT
BRANCH   1   3
ATOM      3  C3  RWF d   1      30.547  14.043  11.082  0.00  0.00    -0.019 C 
ATOM      4  H2  RWF d   1      31.030  14.861  11.636  0.00  0.00     0.039 H 
ATOM      5  H3  RWF d   1      30.969  13.081  11.407  0.00  0.00     0.039 H 
BRANCH   3   6
ATOM      6  C4  RWF d   1      29.077  14.052  11.407  0.00  0.00     0.127 C 
ATOM      7  O3  RWF d   1      28.233  14.817  10.585  0.00  0.00    -0.226 OA
BRANCH   6   8
ATOM      8  C5  RWF d   1      28.542  13.249  12.560  0.00  0.00    -0.042 C 
ATOM      9  H4  RWF d   1      27.453  13.389  12.630  0.00  0.00     0.031 H 
ATOM     10  H5  RWF d   1      29.016  13.587  13.493  0.00  0.00     0.031 H 
ATOM     11  H6  RWF d   1      28.765  12.184  12.400  0.00  0.00     0.031 H 
ENDBRANCH   6   8
ENDBRANCH   3   6
ENDBRANCH   1   3
BRANCH   1  12
ATOM     12  C6  RWF d   1      30.536  12.952   8.741  0.00  0.00    -0.049 A 
ATOM     13  C7  RWF d   1      30.019  13.055   7.423  0.00  0.00    -0.076 A 
ATOM     14  C8  RWF d   1      29.731  11.896   6.651  0.00  0.00    -0.082 A 
ATOM     15  H7  RWF d   1      29.840  14.036   6.997  0.00  0.00     0.084 H 
ATOM     16  C9  RWF d   1      29.951  10.621   7.177  0.00  0.00    -0.083 A 
ATOM     17  H8  RWF d   1      29.338  12.003   5.646  0.00  0.00     0.083 H 
ATOM     18  C10 RWF d   1      30.451  10.496   8.453  0.00  0.00    -0.082 A 
ATOM     19  H9  RWF d   1      29.730   9.739   6.586  0.00  0.00     0.083 H 
ATOM     20  C12 RWF d   1      30.746  11.641   9.242  0.00  0.00    -0.076 A 
ATOM     21  H10 RWF d   1      30.623   9.508   8.863  0.00  0.00     0.083 H 
ATOM     22  H11 RWF d   1      31.138  11.510  10.244  0.00  0.00     0.084 H 
ENDBRANCH   1  12
BRANCH   1  23
ATOM     23  C13 RWF d   1      32.306  14.710   9.369  0.00  0.00     0.060 A 
ATOM     24  C14 RWF d   1      33.448  14.092   9.891  0.00  0.00     0.091 A 
ATOM     25  C1  RWF d   1      34.821  14.619   9.627  0.00  0.00     0.032 A 
ATOM     26  C15 RWF d   1      36.037  14.039  10.111  0.00  0.00    -0.068 A 
ATOM     27  C19 RWF d   1      34.918  15.785   8.818  0.00  0.00     0.092 A 
ATOM     28  C16 RWF d   1      37.280  14.618   9.785  0.00  0.00    -0.082 A 
ATOM     29  H12 RWF d   1      36.002  13.150  10.731  0.00  0.00     0.085 H 
ATOM     30  C17 RWF d   1      37.339  15.779   8.973  0.00  0.00    -0.080 A 
ATOM     31  H13 RWF d   1      38.196  14.173  10.157  0.00  0.00     0.083 H 
ATOM     32  C18 RWF d   1      36.165  16.370   8.490  0.00  0.00    -0.049 A 
ATOM     33  H14 RWF d   1      38.301  16.213   8.724  0.00  0.00     0.083 H 
ATOM     34  H15 RWF d   1      36.210  17.261   7.875  0.00  0.00     0.087 H 
ATOM     35  O1  RWF d   1      33.773  16.400   8.314  0.00  0.00    -0.274 OA
ATOM     36  C11 RWF d   1      32.479  15.914   8.560  0.00  0.00     0.298 A 
ATOM     37  O2  RWF d   1      31.570  16.557   8.053  0.00  0.00    -0.259 OA
BRANCH  24  38
ATOM     38  O4  RWF d   1      33.449  12.975  10.662  0.00  0.00    -0.359 OA
ATOM     39  H16 RWF d   1      32.949  13.137  11.453  0.00  0.00     0.217 HD
ENDBRANCH  24  38
ENDBRANCH   1  23
TORSDOF 6
