REMARK  6 active torsions:
REMARK  status: ('A' for Active; 'I' for Inactive)
REMARK    1  A    between atoms: C1_1  and  C2_2 
REMARK    2  A    between atoms: C2_2  and  C4_4 
REMARK    3  A    between atoms: C4_4  and  C5_5 
REMARK    4  A    between atoms: C5_5  and  C6_6 
REMARK    5  A    between atoms: C5_5  and  C12_12 
REMARK    6  A    between atoms: C13_13  and  O14_14 
ROOT
ATOM      1  C5  SWF d   1      31.019  13.850  10.036  0.00  0.00     0.008 C 
ATOM      2  H6  SWF d   1      31.127  13.247  10.949  0.00  0.00     0.055 H 
ENDROOT
BRANCH   1   3
ATOM      3  C4  SWF d   1      29.930  14.903  10.356  0.00  0.00    -0.019 C 
ATOM      4  H4  SWF d   1      30.408  15.808  10.758  0.00  0.00     0.039 H 
ATOM      5  H5  SWF d   1      29.387  15.155   9.433  0.00  0.00     0.039 H 
BRANCH   3   6
ATOM      6  C2  SWF d   1      28.965  14.365  11.365  0.00  0.00     0.127 C 
ATOM      7  O3  SWF d   1      27.603  14.515  11.077  0.00  0.00    -0.226 OA
BRANCH   6   8
ATOM      8  C1  SWF d   1      29.446  13.728  12.646  0.00  0.00    -0.042 C 
ATOM      9  H1  SWF d   1      30.546  13.716  12.659  0.00  0.00     0.031 H 
ATOM     10  H2  SWF d   1      29.067  12.697  12.708  0.00  0.00     0.031 H 
ATOM     11  H3  SWF d   1      29.076  14.307  13.505  0.00  0.00     0.031 H 
ENDBRANCH   6   8
ENDBRANCH   3   6
ENDBRANCH   1   3
BRANCH   1  12
ATOM     12  C6  SWF d   1      30.633  12.881   8.946  0.00  0.00    -0.049 A 
ATOM     13  C7  SWF d   1      30.090  13.202   7.604  0.00  0.00    -0.076 A 
ATOM     14  C8  SWF d   1      29.761  12.171   6.629  0.00  0.00    -0.082 A 
ATOM     15  H7  SWF d   1      29.932  14.241   7.339  0.00  0.00     0.084 H 
ATOM     16  C9  SWF d   1      29.943  10.796   6.919  0.00  0.00    -0.083 A 
ATOM     17  H8  SWF d   1      29.369  12.462   5.661  0.00  0.00     0.083 H 
ATOM     18  C10 SWF d   1      30.462  10.442   8.208  0.00  0.00    -0.082 A 
ATOM     19  H9  SWF d   1      29.697  10.034   6.188  0.00  0.00     0.083 H 
ATOM     20  C11 SWF d   1      30.807  11.460   9.220  0.00  0.00    -0.076 A 
ATOM     21  H10 SWF d   1      30.605   9.394   8.447  0.00  0.00     0.083 H 
ATOM     22  H11 SWF d   1      31.196  11.146  10.182  0.00  0.00     0.084 H 
ENDBRANCH   1  12
BRANCH   1  23
ATOM     23  C12 SWF d   1      32.421  14.496   9.773  0.00  0.00     0.060 A 
ATOM     24  C13 SWF d   1      33.676  14.002  10.242  0.00  0.00     0.091 A 
ATOM     25  C15 SWF d   1      35.006  14.668   9.910  0.00  0.00     0.032 A 
ATOM     26  C16 SWF d   1      36.332  14.238  10.312  0.00  0.00    -0.068 A 
ATOM     27  C20 SWF d   1      34.914  15.867   9.080  0.00  0.00     0.092 A 
ATOM     28  C17 SWF d   1      37.498  14.963   9.891  0.00  0.00    -0.082 A 
ATOM     29  H13 SWF d   1      36.444  13.360  10.937  0.00  0.00     0.085 H 
ATOM     30  C18 SWF d   1      37.360  16.126   9.071  0.00  0.00    -0.080 A 
ATOM     31  H14 SWF d   1      38.483  14.628  10.195  0.00  0.00     0.083 H 
ATOM     32  C19 SWF d   1      36.095  16.584   8.668  0.00  0.00    -0.049 A 
ATOM     33  H15 SWF d   1      38.247  16.663   8.755  0.00  0.00     0.083 H 
ATOM     34  H16 SWF d   1      36.007  17.471   8.051  0.00  0.00     0.087 H 
ATOM     35  O21 SWF d   1      33.689  16.334   8.649  0.00  0.00    -0.274 OA
ATOM     36  C22 SWF d   1      32.448  15.734   8.939  0.00  0.00     0.298 A 
ATOM     37  O23 SWF d   1      31.521  16.303   8.446  0.00  0.00    -0.259 OA
BRANCH  24  38
ATOM     38  O14 SWF d   1      33.838  12.903  10.999  0.00  0.00    -0.359 OA
ATOM     39  H12 SWF d   1      33.363  13.009  11.815  0.00  0.00     0.217 HD
ENDBRANCH  24  38
ENDBRANCH   1  23
TORSDOF 6
