REMARK  17 active torsions:
REMARK  status: ('A' for Active; 'I' for Inactive)
REMARK    1  A    between atoms: C_1  and  CA_3 
REMARK       I    between atoms: C_1  and  N_10 
REMARK    2  A    between atoms: CA_3  and  CB_4 
REMARK    3  A    between atoms: CB_4  and  CD_5 
REMARK    4  A    between atoms: CD_5  and  NE_6 
REMARK       I    between atoms: NE_6  and  CZ_7 
REMARK       I    between atoms: CZ_7  and  NH1_8 
REMARK    5  A    between atoms: N_10  and  CA_11 
REMARK    6  A    between atoms: CA_11  and  C_12 
REMARK    7  A    between atoms: CA_11  and  CB_14 
REMARK       I    between atoms: C_12  and  N_21 
REMARK    8  A    between atoms: CB_14  and  CG_15 
REMARK    9  A    between atoms: N_21  and  CA_22 
REMARK   10  A    between atoms: CA_22  and  CB_23 
REMARK   11  A    between atoms: CA_22  and  C_26 
REMARK   12  A    between atoms: CB_23  and  CG2_24 
REMARK   13  A    between atoms: CB_23  and  OG1_25 
REMARK       I    between atoms: C_26  and  N_28 
REMARK   14  A    between atoms: N_28  and  CA_29 
REMARK   15  A    between atoms: CA_29  and  C_30 
REMARK   16  A    between atoms: CA_29  and  CB_32 
REMARK   17  A    between atoms: CB_32  and  CG_33 
ROOT
ATOM      1  CA  0E7 d   1      14.371  36.967   3.988  0.00  0.00     0.093 C 
ATOM      2  H13 0E7 d   1      14.497  37.878   3.385  0.00  0.00     0.088 H 
ENDROOT
BRANCH   1   3
ATOM      3  N   0E7 d   1      14.938  37.184   5.326  0.00  0.00    -0.347 N 
ATOM      4  C   0E7 d   1      14.538  38.080   6.229  0.00  0.00     0.218 C 
ATOM      5  O   0E7 d   1      13.582  38.871   6.068  0.00  0.00    -0.274 OA
ATOM      6  H12 0E7 d   1      15.705  36.598   5.587  0.00  0.00     0.163 HD
BRANCH   4   7
ATOM      7  CA  0E7 d   1      15.306  38.006   7.555  0.00  0.00     0.011 C 
ATOM      8  H1  0E7 d   1      15.968  38.883   7.610  0.00  0.00     0.047 H 
ATOM      9  H2  0E7 d   1      15.912  37.088   7.542  0.00  0.00     0.047 H 
BRANCH   7  10
ATOM     10  CB  0E7 d   1      14.460  37.985   8.812  0.00  0.00    -0.042 C 
ATOM     11  H3  0E7 d   1      13.824  38.883   8.809  0.00  0.00     0.036 H 
ATOM     12  H4  0E7 d   1      15.137  38.018   9.678  0.00  0.00     0.036 H 
BRANCH  10  13
ATOM     13  CD  0E7 d   1      13.569  36.784   8.963  0.00  0.00     0.009 C 
ATOM     14  H5  0E7 d   1      13.280  36.672  10.018  0.00  0.00     0.064 H 
ATOM     15  H6  0E7 d   1      14.107  35.884   8.633  0.00  0.00     0.064 H 
BRANCH  13  16
ATOM     16  NE  0E7 d   1      12.377  36.962   8.150  0.00  0.00    -0.227 N 
ATOM     17  CZ  0E7 d   1      11.139  36.978   8.592  0.00  0.00     0.665 C 
ATOM     18  NH1 0E7 d   1      10.840  36.807   9.879  0.00  0.00    -0.235 N 
ATOM     19  NH2 0E7 d   1      10.195  37.223   7.724  0.00  0.00    -0.235 N 
ATOM     20  H8  0E7 d   1       9.857  36.826  10.186  0.00  0.00     0.174 HD
ATOM     21  H9  0E7 d   1      11.592  36.656  10.567  0.00  0.00     0.174 HD
ATOM     22  H10 0E7 d   1      10.431  37.355   6.730  0.00  0.00     0.174 HD
ATOM     23  H11 0E7 d   1       9.214  37.285   8.033  0.00  0.00     0.174 HD
ATOM     24  H7  0E7 d   1      12.515  37.087   7.137  0.00  0.00     0.177 HD
ENDBRANCH  13  16
ENDBRANCH  10  13
ENDBRANCH   7  10
ENDBRANCH   4   7
ENDBRANCH   1   3
BRANCH   1  25
ATOM     25  C   0E7 d   1      12.870  36.594   4.029  0.00  0.00     0.241 C 
ATOM     26  O   0E7 d   1      12.391  36.007   5.017  0.00  0.00    -0.271 OA
ATOM     27  N   0E7 d   1      12.118  36.968   2.991  0.00  0.00    -0.344 N 
ATOM     28  H21 0E7 d   1      12.531  37.500   2.252  0.00  0.00     0.163 HD
BRANCH  27  29
ATOM     29  CA  0E7 d   1      10.692  36.612   2.915  0.00  0.00     0.113 C 
ATOM     30  H22 0E7 d   1      10.489  35.983   3.794  0.00  0.00     0.091 H 
BRANCH  29  31
ATOM     31  CB  0E7 d   1       9.718  37.838   3.020  0.00  0.00     0.060 C 
ATOM     32  H23 0E7 d   1       9.903  38.512   2.171  0.00  0.00     0.086 H 
BRANCH  31  33
ATOM     33  CG2 0E7 d   1       9.917  38.615   4.339  0.00  0.00    -0.050 C 
ATOM     34  H24 0E7 d   1       9.218  39.464   4.374  0.00  0.00     0.031 H 
ATOM     35  H25 0E7 d   1      10.950  38.989   4.392  0.00  0.00     0.031 H 
ATOM     36  H26 0E7 d   1       9.725  37.947   5.191  0.00  0.00     0.031 H 
ENDBRANCH  31  33
BRANCH  31  37
ATOM     37  OG1 0E7 d   1       8.355  37.379   2.984  0.00  0.00    -0.393 OA
ATOM     38  H27 0E7 d   1       8.206  36.896   2.180  0.00  0.00     0.210 HD
ENDBRANCH  31  37
ENDBRANCH  29  31
BRANCH  29  39
ATOM     39  C   0E7 d   1      10.376  35.757   1.682  0.00  0.00     0.243 C 
ATOM     40  O   0E7 d   1      10.936  35.963   0.612  0.00  0.00    -0.271 OA
ATOM     41  N   0E7 d   1       9.529  34.750   1.889  0.00  0.00    -0.344 N 
ATOM     42  H28 0E7 d   1       9.182  34.621   2.818  0.00  0.00     0.163 HD
BRANCH  41  43
ATOM     43  CA  0E7 d   1       9.070  33.823   0.865  0.00  0.00     0.100 C 
ATOM     44  H29 0E7 d   1       9.602  34.001  -0.081  0.00  0.00     0.090 H 
BRANCH  43  45
ATOM     45  C   0E7 d   1       7.575  34.058   0.704  0.00  0.00     0.197 C 
ATOM     46  O   0E7 d   1       7.038  33.954  -0.408  0.00  0.00    -0.646 OA
ATOM     47  OXT 0E7 d   1       6.683  34.320   1.836  0.00  0.00    -0.646 OA
ENDBRANCH  43  45
BRANCH  43  48
ATOM     48  CB  0E7 d   1       9.266  32.376   1.319  0.00  0.00    -0.013 C 
ATOM     49  H30 0E7 d   1       8.540  31.748   0.782  0.00  0.00     0.043 H 
ATOM     50  H31 0E7 d   1       9.065  32.326   2.399  0.00  0.00     0.043 H 
BRANCH  48  51
ATOM     51  CG  0E7 d   1      10.641  31.817   1.073  0.00  0.00    -0.056 A 
ATOM     52  CD1 0E7 d   1      11.053  31.453  -0.247  0.00  0.00    -0.077 A 
ATOM     53  CE1 0E7 d   1      12.344  30.861  -0.477  0.00  0.00    -0.082 A 
ATOM     54  H32 0E7 d   1      10.385  31.625  -1.083  0.00  0.00     0.084 H 
ATOM     55  CZ  0E7 d   1      13.230  30.637   0.635  0.00  0.00    -0.083 A 
ATOM     56  H34 0E7 d   1      12.647  30.586  -1.481  0.00  0.00     0.083 H 
ATOM     57  CE2 0E7 d   1      12.818  31.005   1.964  0.00  0.00    -0.082 A 
ATOM     58  H36 0E7 d   1      14.205  30.192   0.472  0.00  0.00     0.083 H 
ATOM     59  CD2 0E7 d   1      11.525  31.594   2.165  0.00  0.00    -0.077 A 
ATOM     60  H35 0E7 d   1      13.479  30.838   2.807  0.00  0.00     0.083 H 
ATOM     61  H33 0E7 d   1      11.217  31.874   3.166  0.00  0.00     0.084 H 
ENDBRANCH  48  51
ENDBRANCH  43  48
ENDBRANCH  41  43
ENDBRANCH  29  39
ENDBRANCH  27  29
ENDBRANCH   1  25
BRANCH   1  62
ATOM     62  CB  0E7 d   1      15.158  35.803   3.362  0.00  0.00    -0.014 C 
ATOM     63  H14 0E7 d   1      14.863  34.874   3.873  0.00  0.00     0.043 H 
ATOM     64  H15 0E7 d   1      16.230  35.986   3.525  0.00  0.00     0.043 H 
BRANCH  62  65
ATOM     65  CG  0E7 d   1      14.933  35.622   1.899  0.00  0.00    -0.056 A 
ATOM     66  CD1 0E7 d   1      15.684  36.379   0.968  0.00  0.00    -0.077 A 
ATOM     67  CE1 0E7 d   1      15.442  36.255  -0.428  0.00  0.00    -0.082 A 
ATOM     68  H16 0E7 d   1      16.450  37.059   1.322  0.00  0.00     0.084 H 
ATOM     69  CZ  0E7 d   1      14.429  35.363  -0.898  0.00  0.00    -0.083 A 
ATOM     70  H18 0E7 d   1      16.025  36.836  -1.134  0.00  0.00     0.083 H 
ATOM     71  CE2 0E7 d   1      13.677  34.593   0.023  0.00  0.00    -0.082 A 
ATOM     72  H20 0E7 d   1      14.236  35.276  -1.961  0.00  0.00     0.083 H 
ATOM     73  CD2 0E7 d   1      13.933  34.724   1.420  0.00  0.00    -0.077 A 
ATOM     74  H19 0E7 d   1      12.913  33.910  -0.331  0.00  0.00     0.083 H 
ATOM     75  H17 0E7 d   1      13.361  34.134   2.127  0.00  0.00     0.084 H 
ENDBRANCH  62  65
ENDBRANCH   1  62
TORSDOF 17
