REMARK  28 active torsions:
REMARK  status: ('A' for Active; 'I' for Inactive)
REMARK    1  A    between atoms: CA_2  and  N_1 
REMARK    2  A    between atoms: CA_2  and  CB_5 
REMARK    3  A    between atoms: C_3  and  CA_2 
REMARK       I    between atoms: N_6  and  C_3 
REMARK    4  A    between atoms: CA_7  and  N_6 
REMARK    5  A    between atoms: CA_7  and  CB_10 
REMARK    6  A    between atoms: C_8  and  CA_7 
REMARK       I    between atoms: N_11  and  C_8 
REMARK    7  A    between atoms: CA_12  and  N_11 
REMARK    8  A    between atoms: CA_12  and  CB_13 
REMARK    9  A    between atoms: CH_20  and  CA_12 
REMARK   10  A    between atoms: CB_13  and  CG_14 
REMARK   11  A    between atoms: CH_20  and  OH_21 
REMARK   12  A    between atoms: CH2_22  and  CH_20 
REMARK   13  A    between atoms: CA_23  and  CH2_22 
REMARK   14  A    between atoms: CA_23  and  CB_26 
REMARK   15  A    between atoms: C_24  and  CA_23 
REMARK       I    between atoms: N_33  and  C_24 
REMARK   16  A    between atoms: CB_26  and  CG_27 
REMARK   17  A    between atoms: CA_34  and  N_33 
REMARK   18  A    between atoms: CA_34  and  CB_37 
REMARK   19  A    between atoms: C_35  and  CA_34 
REMARK       I    between atoms: N_40  and  C_35 
REMARK   20  A    between atoms: CB_37  and  CG2_39 
REMARK   21  A    between atoms: CB_37  and  CG1_38 
REMARK   22  A    between atoms: CA_41  and  N_40 
REMARK   23  A    between atoms: CA_41  and  CB_44 
REMARK   24  A    between atoms: C_42  and  CA_41 
REMARK   25  A    between atoms: C_42  and  O_48 
REMARK   26  A    between atoms: CB_44  and  CG2_46 
REMARK   27  A    between atoms: CB_44  and  CG1_45 
REMARK   28  A    between atoms: O_48  and  CM_47 
ROOT
ATOM      1  CA  PJJ d   1      -7.946  18.053  26.991  0.00  0.00     0.030 C 
ATOM      2  H26 PJJ d   1      -8.153  19.044  26.561  0.00  0.00     0.055 H 
ENDROOT
BRANCH   1   3
ATOM      3  CB  PJJ d   1      -6.557  18.028  27.750  0.00  0.00    -0.029 C 
ATOM      4  H27 PJJ d   1      -6.458  17.065  28.273  0.00  0.00     0.041 H 
ATOM      5  H28 PJJ d   1      -6.542  18.847  28.484  0.00  0.00     0.041 H 
BRANCH   3   6
ATOM      6  CG  PJJ d   1      -5.447  18.185  26.867  0.00  0.00    -0.057 A 
ATOM      7  CD1 PJJ d   1      -5.322  19.340  26.052  0.00  0.00    -0.077 A 
ATOM      8  CE1 PJJ d   1      -4.226  19.460  25.177  0.00  0.00    -0.082 A 
ATOM      9  H29 PJJ d   1      -6.067  20.126  26.103  0.00  0.00     0.084 H 
ATOM     10  CZ  PJJ d   1      -3.259  18.453  25.103  0.00  0.00    -0.083 A 
ATOM     11  H31 PJJ d   1      -4.131  20.342  24.554  0.00  0.00     0.083 H 
ATOM     12  CE2 PJJ d   1      -3.394  17.283  25.892  0.00  0.00    -0.082 A 
ATOM     13  H33 PJJ d   1      -2.407  18.567  24.443  0.00  0.00     0.083 H 
ATOM     14  CD2 PJJ d   1      -4.487  17.160  26.773  0.00  0.00    -0.077 A 
ATOM     15  H32 PJJ d   1      -2.661  16.488  25.818  0.00  0.00     0.083 H 
ATOM     16  H30 PJJ d   1      -4.589  16.270  27.383  0.00  0.00     0.084 H 
ENDBRANCH   3   6
ENDBRANCH   1   3
BRANCH   1  17
ATOM     17  C   PJJ d   1      -7.761  17.071  25.855  0.00  0.00     0.223 C 
ATOM     18  O   PJJ d   1      -7.155  16.007  26.038  0.00  0.00    -0.273 OA
ATOM     19  N   VAL d   1      -8.207  17.368  24.622  0.00  0.00    -0.347 N 
ATOM     20  H34 VAL d   1      -8.707  18.218  24.458  0.00  0.00     0.163 HD
BRANCH  19  21
ATOM     21  CA  VAL d   1      -7.953  16.432  23.516  0.00  0.00     0.092 C 
ATOM     22  H35 VAL d   1      -7.330  15.614  23.908  0.00  0.00     0.088 H 
BRANCH  21  23
ATOM     23  CB  VAL d   1      -9.120  15.786  22.824  0.00  0.00    -0.033 C 
ATOM     24  H36 VAL d   1      -9.292  16.432  21.950  0.00  0.00     0.042 H 
BRANCH  23  25
ATOM     25  CG2 VAL d   1     -10.452  15.751  23.536  0.00  0.00    -0.071 C 
ATOM     26  H40 VAL d   1     -10.673  16.746  23.949  0.00  0.00     0.028 H 
ATOM     27  H41 VAL d   1     -10.412  15.016  24.353  0.00  0.00     0.028 H 
ATOM     28  H42 VAL d   1     -11.241  15.466  22.824  0.00  0.00     0.028 H 
ENDBRANCH  23  25
BRANCH  23  29
ATOM     29  CG1 VAL d   1      -8.811  14.388  22.245  0.00  0.00    -0.071 C 
ATOM     30  H37 VAL d   1      -9.711  13.986  21.758  0.00  0.00     0.028 H 
ATOM     31  H38 VAL d   1      -8.502  13.714  23.058  0.00  0.00     0.028 H 
ATOM     32  H39 VAL d   1      -7.999  14.468  21.507  0.00  0.00     0.028 H 
ENDBRANCH  23  29
ENDBRANCH  21  23
BRANCH  21  33
ATOM     33  C   VAL d   1      -7.129  17.271  22.495  0.00  0.00     0.241 C 
ATOM     34  O   VAL d   1      -7.559  18.371  22.126  0.00  0.00    -0.271 OA
ATOM     35  N   VME d   1      -6.050  16.641  22.122  0.00  0.00    -0.345 N 
ATOM     36  H43 VME d   1      -5.972  15.762  22.593  0.00  0.00     0.163 HD
BRANCH  35  37
ATOM     37  CA  VME d   1      -4.965  16.837  21.252  0.00  0.00     0.099 C 
ATOM     38  H44 VME d   1      -4.430  15.878  21.193  0.00  0.00     0.089 H 
BRANCH  37  39
ATOM     39  CB  VME d   1      -5.375  17.234  19.823  0.00  0.00    -0.032 C 
ATOM     40  H45 VME d   1      -6.335  16.752  19.588  0.00  0.00     0.042 H 
BRANCH  39  41
ATOM     41  CG2 VME d   1      -4.319  16.655  18.858  0.00  0.00    -0.071 C 
ATOM     42  H49 VME d   1      -4.240  15.569  19.010  0.00  0.00     0.028 H 
ATOM     43  H50 VME d   1      -3.344  17.125  19.056  0.00  0.00     0.028 H 
ATOM     44  H51 VME d   1      -4.620  16.859  17.820  0.00  0.00     0.028 H 
ENDBRANCH  39  41
BRANCH  39  45
ATOM     45  CG1 VME d   1      -5.601  18.734  19.733  0.00  0.00    -0.071 C 
ATOM     46  H46 VME d   1      -5.893  19.000  18.706  0.00  0.00     0.028 H 
ATOM     47  H47 VME d   1      -4.673  19.261  19.998  0.00  0.00     0.028 H 
ATOM     48  H48 VME d   1      -6.401  19.027  20.429  0.00  0.00     0.028 H 
ENDBRANCH  39  45
ENDBRANCH  37  39
BRANCH  37  49
ATOM     49  C   VME d   1      -3.978  17.899  21.761  0.00  0.00     0.281 C 
ATOM     50  O   VME d   1      -4.110  18.174  22.955  0.00  0.00    -0.263 OA
BRANCH  49  51
ATOM     51  O   VME d   1      -3.053  18.528  20.939  0.00  0.00    -0.325 OA
BRANCH  51  52
ATOM     52  CM  VME d   1      -3.539  19.444  19.981  0.00  0.00     0.013 C 
ATOM     53  H52 VME d   1      -2.696  19.858  19.409  0.00  0.00     0.067 H 
ATOM     54  H53 VME d   1      -4.072  20.260  20.491  0.00  0.00     0.067 H 
ATOM     55  H54 VME d   1      -4.228  18.928  19.296  0.00  0.00     0.067 H 
ENDBRANCH  51  52
ENDBRANCH  49  51
ENDBRANCH  37  49
ENDBRANCH  35  37
ENDBRANCH  21  33
ENDBRANCH  19  21
ENDBRANCH   1  17
BRANCH   1  56
ATOM     56  CH2 PJJ d   1      -8.969  17.783  28.062  0.00  0.00    -0.028 C 
ATOM     57  H24 PJJ d   1      -8.591  16.924  28.635  0.00  0.00     0.038 H 
ATOM     58  H25 PJJ d   1      -8.980  18.676  28.704  0.00  0.00     0.038 H 
BRANCH  56  59
ATOM     59  CH  PJJ d   1     -10.418  17.473  27.749  0.00  0.00     0.056 C 
ATOM     60  H22 PJJ d   1     -10.538  17.436  26.656  0.00  0.00     0.086 H 
BRANCH  59  61
ATOM     61  CA  PJJ d   1     -10.831  16.107  28.357  0.00  0.00     0.041 C 
ATOM     62  H14 PJJ d   1     -10.288  15.299  27.845  0.00  0.00     0.076 H 
BRANCH  61  63
ATOM     63  N   PJJ d   1     -10.590  16.009  29.745  0.00  0.00    -0.352 N 
ATOM     64  C   ALA d   1     -10.043  15.353  30.741  0.00  0.00     0.240 C 
ATOM     65  O   ALA d   1      -9.333  14.372  30.682  0.00  0.00    -0.271 OA
ATOM     66  H13 PJJ d   1     -11.043  16.800  30.156  0.00  0.00     0.163 HD
BRANCH  64  67
ATOM     67  CA  ALA d   1     -10.334  16.011  32.125  0.00  0.00     0.086 C 
ATOM     68  H9  ALA d   1     -10.918  16.920  31.920  0.00  0.00     0.086 H 
BRANCH  67  69
ATOM     69  N   ALA d   1     -11.135  15.208  32.924  0.00  0.00    -0.346 N 
ATOM     70  C   ALA d   1     -12.252  14.587  33.162  0.00  0.00     0.248 C 
ATOM     71  O   ALA d   1     -13.275  14.436  32.477  0.00  0.00    -0.271 OA
ATOM     72  H8  ALA d   1     -10.564  15.003  33.719  0.00  0.00     0.163 HD
BRANCH  70  73
ATOM     73  CA  ALA d   1     -12.296  13.889  34.557  0.00  0.00     0.172 C 
ATOM     74  H4  ALA d   1     -11.872  14.591  35.290  0.00  0.00     0.098 H 
BRANCH  73  75
ATOM     75  N   ALA d   1     -13.642  13.616  34.983  0.00  0.00    -0.067 N 
ATOM     76  H1  ALA d   1     -13.624  13.167  35.885  0.00  0.00     0.275 HD
ATOM     77  H2  ALA d   1     -14.090  13.009  34.314  0.00  0.00     0.275 HD
ATOM     78  H3  ALA d   1     -14.156  14.481  35.048  0.00  0.00     0.275 HD
ENDBRANCH  73  75
BRANCH  73  79
ATOM     79  CB  ALA d   1     -11.399  12.672  34.540  0.00  0.00    -0.042 C 
ATOM     80  H5  ALA d   1     -10.393  12.963  34.205  0.00  0.00     0.030 H 
ATOM     81  H6  ALA d   1     -11.812  11.921  33.850  0.00  0.00     0.030 H 
ATOM     82  H7  ALA d   1     -11.339  12.246  35.553  0.00  0.00     0.030 H 
ENDBRANCH  73  79
ENDBRANCH  70  73
ENDBRANCH  67  69
BRANCH  67  83
ATOM     83  CB  ALA d   1      -9.060  16.473  32.821  0.00  0.00    -0.049 C 
ATOM     84  H10 ALA d   1      -8.475  17.102  32.134  0.00  0.00     0.030 H 
ATOM     85  H11 ALA d   1      -8.463  15.596  33.114  0.00  0.00     0.030 H 
ATOM     86  H12 ALA d   1      -9.322  17.054  33.718  0.00  0.00     0.030 H 
ENDBRANCH  67  83
ENDBRANCH  64  67
ENDBRANCH  61  63
BRANCH  61  87
ATOM     87  CB  PJJ d   1     -12.372  15.977  28.102  0.00  0.00    -0.020 C 
ATOM     88  H15 PJJ d   1     -12.555  16.041  27.019  0.00  0.00     0.043 H 
ATOM     89  H16 PJJ d   1     -12.883  16.808  28.610  0.00  0.00     0.043 H 
BRANCH  87  90
ATOM     90  CG  PJJ d   1     -12.955  14.659  28.617  0.00  0.00    -0.056 A 
ATOM     91  CD1 PJJ d   1     -12.287  13.433  28.347  0.00  0.00    -0.077 A 
ATOM     92  CE1 PJJ d   1     -12.824  12.232  28.847  0.00  0.00    -0.082 A 
ATOM     93  H17 PJJ d   1     -11.374  13.424  27.762  0.00  0.00     0.084 H 
ATOM     94  CZ  PJJ d   1     -14.022  12.273  29.587  0.00  0.00    -0.083 A 
ATOM     95  H19 PJJ d   1     -12.323  11.288  28.665  0.00  0.00     0.083 H 
ATOM     96  CE2 PJJ d   1     -14.662  13.473  29.870  0.00  0.00    -0.082 A 
ATOM     97  H21 PJJ d   1     -14.455  11.346  29.944  0.00  0.00     0.083 H 
ATOM     98  CD2 PJJ d   1     -14.128  14.695  29.382  0.00  0.00    -0.077 A 
ATOM     99  H20 PJJ d   1     -15.569  13.477  30.463  0.00  0.00     0.083 H 
ATOM    100  H18 PJJ d   1     -14.618  15.637  29.597  0.00  0.00     0.084 H 
ENDBRANCH  87  90
ENDBRANCH  61  87
ENDBRANCH  59  61
BRANCH  59 101
ATOM    101  OH  PJJ d   1     -11.292  18.460  28.280  0.00  0.00    -0.393 OA
ATOM    102  H23 PJJ d   1     -11.062  19.310  27.924  0.00  0.00     0.210 HD
ENDBRANCH  59 101
ENDBRANCH  56  59
ENDBRANCH   1  56
TORSDOF 28
