REMARK  26 active torsions:
REMARK  status: ('A' for Active; 'I' for Inactive)
REMARK    1  A    between atoms: CA_2  and  N_1 
REMARK    2  A    between atoms: CA_2  and  CB_5 
REMARK    3  A    between atoms: C_3  and  CA_2 
REMARK       I    between atoms: N_6  and  C_3 
REMARK    4  A    between atoms: CA_7  and  N_6 
REMARK    5  A    between atoms: CA_7  and  CB_10 
REMARK    6  A    between atoms: C_8  and  CA_7 
REMARK       I    between atoms: N_11  and  C_8 
REMARK    7  A    between atoms: CA_12  and  N_11 
REMARK    8  A    between atoms: CA_12  and  CB_13 
REMARK    9  A    between atoms: CH_20  and  CA_12 
REMARK   10  A    between atoms: CB_13  and  CG_14 
REMARK   11  A    between atoms: CH_20  and  OH_21 
REMARK   12  A    between atoms: CH2_22  and  CH_20 
REMARK   13  A    between atoms: CA_23  and  CH2_22 
REMARK   14  A    between atoms: C_24  and  CA_23 
REMARK       I    between atoms: N_26  and  C_24 
REMARK   15  A    between atoms: CA_27  and  N_26 
REMARK   16  A    between atoms: CA_27  and  CB_30 
REMARK   17  A    between atoms: C_28  and  CA_27 
REMARK       I    between atoms: N_33  and  C_28 
REMARK   18  A    between atoms: CB_30  and  CG2_32 
REMARK   19  A    between atoms: CB_30  and  CG1_31 
REMARK   20  A    between atoms: CA_34  and  N_33 
REMARK   21  A    between atoms: CA_34  and  CB_37 
REMARK   22  A    between atoms: C_35  and  CA_34 
REMARK   23  A    between atoms: C_35  and  O_41 
REMARK   24  A    between atoms: CB_37  and  CG2_39 
REMARK   25  A    between atoms: CB_37  and  CG1_38 
REMARK   26  A    between atoms: O_41  and  CM_40 
ROOT
ATOM      1  CH2 PSI d   1      -9.405  18.196  28.546  0.00  0.00    -0.031 C 
ATOM      2  H24 PSI d   1      -8.866  17.318  28.932  0.00  0.00     0.037 H 
ATOM      3  H25 PSI d   1      -9.532  18.932  29.353  0.00  0.00     0.037 H 
ENDROOT
BRANCH   1   4
ATOM      4  CH  PSI d   1     -10.818  17.753  28.010  0.00  0.00     0.056 C 
ATOM      5  H22 PSI d   1     -10.769  17.533  26.933  0.00  0.00     0.086 H 
BRANCH   4   6
ATOM      6  CA  PSI d   1     -11.284  16.497  28.779  0.00  0.00     0.041 C 
ATOM      7  H14 PSI d   1     -10.590  15.669  28.572  0.00  0.00     0.076 H 
BRANCH   6   8
ATOM      8  N   PSI d   1     -11.234  16.802  30.197  0.00  0.00    -0.352 N 
ATOM      9  C   PSI d   1     -10.514  16.113  31.120  0.00  0.00     0.240 C 
ATOM     10  O   PSI d   1      -9.853  15.141  30.780  0.00  0.00    -0.271 OA
ATOM     11  H13 PSI d   1     -11.772  17.581  30.520  0.00  0.00     0.163 HD
BRANCH   9  12
ATOM     12  CA  PSI d   1     -10.598  16.690  32.518  0.00  0.00     0.086 C 
ATOM     13  H9  PSI d   1     -11.269  17.560  32.455  0.00  0.00     0.086 H 
BRANCH  12  14
ATOM     14  N   PSI d   1     -11.164  15.769  33.436  0.00  0.00    -0.346 N 
ATOM     15  C   PSI d   1     -12.322  15.096  33.343  0.00  0.00     0.248 C 
ATOM     16  O   PSI d   1     -13.038  15.239  32.375  0.00  0.00    -0.271 OA
ATOM     17  H8  PSI d   1     -10.629  15.598  34.263  0.00  0.00     0.163 HD
BRANCH  15  18
ATOM     18  CA  PSI d   1     -12.564  14.209  34.566  0.00  0.00     0.172 C 
ATOM     19  H4  PSI d   1     -11.812  14.545  35.295  0.00  0.00     0.098 H 
BRANCH  18  20
ATOM     20  N   PSI d   1     -13.823  14.474  35.207  0.00  0.00    -0.067 N 
ATOM     21  H1  PSI d   1     -13.930  13.864  36.003  0.00  0.00     0.275 HD
ATOM     22  H2  PSI d   1     -14.573  14.309  34.554  0.00  0.00     0.275 HD
ATOM     23  H3  PSI d   1     -13.849  15.434  35.514  0.00  0.00     0.275 HD
ENDBRANCH  18  20
BRANCH  18  24
ATOM     24  CB  PSI d   1     -12.250  12.742  34.372  0.00  0.00    -0.042 C 
ATOM     25  H5  PSI d   1     -11.273  12.639  33.877  0.00  0.00     0.030 H 
ATOM     26  H6  PSI d   1     -13.028  12.280  33.747  0.00  0.00     0.030 H 
ATOM     27  H7  PSI d   1     -12.220  12.241  35.351  0.00  0.00     0.030 H 
ENDBRANCH  18  24
ENDBRANCH  15  18
ENDBRANCH  12  14
BRANCH  12  28
ATOM     28  CB  PSI d   1      -9.262  17.187  33.108  0.00  0.00    -0.049 C 
ATOM     29  H10 PSI d   1      -8.800  17.905  32.415  0.00  0.00     0.030 H 
ATOM     30  H11 PSI d   1      -8.586  16.332  33.255  0.00  0.00     0.030 H 
ATOM     31  H12 PSI d   1      -9.448  17.678  34.074  0.00  0.00     0.030 H 
ENDBRANCH  12  28
ENDBRANCH   9  12
ENDBRANCH   6   8
BRANCH   6  32
ATOM     32  CB  PSI d   1     -12.670  16.079  28.322  0.00  0.00    -0.020 C 
ATOM     33  H15 PSI d   1     -12.571  15.758  27.275  0.00  0.00     0.043 H 
ATOM     34  H16 PSI d   1     -13.301  16.978  28.372  0.00  0.00     0.043 H 
BRANCH  32  35
ATOM     35  CG  PSI d   1     -13.432  14.971  29.048  0.00  0.00    -0.056 A 
ATOM     36  CD1 PSI d   1     -13.076  13.629  28.983  0.00  0.00    -0.077 A 
ATOM     37  CE1 PSI d   1     -13.818  12.638  29.661  0.00  0.00    -0.082 A 
ATOM     38  H17 PSI d   1     -12.210  13.337  28.399  0.00  0.00     0.084 H 
ATOM     39  CZ  PSI d   1     -14.917  13.043  30.412  0.00  0.00    -0.083 A 
ATOM     40  H19 PSI d   1     -13.540  11.592  29.598  0.00  0.00     0.083 H 
ATOM     41  CE2 PSI d   1     -15.300  14.380  30.483  0.00  0.00    -0.082 A 
ATOM     42  H21 PSI d   1     -15.489  12.300  30.955  0.00  0.00     0.083 H 
ATOM     43  CD2 PSI d   1     -14.560  15.373  29.807  0.00  0.00    -0.077 A 
ATOM     44  H20 PSI d   1     -16.173  14.660  31.062  0.00  0.00     0.083 H 
ATOM     45  H18 PSI d   1     -14.847  16.417  29.866  0.00  0.00     0.084 H 
ENDBRANCH  32  35
ENDBRANCH   6  32
ENDBRANCH   4   6
BRANCH   4  46
ATOM     46  OH  PSI d   1     -11.697  18.822  28.249  0.00  0.00    -0.393 OA
ATOM     47  H23 PSI d   1     -12.569  18.584  27.958  0.00  0.00     0.210 HD
ENDBRANCH   4  46
ENDBRANCH   1   4
BRANCH   1  48
ATOM     48  CA  PSI d   1      -8.605  18.826  27.398  0.00  0.00     0.011 C 
ATOM     49  H26 PSI d   1      -9.229  19.590  26.912  0.00  0.00     0.047 H 
ATOM     50  H27 PSI d   1      -7.704  19.299  27.815  0.00  0.00     0.047 H 
BRANCH  48  51
ATOM     51  C   PSI d   1      -8.183  17.817  26.360  0.00  0.00     0.218 C 
ATOM     52  O   PSI d   1      -7.470  16.849  26.696  0.00  0.00    -0.274 OA
ATOM     53  N   PSI d   1      -8.585  17.971  25.103  0.00  0.00    -0.347 N 
ATOM     54  H28 PSI d   1      -9.136  18.771  24.867  0.00  0.00     0.163 HD
BRANCH  53  55
ATOM     55  CA  PSI d   1      -8.253  17.023  24.068  0.00  0.00     0.092 C 
ATOM     56  H29 PSI d   1      -7.691  16.207  24.546  0.00  0.00     0.088 H 
BRANCH  55  57
ATOM     57  CB  PSI d   1      -9.457  16.377  23.387  0.00  0.00    -0.033 C 
ATOM     58  H30 PSI d   1      -9.608  16.910  22.437  0.00  0.00     0.042 H 
BRANCH  57  59
ATOM     59  CG2 PSI d   1     -10.739  16.533  24.224  0.00  0.00    -0.071 C 
ATOM     60  H34 PSI d   1     -10.889  17.595  24.470  0.00  0.00     0.028 H 
ATOM     61  H35 PSI d   1     -10.644  15.951  25.153  0.00  0.00     0.028 H 
ATOM     62  H36 PSI d   1     -11.600  16.165  23.648  0.00  0.00     0.028 H 
ENDBRANCH  57  59
BRANCH  57  63
ATOM     63  CG1 PSI d   1      -9.264  14.902  23.055  0.00  0.00    -0.071 C 
ATOM     64  H31 PSI d   1     -10.171  14.514  22.569  0.00  0.00     0.028 H 
ATOM     65  H32 PSI d   1      -9.075  14.339  23.981  0.00  0.00     0.028 H 
ATOM     66  H33 PSI d   1      -8.407  14.788  22.375  0.00  0.00     0.028 H 
ENDBRANCH  57  63
ENDBRANCH  55  57
BRANCH  55  67
ATOM     67  C   PSI d   1      -7.312  17.705  23.054  0.00  0.00     0.241 C 
ATOM     68  O   PSI d   1      -7.544  18.799  22.596  0.00  0.00    -0.271 OA
ATOM     69  N   PSI d   1      -6.277  16.910  22.755  0.00  0.00    -0.345 N 
ATOM     70  H37 PSI d   1      -6.263  16.028  23.226  0.00  0.00     0.163 HD
BRANCH  69  71
ATOM     71  CA  PSI d   1      -5.196  17.143  21.863  0.00  0.00     0.099 C 
ATOM     72  H38 PSI d   1      -4.632  16.200  21.803  0.00  0.00     0.089 H 
BRANCH  71  73
ATOM     73  CB  PSI d   1      -5.589  17.486  20.437  0.00  0.00    -0.032 C 
ATOM     74  H39 PSI d   1      -5.427  16.558  19.870  0.00  0.00     0.042 H 
BRANCH  73  75
ATOM     75  CG2 PSI d   1      -4.672  18.535  19.802  0.00  0.00    -0.071 C 
ATOM     76  H43 PSI d   1      -3.622  18.260  19.979  0.00  0.00     0.028 H 
ATOM     77  H44 PSI d   1      -4.874  19.519  20.251  0.00  0.00     0.028 H 
ATOM     78  H45 PSI d   1      -4.861  18.580  18.719  0.00  0.00     0.028 H 
ENDBRANCH  73  75
BRANCH  73  79
ATOM     79  CG1 PSI d   1      -7.059  17.853  20.200  0.00  0.00    -0.071 C 
ATOM     80  H40 PSI d   1      -7.213  18.079  19.134  0.00  0.00     0.028 H 
ATOM     81  H41 PSI d   1      -7.318  18.736  20.803  0.00  0.00     0.028 H 
ATOM     82  H42 PSI d   1      -7.700  17.008  20.492  0.00  0.00     0.028 H 
ENDBRANCH  73  79
ENDBRANCH  71  73
BRANCH  71  83
ATOM     83  C   PSI d   1      -4.253  18.199  22.473  0.00  0.00     0.281 C 
ATOM     84  O   PSI d   1      -4.434  18.654  23.600  0.00  0.00    -0.263 OA
BRANCH  83  85
ATOM     85  O   PSI d   1      -3.172  18.600  21.652  0.00  0.00    -0.325 OA
BRANCH  85  86
ATOM     86  CM  PSI d   1      -3.563  18.447  20.278  0.00  0.00     0.013 C 
ATOM     87  H46 PSI d   1      -2.733  18.755  19.624  0.00  0.00     0.067 H 
ATOM     88  H47 PSI d   1      -4.442  19.076  20.075  0.00  0.00     0.067 H 
ATOM     89  H48 PSI d   1      -3.812  17.394  20.083  0.00  0.00     0.067 H 
ENDBRANCH  85  86
ENDBRANCH  83  85
ENDBRANCH  71  83
ENDBRANCH  69  71
ENDBRANCH  55  67
ENDBRANCH  53  55
ENDBRANCH  48  51
ENDBRANCH   1  48
TORSDOF 26
