REMARK  12 active torsions:
REMARK  status: ('A' for Active; 'I' for Inactive)
REMARK    1  A    between atoms: C2_2  and  C1_1 
REMARK    2  A    between atoms: C2_2  and  O2_16 
REMARK    3  A    between atoms: C4_4  and  O4_17 
REMARK    4  A    between atoms: N5_13  and  C5_5 
REMARK    5  A    between atoms: C6_6  and  C7_7 
REMARK    6  A    between atoms: C7_7  and  C8_8 
REMARK    7  A    between atoms: C7_7  and  O7_19 
REMARK    8  A    between atoms: C8_8  and  C9_9 
REMARK    9  A    between atoms: C8_8  and  O8_20 
REMARK   10  A    between atoms: C9_9  and  O9_21 
REMARK   11  A    between atoms: C10_10  and  C11_11 
REMARK       I    between atoms: C10_10  and  N5_13 
REMARK   12  A    between atoms: O2_16  and  C12_12 
ROOT
ATOM      1  C2  MNA d   1      -8.176  73.221  27.717  0.00  0.00     0.258 C 
ATOM      2  C3  MNA d   1      -8.123  74.380  28.734  0.00  0.00     0.023 C 
ATOM      3  C4  MNA d   1      -6.700  74.940  28.876  0.00  0.00     0.063 C 
ATOM      4  C5  MNA d   1      -6.183  75.401  27.500  0.00  0.00     0.064 C 
ATOM      5  C6  MNA d   1      -6.272  74.198  26.539  0.00  0.00     0.091 C 
ATOM      6  O6  MNA d   1      -7.580  73.670  26.503  0.00  0.00    -0.336 OA
ATOM      7  H1  MNA d   1      -8.461  74.012  29.714  0.00  0.00     0.045 H 
ATOM      8  H2  MNA d   1      -8.791  75.185  28.394  0.00  0.00     0.045 H 
ATOM      9  H3  MNA d   1      -6.051  74.133  29.245  0.00  0.00     0.086 H 
ATOM     10  H4  MNA d   1      -6.796  76.227  27.109  0.00  0.00     0.080 H 
ATOM     11  H5  MNA d   1      -5.572  73.434  26.909  0.00  0.00     0.090 H 
ENDROOT
BRANCH   5  12
ATOM     12  C7  MNA d   1      -5.965  74.473  25.095  0.00  0.00     0.089 C 
ATOM     13  H6  MNA d   1      -4.947  74.878  24.997  0.00  0.00     0.091 H 
BRANCH  12  14
ATOM     14  C8  MNA d   1      -6.099  73.209  24.218  0.00  0.00     0.083 C 
ATOM     15  H7  MNA d   1      -7.156  72.906  24.198  0.00  0.00     0.090 H 
BRANCH  14  16
ATOM     16  C9  MNA d   1      -5.630  73.489  22.796  0.00  0.00     0.043 C 
ATOM     17  H8  MNA d   1      -4.698  74.072  22.814  0.00  0.00     0.078 H 
ATOM     18  H9  MNA d   1      -6.402  74.048  22.247  0.00  0.00     0.078 H 
BRANCH  16  19
ATOM     19  O9  MNA d   1      -5.408  72.242  22.181  0.00  0.00    -0.398 OA
ATOM     20  H20 MNA d   1      -4.745  71.765  22.665  0.00  0.00     0.209 HD
ENDBRANCH  16  19
ENDBRANCH  14  16
BRANCH  14  21
ATOM     21  O8  MNA d   1      -5.326  72.151  24.732  0.00  0.00    -0.391 OA
ATOM     22  H19 MNA d   1      -5.445  71.380  24.189  0.00  0.00     0.210 HD
ENDBRANCH  14  21
ENDBRANCH  12  14
BRANCH  12  23
ATOM     23  O7  MNA d   1      -6.921  75.423  24.680  0.00  0.00    -0.390 OA
ATOM     24  H18 MNA d   1      -7.792  75.057  24.776  0.00  0.00     0.210 HD
ENDBRANCH  12  23
ENDBRANCH   5  12
BRANCH   4  25
ATOM     25  N5  MNA d   1      -4.819  75.861  27.713  0.00  0.00    -0.352 N 
ATOM     26  C10 MNA d   1      -4.257  76.785  26.946  0.00  0.00     0.214 C 
ATOM     27  O10 MNA d   1      -4.870  77.242  25.981  0.00  0.00    -0.274 OA
ATOM     28  H16 MNA d   1      -4.288  75.467  28.463  0.00  0.00     0.163 HD
BRANCH  26  29
ATOM     29  C11 MNA d   1      -2.827  77.233  27.240  0.00  0.00    -0.003 C 
ATOM     30  H10 MNA d   1      -2.525  77.999  26.510  0.00  0.00     0.040 H 
ATOM     31  H11 MNA d   1      -2.150  76.369  27.166  0.00  0.00     0.040 H 
ATOM     32  H12 MNA d   1      -2.776  77.654  28.255  0.00  0.00     0.040 H 
ENDBRANCH  26  29
ENDBRANCH   4  25
BRANCH   3  33
ATOM     33  O4  MNA d   1      -6.626  76.034  29.805  0.00  0.00    -0.393 OA
ATOM     34  H17 MNA d   1      -6.945  75.750  30.654  0.00  0.00     0.210 HD
ENDBRANCH   3  33
BRANCH   1  35
ATOM     35  C1  MNA d   1      -7.497  71.952  28.268  0.00  0.00     0.239 C 
ATOM     36  O1A MNA d   1      -7.821  71.523  29.376  0.00  0.00    -0.644 OA
ATOM     37  O1B MNA d   1      -6.660  71.362  27.595  0.00  0.00    -0.644 OA
ENDBRANCH   1  35
BRANCH   1  38
ATOM     38  O2  MNA d   1      -9.539  72.888  27.454  0.00  0.00    -0.351 OA
BRANCH  38  39
ATOM     39  C12 MNA d   1      -9.748  71.828  26.486  0.00  0.00     0.008 C 
ATOM     40  H13 MNA d   1     -10.827  71.654  26.360  0.00  0.00     0.066 H 
ATOM     41  H14 MNA d   1      -9.267  70.905  26.843  0.00  0.00     0.066 H 
ATOM     42  H15 MNA d   1      -9.309  72.121  25.521  0.00  0.00     0.066 H 
ENDBRANCH  38  39
ENDBRANCH   1  38
TORSDOF 12
