REMARK  14 active torsions:
REMARK  status: ('A' for Active; 'I' for Inactive)
REMARK    1  A    between atoms: C2_2  and  C1_1 
REMARK    2  A    between atoms: C2_2  and  O2_18 
REMARK    3  A    between atoms: O4_19  and  C4_4 
REMARK    4  A    between atoms: C5_5  and  N5_15 
REMARK    5  A    between atoms: C6_6  and  C7_7 
REMARK    6  A    between atoms: C7_7  and  C8_8 
REMARK    7  A    between atoms: C7_7  and  O7_21 
REMARK    8  A    between atoms: C8_8  and  C9_9 
REMARK    9  A    between atoms: C8_8  and  O8_22 
REMARK   10  A    between atoms: C9_9  and  O9_23 
REMARK   11  A    between atoms: C10_10  and  C11_11 
REMARK       I    between atoms: N5_15  and  C10_10 
REMARK   12  A    between atoms: O2_18  and  C12_12 
REMARK   13  A    between atoms: CA4_13  and  CM4_14 
REMARK   14  A    between atoms: CA4_13  and  O4_19 
ROOT
ATOM      1  C2  ANA d   1      -8.237  72.902  27.656  0.00  0.00     0.258 C 
ATOM      2  C3  ANA d   1      -8.179  74.010  28.711  0.00  0.00     0.024 C 
ATOM      3  C4  ANA d   1      -6.769  74.555  28.837  0.00  0.00     0.075 C 
ATOM      4  C5  ANA d   1      -6.319  75.086  27.481  0.00  0.00     0.065 C 
ATOM      5  C6  ANA d   1      -6.341  73.955  26.460  0.00  0.00     0.091 C 
ATOM      6  O6  ANA d   1      -7.660  73.402  26.429  0.00  0.00    -0.336 OA
ATOM      7  H1  ANA d   1      -8.497  73.602  29.682  0.00  0.00     0.045 H 
ATOM      8  H2  ANA d   1      -8.857  74.825  28.417  0.00  0.00     0.045 H 
ATOM      9  H3  ANA d   1      -6.117  73.715  29.118  0.00  0.00     0.087 H 
ATOM     10  H4  ANA d   1      -6.983  75.897  27.147  0.00  0.00     0.080 H 
ATOM     11  H5  ANA d   1      -5.634  73.185  26.803  0.00  0.00     0.090 H 
ENDROOT
BRANCH   5  12
ATOM     12  C7  ANA d   1      -5.957  74.330  25.033  0.00  0.00     0.089 C 
ATOM     13  H6  ANA d   1      -4.904  74.646  25.015  0.00  0.00     0.091 H 
BRANCH  12  14
ATOM     14  C8  ANA d   1      -6.131  73.111  24.108  0.00  0.00     0.083 C 
ATOM     15  H7  ANA d   1      -7.205  72.904  23.989  0.00  0.00     0.090 H 
BRANCH  14  16
ATOM     16  C9  ANA d   1      -5.528  73.409  22.738  0.00  0.00     0.043 C 
ATOM     17  H8  ANA d   1      -4.531  73.852  22.875  0.00  0.00     0.078 H 
ATOM     18  H9  ANA d   1      -6.177  74.122  22.209  0.00  0.00     0.078 H 
BRANCH  16  19
ATOM     19  O9  ANA d   1      -5.407  72.235  21.963  0.00  0.00    -0.398 OA
ATOM     20  H22 ANA d   1      -4.844  71.616  22.413  0.00  0.00     0.209 HD
ENDBRANCH  16  19
ENDBRANCH  14  16
BRANCH  14  21
ATOM     21  O8  ANA d   1      -5.509  71.982  24.668  0.00  0.00    -0.391 OA
ATOM     22  H21 ANA d   1      -5.889  71.802  25.520  0.00  0.00     0.210 HD
ENDBRANCH  14  21
ENDBRANCH  12  14
BRANCH  12  23
ATOM     23  O7  ANA d   1      -6.766  75.399  24.589  0.00  0.00    -0.390 OA
ATOM     24  H20 ANA d   1      -6.650  76.144  25.167  0.00  0.00     0.210 HD
ENDBRANCH  12  23
ENDBRANCH   5  12
BRANCH   4  25
ATOM     25  N5  ANA d   1      -4.968  75.586  27.660  0.00  0.00    -0.352 N 
ATOM     26  C10 ANA d   1      -4.495  76.639  27.028  0.00  0.00     0.214 C 
ATOM     27  O10 ANA d   1      -5.220  77.238  26.237  0.00  0.00    -0.274 OA
ATOM     28  H19 ANA d   1      -4.365  75.105  28.297  0.00  0.00     0.163 HD
BRANCH  26  29
ATOM     29  C11 ANA d   1      -3.049  77.041  27.265  0.00  0.00    -0.003 C 
ATOM     30  H10 ANA d   1      -2.814  77.934  26.667  0.00  0.00     0.040 H 
ATOM     31  H11 ANA d   1      -2.385  76.215  26.968  0.00  0.00     0.040 H 
ATOM     32  H12 ANA d   1      -2.901  77.265  28.332  0.00  0.00     0.040 H 
ENDBRANCH  26  29
ENDBRANCH   4  25
BRANCH   3  33
ATOM     33  O4  ANA d   1      -6.593  75.593  29.838  0.00  0.00    -0.314 OA
BRANCH  33  34
ATOM     34  CA4 ANA d   1      -6.808  75.206  31.197  0.00  0.00     0.255 C 
ATOM     35  OA4 ANA d   1      -6.056  74.407  31.754  0.00  0.00    -0.266 OA
BRANCH  34  36
ATOM     36  CM4 ANA d   1      -8.034  75.695  31.928  0.00  0.00     0.004 C 
ATOM     37  H16 ANA d   1      -8.031  75.299  32.954  0.00  0.00     0.041 H 
ATOM     38  H17 ANA d   1      -8.937  75.348  31.404  0.00  0.00     0.041 H 
ATOM     39  H18 ANA d   1      -8.028  76.794  31.959  0.00  0.00     0.041 H 
ENDBRANCH  34  36
ENDBRANCH  33  34
ENDBRANCH   3  33
BRANCH   1  40
ATOM     40  C1  ANA d   1      -7.514  71.635  28.139  0.00  0.00     0.239 C 
ATOM     41  O1A ANA d   1      -7.814  71.128  29.219  0.00  0.00    -0.644 OA
ATOM     42  O1B ANA d   1      -6.628  71.139  27.457  0.00  0.00    -0.644 OA
ENDBRANCH   1  40
BRANCH   1  43
ATOM     43  O2  ANA d   1      -9.608  72.555  27.461  0.00  0.00    -0.351 OA
BRANCH  43  44
ATOM     44  C12 ANA d   1      -9.862  71.539  26.467  0.00  0.00     0.008 C 
ATOM     45  H13 ANA d   1     -10.944  71.353  26.401  0.00  0.00     0.066 H 
ATOM     46  H14 ANA d   1      -9.347  70.610  26.752  0.00  0.00     0.066 H 
ATOM     47  H15 ANA d   1      -9.489  71.880  25.490  0.00  0.00     0.066 H 
ENDBRANCH  43  44
ENDBRANCH   1  43
TORSDOF 14
