REMARK  12 active torsions:
REMARK  status: ('A' for Active; 'I' for Inactive)
REMARK    1  A    between atoms: C2_2  and  C1_1 
REMARK    2  A    between atoms: C2_2  and  O2_17 
REMARK    3  A    between atoms: C4_4  and  O4_18 
REMARK    4  A    between atoms: N5_13  and  C5_5 
REMARK    5  A    between atoms: C6_6  and  C7_7 
REMARK    6  A    between atoms: C7_7  and  C8_8 
REMARK    7  A    between atoms: C7_7  and  O7_20 
REMARK    8  A    between atoms: C8_8  and  C9_9 
REMARK    9  A    between atoms: C8_8  and  O8_21 
REMARK   10  A    between atoms: C9_9  and  N9_14 
REMARK   11  A    between atoms: C10_10  and  C11_11 
REMARK       I    between atoms: C10_10  and  N5_13 
REMARK   12  A    between atoms: O2_17  and  C12_12 
ROOT
ATOM      1  C2  AMN d   1      -8.263  73.676  28.284  0.00  0.00     0.258 C 
ATOM      2  C3  AMN d   1      -8.070  74.811  29.320  0.00  0.00     0.023 C 
ATOM      3  C4  AMN d   1      -6.627  75.297  29.375  0.00  0.00     0.063 C 
ATOM      4  C5  AMN d   1      -6.193  75.722  27.949  0.00  0.00     0.064 C 
ATOM      5  C6  AMN d   1      -6.340  74.517  27.018  0.00  0.00     0.091 C 
ATOM      6  O6  AMN d   1      -7.687  74.081  27.033  0.00  0.00    -0.336 OA
ATOM      7  H1  AMN d   1      -8.356  74.437  30.314  0.00  0.00     0.045 H 
ATOM      8  H2  AMN d   1      -8.719  75.656  29.046  0.00  0.00     0.045 H 
ATOM      9  H3  AMN d   1      -5.996  74.455  29.696  0.00  0.00     0.086 H 
ATOM     10  H4  AMN d   1      -6.823  76.546  27.583  0.00  0.00     0.080 H 
ATOM     11  H5  AMN d   1      -5.697  73.724  27.428  0.00  0.00     0.090 H 
ENDROOT
BRANCH   5  12
ATOM     12  C7  AMN d   1      -5.979  74.675  25.545  0.00  0.00     0.089 C 
ATOM     13  H6  AMN d   1      -4.890  74.801  25.451  0.00  0.00     0.091 H 
BRANCH  12  14
ATOM     14  C8  AMN d   1      -6.419  73.436  24.748  0.00  0.00     0.085 C 
ATOM     15  H7  AMN d   1      -7.516  73.376  24.809  0.00  0.00     0.089 H 
BRANCH  14  16
ATOM     16  C9  AMN d   1      -6.019  73.548  23.283  0.00  0.00     0.105 C 
ATOM     17  H8  AMN d   1      -4.970  73.864  23.183  0.00  0.00     0.079 H 
ATOM     18  H9  AMN d   1      -6.668  74.258  22.750  0.00  0.00     0.079 H 
BRANCH  16  19
ATOM     19  N9  AMN d   1      -6.210  72.169  22.775  0.00  0.00    -0.077 N 
ATOM     20  H17 AMN d   1      -5.968  72.135  21.797  0.00  0.00     0.274 HD
ATOM     21  H18 AMN d   1      -7.174  71.898  22.893  0.00  0.00     0.274 HD
ATOM     22  H19 AMN d   1      -5.618  71.536  23.290  0.00  0.00     0.274 HD
ENDBRANCH  16  19
ENDBRANCH  14  16
BRANCH  14  23
ATOM     23  O8  AMN d   1      -5.888  72.238  25.244  0.00  0.00    -0.391 OA
ATOM     24  H22 AMN d   1      -6.124  72.143  26.159  0.00  0.00     0.210 HD
ENDBRANCH  14  23
ENDBRANCH  12  14
BRANCH  12  25
ATOM     25  O7  AMN d   1      -6.631  75.809  25.020  0.00  0.00    -0.390 OA
ATOM     26  H21 AMN d   1      -6.365  76.580  25.507  0.00  0.00     0.210 HD
ENDBRANCH  12  25
ENDBRANCH   5  12
BRANCH   4  27
ATOM     27  N5  AMN d   1      -4.815  76.166  28.056  0.00  0.00    -0.352 N 
ATOM     28  C10 AMN d   1      -4.342  77.220  27.408  0.00  0.00     0.214 C 
ATOM     29  O10 AMN d   1      -5.029  77.779  26.558  0.00  0.00    -0.274 OA
ATOM     30  H16 AMN d   1      -4.193  75.652  28.647  0.00  0.00     0.163 HD
BRANCH  28  31
ATOM     31  C11 AMN d   1      -2.915  77.660  27.703  0.00  0.00    -0.003 C 
ATOM     32  H10 AMN d   1      -2.669  78.541  27.092  0.00  0.00     0.040 H 
ATOM     33  H11 AMN d   1      -2.221  76.841  27.461  0.00  0.00     0.040 H 
ATOM     34  H12 AMN d   1      -2.823  77.915  28.769  0.00  0.00     0.040 H 
ENDBRANCH  28  31
ENDBRANCH   4  27
BRANCH   3  35
ATOM     35  O4  AMN d   1      -6.427  76.369  30.305  0.00  0.00    -0.393 OA
ATOM     36  H20 AMN d   1      -6.698  76.090  31.172  0.00  0.00     0.210 HD
ENDBRANCH   3  35
BRANCH   1  37
ATOM     37  C1  AMN d   1      -7.626  72.368  28.804  0.00  0.00     0.239 C 
ATOM     38  O1A AMN d   1      -7.853  72.031  29.960  0.00  0.00    -0.644 OA
ATOM     39  O1B AMN d   1      -6.896  71.675  28.082  0.00  0.00    -0.644 OA
ENDBRANCH   1  37
BRANCH   1  40
ATOM     40  O2  AMN d   1      -9.663  73.430  28.086  0.00  0.00    -0.351 OA
BRANCH  40  41
ATOM     41  C12 AMN d   1      -9.992  72.418  27.115  0.00  0.00     0.008 C 
ATOM     42  H13 AMN d   1     -11.085  72.316  27.048  0.00  0.00     0.066 H 
ATOM     43  H14 AMN d   1      -9.553  71.458  27.423  0.00  0.00     0.066 H 
ATOM     44  H15 AMN d   1      -9.590  72.707  26.133  0.00  0.00     0.066 H 
ENDBRANCH  40  41
ENDBRANCH   1  40
TORSDOF 12
