REMARK WARNING: 32 MAX_TORS EXCEEDED!!!
REMARK  46 active torsions:
REMARK  status: ('A' for Active; 'I' for Inactive)
REMARK    1  A    between atoms: N_1  and  CA_2 
REMARK    2  A    between atoms: CA_2  and  C_3 
REMARK    3  A    between atoms: CA_2  and  CB_5 
REMARK       I    between atoms: C_3  and  N_9 
REMARK    4  A    between atoms: CB_5  and  CG_6 
REMARK    5  A    between atoms: N_9  and  CA_10 
REMARK    6  A    between atoms: CA_10  and  C_11 
REMARK    7  A    between atoms: CA_10  and  CB_13 
REMARK       I    between atoms: C_11  and  N_20 
REMARK    8  A    between atoms: CB_13  and  CG_14 
REMARK    9  A    between atoms: N_20  and  CA_21 
REMARK   10  A    between atoms: CA_21  and  C_22 
REMARK   11  A    between atoms: CA_21  and  CB_24 
REMARK       I    between atoms: C_22  and  N_29 
REMARK   12  A    between atoms: CB_24  and  CG_25 
REMARK   13  A    between atoms: CG_25  and  CD_26 
REMARK   14  A    between atoms: N_29  and  CA_30 
REMARK   15  A    between atoms: CA_30  and  C_31 
REMARK   16  A    between atoms: CA_30  and  CB_33 
REMARK       I    between atoms: C_31  and  N_38 
REMARK   17  A    between atoms: CB_33  and  CG_34 
REMARK   18  A    between atoms: CG_34  and  CD_35 
REMARK   19  A    between atoms: N_38  and  CA_39 
REMARK   20  A    between atoms: CA_39  and  C_40 
REMARK   21  A    between atoms: CA_39  and  CB_42 
REMARK       I    between atoms: C_40  and  N_46 
REMARK   22  A    between atoms: CB_42  and  CG1_43 
REMARK   23  A    between atoms: CB_42  and  CG2_44 
REMARK   24  A    between atoms: CG1_43  and  CD1_45 
REMARK   25  A    between atoms: CA_47  and  C_48 
REMARK       I    between atoms: C_48  and  N_53 
REMARK   26  A    between atoms: N_53  and  CA_54 
REMARK   27  A    between atoms: CA_54  and  C_55 
REMARK   28  A    between atoms: CA_54  and  CB_57 
REMARK       I    between atoms: C_55  and  N_62 
REMARK   29  A    between atoms: CB_57  and  CG_58 
REMARK   30  A    between atoms: CG_58  and  CD_59 
REMARK   31  A    between atoms: N_62  and  CA_63 
REMARK   32  A    between atoms: CA_63  and  C_64 
REMARK   33  A    between atoms: CA_63  and  CB_66 
REMARK       I    between atoms: C_64  and  N_71 
REMARK   34  A    between atoms: CB_66  and  CG_67 
REMARK   35  A    between atoms: CG_67  and  CD_68 
REMARK   36  A    between atoms: N_71  and  CA_72 
REMARK   37  A    between atoms: CA_72  and  C_73 
REMARK   38  A    between atoms: CA_72  and  CB_75 
REMARK       I    between atoms: C_73  and  N_83 
REMARK   39  A    between atoms: CB_75  and  CG_76 
REMARK   40  A    between atoms: CZ_81  and  OH_82 
REMARK   41  A    between atoms: N_83  and  CA_84 
REMARK   42  A    between atoms: CA_84  and  C_85 
REMARK   43  A    between atoms: CA_84  and  CB_87 
REMARK   44  A    between atoms: CB_87  and  CG_88 
REMARK   45  A    between atoms: CG_88  and  CD1_89 
REMARK   46  A    between atoms: CG_88  and  CD2_90 
ROOT
ATOM      1  C   ILE d   1      11.091  -1.557  -4.660  0.00  0.00     0.243 C 
ATOM      2  O   ILE d   1      11.804  -2.397  -5.227  0.00  0.00    -0.271 OA
ATOM      3  N   PRO d   1      10.993  -0.290  -5.004  0.00  0.00    -0.337 N 
ATOM      4  CA  PRO d   1      11.762   0.292  -6.110  0.00  0.00     0.091 A 
ATOM      5  CB  PRO d   1      11.396   1.763  -6.062  0.00  0.00    -0.036 A 
ATOM      6  CG  PRO d   1      10.417   2.018  -4.978  0.00  0.00    -0.048 A 
ATOM      7  CD  PRO d   1      10.150   0.700  -4.289  0.00  0.00    -0.001 A 
ATOM      8  H39 PRO d   1      11.449  -0.146  -7.069  0.00  0.00     0.087 H 
ATOM      9  H40 PRO d   1      10.955   2.058  -7.025  0.00  0.00     0.036 H 
ATOM     10  H41 PRO d   1      12.304   2.356  -5.877  0.00  0.00     0.036 H 
ATOM     11  H42 PRO d   1       9.483   2.417  -5.401  0.00  0.00     0.035 H 
ATOM     12  H43 PRO d   1      10.832   2.740  -4.260  0.00  0.00     0.035 H 
ATOM     13  H44 PRO d   1      10.435   0.755  -3.228  0.00  0.00     0.064 H 
ATOM     14  H45 PRO d   1       9.086   0.431  -4.370  0.00  0.00     0.064 H 
ENDROOT
BRANCH   1  15
ATOM     15  CA  ILE d   1      10.302  -1.992  -3.428  0.00  0.00     0.092 C 
ATOM     16  H29 ILE d   1       9.354  -1.436  -3.374  0.00  0.00     0.088 H 
BRANCH  15  17
ATOM     17  N   ILE d   1      10.035  -3.435  -3.553  0.00  0.00    -0.346 N 
ATOM     18  C   GLU d   1       8.811  -3.861  -3.753  0.00  0.00     0.241 C 
ATOM     19  O   GLU d   1       7.779  -3.139  -3.827  0.00  0.00    -0.271 OA
ATOM     20  H28 ILE d   1      10.787  -4.090  -3.485  0.00  0.00     0.163 HD
BRANCH  18  21
ATOM     21  CA  GLU d   1       8.699  -5.385  -3.882  0.00  0.00     0.090 C 
ATOM     22  H23 GLU d   1       9.465  -5.889  -3.275  0.00  0.00     0.087 H 
BRANCH  21  23
ATOM     23  N   GLU d   1       7.337  -5.727  -3.387  0.00  0.00    -0.346 N 
ATOM     24  C   GLU d   1       7.120  -6.275  -2.235  0.00  0.00     0.241 C 
ATOM     25  O   GLU d   1       8.050  -6.546  -1.438  0.00  0.00    -0.271 OA
ATOM     26  H22 GLU d   1       6.553  -5.524  -3.973  0.00  0.00     0.163 HD
BRANCH  24  27
ATOM     27  CA  GLU d   1       5.679  -6.603  -1.793  0.00  0.00     0.090 C 
ATOM     28  H17 GLU d   1       5.174  -7.300  -2.478  0.00  0.00     0.087 H 
BRANCH  27  29
ATOM     29  N   GLU d   1       5.918  -7.244  -0.459  0.00  0.00    -0.346 N 
ATOM     30  C   PHE d   1       6.341  -8.502  -0.407  0.00  0.00     0.241 C 
ATOM     31  O   PHE d   1       6.451  -9.227  -1.416  0.00  0.00    -0.271 OA
ATOM     32  H16 GLU d   1       5.760  -6.729   0.384  0.00  0.00     0.163 HD
BRANCH  30  33
ATOM     33  CA  PHE d   1       6.658  -9.074   0.976  0.00  0.00     0.093 C 
ATOM     34  H8  PHE d   1       6.066  -8.526   1.724  0.00  0.00     0.088 H 
BRANCH  33  35
ATOM     35  N   PHE d   1       6.245 -10.499   0.991  0.00  0.00    -0.346 N 
ATOM     36  C   ASP d   1       4.967 -10.773   0.789  0.00  0.00     0.249 C 
ATOM     37  O   ASP d   1       4.074  -9.902   0.602  0.00  0.00    -0.271 OA
ATOM     38  H7  PHE d   1       6.911 -11.228   1.149  0.00  0.00     0.163 HD
BRANCH  36  39
ATOM     39  CA  ASP d   1       4.580 -12.259   0.775  0.00  0.00     0.185 C 
ATOM     40  H4  ASP d   1       3.502 -12.295   0.561  0.00  0.00     0.100 H 
BRANCH  39  41
ATOM     41  N   ASP d   1       5.261 -12.960  -0.336  0.00  0.00    -0.066 N 
ATOM     42  H1  ASP d   1       4.997 -13.933  -0.332  0.00  0.00     0.275 HD
ATOM     43  H2  ASP d   1       6.259 -12.882  -0.221  0.00  0.00     0.275 HD
ATOM     44  H3  ASP d   1       4.991 -12.543  -1.213  0.00  0.00     0.275 HD
ENDBRANCH  39  41
BRANCH  39  45
ATOM     45  CB  ASP d   1       4.767 -12.977   2.095  0.00  0.00     0.050 C 
ATOM     46  H5  ASP d   1       5.811 -13.319   2.154  0.00  0.00     0.052 H 
ATOM     47  H6  ASP d   1       4.094 -13.847   2.110  0.00  0.00     0.052 H 
BRANCH  45  48
ATOM     48  CG  ASP d   1       4.475 -12.130   3.327  0.00  0.00     0.175 C 
ATOM     49  OD1 ASP d   1       3.258 -11.939   3.591  0.00  0.00    -0.648 OA
ATOM     50  OD2 ASP d   1       5.433 -11.695   4.009  0.00  0.00    -0.648 OA
ENDBRANCH  45  48
ENDBRANCH  39  45
ENDBRANCH  36  39
ENDBRANCH  33  35
BRANCH  33  51
ATOM     51  CB  PHE d   1       8.137  -8.924   1.343  0.00  0.00    -0.014 C 
ATOM     52  H9  PHE d   1       8.572  -8.110   0.745  0.00  0.00     0.043 H 
ATOM     53  H10 PHE d   1       8.659  -9.866   1.116  0.00  0.00     0.043 H 
BRANCH  51  54
ATOM     54  CG  PHE d   1       8.316  -8.607   2.802  0.00  0.00    -0.056 A 
ATOM     55  CD1 PHE d   1       8.151  -7.302   3.256  0.00  0.00    -0.077 A 
ATOM     56  CE1 PHE d   1       8.278  -7.013   4.623  0.00  0.00    -0.082 A 
ATOM     57  H11 PHE d   1       7.924  -6.508   2.553  0.00  0.00     0.084 H 
ATOM     58  CZ  PHE d   1       8.546  -8.070   5.513  0.00  0.00    -0.083 A 
ATOM     59  H13 PHE d   1       8.172  -5.997   4.986  0.00  0.00     0.083 H 
ATOM     60  CE2 PHE d   1       8.677  -9.373   5.059  0.00  0.00    -0.082 A 
ATOM     61  H15 PHE d   1       8.652  -7.861   6.572  0.00  0.00     0.083 H 
ATOM     62  CD2 PHE d   1       8.568  -9.642   3.707  0.00  0.00    -0.077 A 
ATOM     63  H14 PHE d   1       8.864 -10.178   5.761  0.00  0.00     0.083 H 
ATOM     64  H12 PHE d   1       8.678 -10.659   3.348  0.00  0.00     0.084 H 
ENDBRANCH  51  54
ENDBRANCH  33  51
ENDBRANCH  30  33
ENDBRANCH  27  29
BRANCH  27  65
ATOM     65  CB  GLU d   1       4.945  -5.323  -1.750  0.00  0.00    -0.029 C 
ATOM     66  H18 GLU d   1       5.613  -4.583  -2.215  0.00  0.00     0.037 H 
ATOM     67  H19 GLU d   1       4.823  -5.087  -0.682  0.00  0.00     0.037 H 
BRANCH  65  68
ATOM     68  CG  GLU d   1       3.606  -5.098  -2.366  0.00  0.00     0.018 C 
ATOM     69  H20 GLU d   1       2.860  -5.678  -1.802  0.00  0.00     0.049 H 
ATOM     70  H21 GLU d   1       3.636  -5.453  -3.407  0.00  0.00     0.049 H 
BRANCH  68  71
ATOM     71  CD  GLU d   1       3.186  -3.650  -2.366  0.00  0.00     0.172 C 
ATOM     72  OE1 GLU d   1       3.866  -2.901  -3.099  0.00  0.00    -0.648 OA
ATOM     73  OE2 GLU d   1       2.301  -3.221  -1.668  0.00  0.00    -0.648 OA
ENDBRANCH  68  71
ENDBRANCH  65  68
ENDBRANCH  27  65
ENDBRANCH  24  27
ENDBRANCH  21  23
BRANCH  21  74
ATOM     74  CB  GLU d   1       8.871  -5.760  -5.340  0.00  0.00    -0.029 C 
ATOM     75  H24 GLU d   1       9.054  -6.844  -5.381  0.00  0.00     0.037 H 
ATOM     76  H25 GLU d   1       9.756  -5.224  -5.715  0.00  0.00     0.037 H 
BRANCH  74  77
ATOM     77  CG  GLU d   1       7.717  -5.456  -6.291  0.00  0.00     0.018 C 
ATOM     78  H26 GLU d   1       8.102  -5.528  -7.319  0.00  0.00     0.049 H 
ATOM     79  H27 GLU d   1       7.384  -4.426  -6.096  0.00  0.00     0.049 H 
BRANCH  77  80
ATOM     80  CD  GLU d   1       6.518  -6.350  -6.189  0.00  0.00     0.172 C 
ATOM     81  OE1 GLU d   1       6.570  -7.548  -5.969  0.00  0.00    -0.648 OA
ATOM     82  OE2 GLU d   1       5.447  -5.728  -6.361  0.00  0.00    -0.648 OA
ENDBRANCH  77  80
ENDBRANCH  74  77
ENDBRANCH  21  74
ENDBRANCH  18  21
ENDBRANCH  15  17
BRANCH  15  83
ATOM     83  CB  ILE d   1      11.142  -1.727  -2.129  0.00  0.00    -0.030 C 
ATOM     84  H30 ILE d   1      11.046  -0.652  -1.917  0.00  0.00     0.043 H 
BRANCH  83  85
ATOM     85  CG1 ILE d   1      12.653  -2.000  -2.457  0.00  0.00    -0.063 C 
ATOM     86  H31 ILE d   1      13.041  -1.168  -3.063  0.00  0.00     0.033 H 
ATOM     87  H32 ILE d   1      12.729  -2.937  -3.028  0.00  0.00     0.033 H 
BRANCH  85  88
ATOM     88  CD1 ILE d   1      13.512  -2.126  -1.171  0.00  0.00    -0.076 C 
ATOM     89  H36 ILE d   1      14.560  -2.316  -1.447  0.00  0.00     0.027 H 
ATOM     90  H37 ILE d   1      13.137  -2.960  -0.560  0.00  0.00     0.027 H 
ATOM     91  H38 ILE d   1      13.449  -1.191  -0.595  0.00  0.00     0.027 H 
ENDBRANCH  85  88
ENDBRANCH  83  85
BRANCH  83  92
ATOM     92  CG2 ILE d   1      10.685  -2.439  -0.844  0.00  0.00    -0.071 C 
ATOM     93  H33 ILE d   1       9.624  -2.217  -0.659  0.00  0.00     0.028 H 
ATOM     94  H34 ILE d   1      11.287  -2.084   0.006  0.00  0.00     0.028 H 
ATOM     95  H35 ILE d   1      10.817  -3.525  -0.960  0.00  0.00     0.028 H 
ENDBRANCH  83  92
ENDBRANCH  15  83
ENDBRANCH   1  15
BRANCH   4  96
ATOM     96  C   PRO d   1      13.266   0.051  -5.927  0.00  0.00     0.241 C 
ATOM     97  O   PRO d   1      13.809   0.230  -4.811  0.00  0.00    -0.271 OA
ATOM     98  N   GLU d   1      13.938  -0.396  -7.016  0.00  0.00    -0.346 N 
ATOM     99  H46 GLU d   1      13.470  -0.522  -7.891  0.00  0.00     0.163 HD
BRANCH  98 100
ATOM    100  CA  GLU d   1      15.383  -0.694  -6.878  0.00  0.00     0.090 C 
ATOM    101  H47 GLU d   1      15.488  -1.005  -5.828  0.00  0.00     0.087 H 
BRANCH 100 102
ATOM    102  C   GLU d   1      16.151   0.621  -6.996  0.00  0.00     0.241 C 
ATOM    103  O   GLU d   1      17.356   0.663  -7.242  0.00  0.00    -0.271 OA
ATOM    104  N   GLU d   1      15.321   1.653  -6.791  0.00  0.00    -0.346 N 
ATOM    105  H52 GLU d   1      14.335   1.520  -6.688  0.00  0.00     0.163 HD
BRANCH 104 106
ATOM    106  CA  GLU d   1      15.936   3.009  -6.724  0.00  0.00     0.090 C 
ATOM    107  H53 GLU d   1      16.632   3.189  -7.557  0.00  0.00     0.087 H 
BRANCH 106 108
ATOM    108  C   GLU d   1      16.625   2.912  -5.323  0.00  0.00     0.241 C 
ATOM    109  O   GLU d   1      17.549   3.617  -4.956  0.00  0.00    -0.271 OA
ATOM    110  N   TYS d   1      16.042   1.977  -4.589  0.00  0.00    -0.346 N 
ATOM    111  H58 TYS d   1      15.292   1.492  -5.039  0.00  0.00     0.163 HD
BRANCH 110 112
ATOM    112  CA  TYS d   1      16.323   1.550  -3.240  0.00  0.00     0.093 C 
ATOM    113  H59 TYS d   1      16.939   2.355  -2.812  0.00  0.00     0.088 H 
BRANCH 112 114
ATOM    114  C   TYS d   1      17.185   0.305  -3.155  0.00  0.00     0.241 C 
ATOM    115  O   TYS d   1      18.070   0.250  -2.279  0.00  0.00    -0.271 OA
ATOM    116  N   LEU d   1      16.809  -0.660  -3.990  0.00  0.00    -0.345 N 
ATOM    117  H67 LEU d   1      16.013  -0.561  -4.588  0.00  0.00     0.163 HD
BRANCH 116 118
ATOM    118  CA  LEU d   1      17.642  -1.901  -3.985  0.00  0.00     0.096 C 
ATOM    119  H68 LEU d   1      17.898  -2.207  -2.960  0.00  0.00     0.089 H 
BRANCH 118 120
ATOM    120  C   LEU d   1      18.886  -1.325  -4.683  0.00  0.00     0.196 C 
ATOM    121  O   LEU d   1      18.711  -0.092  -4.913  0.00  0.00    -0.646 OA
ATOM    122  OXT LEU d   1      19.811  -2.081  -4.905  0.00  0.00    -0.646 OA
ENDBRANCH 118 120
BRANCH 118 123
ATOM    123  CB  LEU d   1      16.920  -3.055  -4.629  0.00  0.00    -0.034 C 
ATOM    124  H69 LEU d   1      17.276  -3.984  -4.160  0.00  0.00     0.037 H 
ATOM    125  H70 LEU d   1      17.177  -3.063  -5.699  0.00  0.00     0.037 H 
BRANCH 123 126
ATOM    126  CG  LEU d   1      15.394  -3.019  -4.509  0.00  0.00    -0.059 C 
ATOM    127  H71 LEU d   1      15.050  -2.002  -4.750  0.00  0.00     0.038 H 
BRANCH 126 128
ATOM    128  CD1 LEU d   1      14.701  -3.972  -5.465  0.00  0.00    -0.073 C 
ATOM    129  H72 LEU d   1      13.612  -3.899  -5.330  0.00  0.00     0.028 H 
ATOM    130  H73 LEU d   1      15.028  -5.002  -5.258  0.00  0.00     0.028 H 
ATOM    131  H74 LEU d   1      14.961  -3.706  -6.500  0.00  0.00     0.028 H 
ENDBRANCH 126 128
BRANCH 126 132
ATOM    132  CD2 LEU d   1      15.052  -3.314  -3.056  0.00  0.00    -0.073 C 
ATOM    133  H75 LEU d   1      15.576  -2.600  -2.404  0.00  0.00     0.028 H 
ATOM    134  H76 LEU d   1      15.367  -4.338  -2.806  0.00  0.00     0.028 H 
ATOM    135  H77 LEU d   1      13.966  -3.217  -2.908  0.00  0.00     0.028 H 
ENDBRANCH 126 132
ENDBRANCH 123 126
ENDBRANCH 118 123
ENDBRANCH 116 118
ENDBRANCH 112 114
BRANCH 112 136
ATOM    136  CB  TYS d   1      15.108   1.474  -2.355  0.00  0.00    -0.014 C 
ATOM    137  H60 TYS d   1      15.439   1.170  -1.351  0.00  0.00     0.043 H 
ATOM    138  H61 TYS d   1      14.436   0.707  -2.767  0.00  0.00     0.043 H 
BRANCH 136 139
ATOM    139  CG  TYS d   1      14.311   2.770  -2.215  0.00  0.00    -0.056 A 
ATOM    140  CD1 TYS d   1      14.959   3.913  -1.724  0.00  0.00    -0.074 A 
ATOM    141  CE1 TYS d   1      14.288   5.133  -1.631  0.00  0.00    -0.051 A 
ATOM    142  H62 TYS d   1      15.995   3.848  -1.413  0.00  0.00     0.084 H 
ATOM    143  CZ  TYS d   1      12.982   5.151  -2.041  0.00  0.00     0.065 A 
ATOM    144  H64 TYS d   1      14.777   6.023  -1.252  0.00  0.00     0.087 H 
ATOM    145  CE2 TYS d   1      12.322   4.022  -2.520  0.00  0.00    -0.051 A 
ATOM    146  CD2 TYS d   1      12.999   2.825  -2.630  0.00  0.00    -0.074 A 
ATOM    147  H65 TYS d   1      11.278   4.084  -2.806  0.00  0.00     0.087 H 
ATOM    148  H63 TYS d   1      12.509   1.947  -3.034  0.00  0.00     0.084 H 
BRANCH 143 149
ATOM    149  OH  TYS d   1      12.199   6.270  -1.928  0.00  0.00    -0.361 OA
ATOM    150  H66 TYS d   1      12.723   6.990  -1.597  0.00  0.00     0.217 HD
ENDBRANCH 143 149
ENDBRANCH 136 139
ENDBRANCH 112 136
ENDBRANCH 110 112
ENDBRANCH 106 108
BRANCH 106 151
ATOM    151  CB  GLU d   1      14.939   4.152  -6.588  0.00  0.00    -0.029 C 
ATOM    152  H54 GLU d   1      14.334   4.179  -7.506  0.00  0.00     0.037 H 
ATOM    153  H55 GLU d   1      15.512   5.087  -6.498  0.00  0.00     0.037 H 
BRANCH 151 154
ATOM    154  CG  GLU d   1      13.983   4.079  -5.405  0.00  0.00     0.018 C 
ATOM    155  H56 GLU d   1      14.555   4.329  -4.499  0.00  0.00     0.049 H 
ATOM    156  H57 GLU d   1      13.619   3.043  -5.335  0.00  0.00     0.049 H 
BRANCH 154 157
ATOM    157  CD  GLU d   1      12.792   4.974  -5.448  0.00  0.00     0.172 C 
ATOM    158  OE1 GLU d   1      13.122   6.203  -5.530  0.00  0.00    -0.648 OA
ATOM    159  OE2 GLU d   1      11.633   4.567  -5.377  0.00  0.00    -0.648 OA
ENDBRANCH 154 157
ENDBRANCH 151 154
ENDBRANCH 106 151
ENDBRANCH 104 106
ENDBRANCH 100 102
BRANCH 100 160
ATOM    160  CB  GLU d   1      16.028  -1.812  -7.622  0.00  0.00    -0.029 C 
ATOM    161  H48 GLU d   1      16.071  -1.474  -8.668  0.00  0.00     0.037 H 
ATOM    162  H49 GLU d   1      15.328  -2.656  -7.538  0.00  0.00     0.037 H 
BRANCH 160 163
ATOM    163  CG  GLU d   1      17.389  -2.399  -7.340  0.00  0.00     0.018 C 
ATOM    164  H50 GLU d   1      17.215  -3.473  -7.177  0.00  0.00     0.049 H 
ATOM    165  H51 GLU d   1      17.718  -1.934  -6.399  0.00  0.00     0.049 H 
BRANCH 163 166
ATOM    166  CD  GLU d   1      18.560  -2.323  -8.246  0.00  0.00     0.172 C 
ATOM    167  OE1 GLU d   1      18.287  -2.040  -9.447  0.00  0.00    -0.648 OA
ATOM    168  OE2 GLU d   1      19.759  -2.518  -7.931  0.00  0.00    -0.648 OA
ENDBRANCH 163 166
ENDBRANCH 160 163
ENDBRANCH 100 160
ENDBRANCH  98 100
ENDBRANCH   4  96
TORSDOF 46
