REMARK  31 active torsions:
REMARK  status: ('A' for Active; 'I' for Inactive)
REMARK    1  A    between atoms: N_1  and  CA_2 
REMARK    2  A    between atoms: CA_2  and  C_3 
REMARK    3  A    between atoms: CA_2  and  CB_5 
REMARK       I    between atoms: C_3  and  N_13 
REMARK    4  A    between atoms: CB_5  and  CG_6 
REMARK    5  A    between atoms: CZ_11  and  OH_12 
REMARK    6  A    between atoms: N_13  and  CA_14 
REMARK    7  A    between atoms: CA_14  and  C_15 
REMARK    8  A    between atoms: CA_14  and  CB_17 
REMARK       I    between atoms: C_15  and  N_21 
REMARK    9  A    between atoms: CB_17  and  CG_18 
REMARK   10  A    between atoms: N_21  and  CA_22 
REMARK   11  A    between atoms: CA_22  and  C_23 
REMARK   12  A    between atoms: CA_22  and  CB_25 
REMARK       I    between atoms: C_23  and  N_28 
REMARK   13  A    between atoms: CB_25  and  CG1_26 
REMARK   14  A    between atoms: CB_25  and  CG2_27 
REMARK   15  A    between atoms: CA_29  and  C_30 
REMARK       I    between atoms: C_30  and  N_35 
REMARK   16  A    between atoms: N_35  and  CA_36 
REMARK   17  A    between atoms: CA_36  and  C_37 
REMARK   18  A    between atoms: CA_36  and  CB_39 
REMARK       I    between atoms: C_37  and  N_43 
REMARK   19  A    between atoms: CB_39  and  CG_40 
REMARK   20  A    between atoms: N_43  and  CA_44 
REMARK   21  A    between atoms: CA_44  and  C_45 
REMARK   22  A    between atoms: CA_44  and  CB_47 
REMARK       I    between atoms: C_45  and  N_55 
REMARK   23  A    between atoms: CB_47  and  CG_48 
REMARK   24  A    between atoms: CZ_53  and  OH_54 
REMARK   25  A    between atoms: N_55  and  CA_56 
REMARK   26  A    between atoms: CA_56  and  C_57 
REMARK   27  A    between atoms: CA_56  and  CB_59 
REMARK       I    between atoms: C_57  and  N_60 
REMARK   28  A    between atoms: N_60  and  CA_61 
REMARK   29  A    between atoms: CA_61  and  C_62 
REMARK   30  A    between atoms: CA_61  and  CB_64 
REMARK       I    between atoms: C_62  and  N_66 
REMARK   31  A    between atoms: CB_64  and  OG_65 
ROOT
ATOM      1  C   VAL d   1     -13.859  25.429 -26.442  0.00  0.00     0.243 C 
ATOM      2  O   VAL d   1     -12.896  25.182 -25.708  0.00  0.00    -0.271 OA
ATOM      3  N   PRO d   1     -15.061  25.650 -25.921  0.00  0.00    -0.337 N 
ATOM      4  CA  PRO d   1     -15.420  25.333 -24.545  0.00  0.00     0.091 C 
ATOM      5  CB  PRO d   1     -16.842  25.931 -24.392  0.00  0.00    -0.036 C 
ATOM      6  CG  PRO d   1     -17.411  25.912 -25.793  0.00  0.00    -0.048 C 
ATOM      7  CD  PRO d   1     -16.161  26.341 -26.578  0.00  0.00    -0.001 C 
ATOM      8  H25 PRO d   1     -14.732  25.851 -23.861  0.00  0.00     0.087 H 
ATOM      9  H26 PRO d   1     -16.792  26.960 -24.006  0.00  0.00     0.036 H 
ATOM     10  H27 PRO d   1     -17.453  25.315 -23.716  0.00  0.00     0.036 H 
ATOM     11  H28 PRO d   1     -18.236  26.630 -25.911  0.00  0.00     0.035 H 
ATOM     12  H29 PRO d   1     -17.754  24.908 -26.084  0.00  0.00     0.035 H 
ATOM     13  H30 PRO d   1     -16.239  26.034 -27.631  0.00  0.00     0.064 H 
ATOM     14  H31 PRO d   1     -16.023  27.431 -26.523  0.00  0.00     0.064 H 
ENDROOT
BRANCH   4  15
ATOM     15  C   PRO d   1     -15.349  23.843 -24.223  0.00  0.00     0.241 C 
ATOM     16  O   PRO d   1     -15.461  23.015 -25.125  0.00  0.00    -0.271 OA
ATOM     17  N   ASP d   1     -15.232  23.426 -22.975  0.00  0.00    -0.346 N 
ATOM     18  H32 ASP d   1     -15.124  24.086 -22.231  0.00  0.00     0.163 HD
BRANCH  17  19
ATOM     19  CA  ASP d   1     -15.261  22.003 -22.692  0.00  0.00     0.098 C 
ATOM     20  H33 ASP d   1     -14.627  21.473 -23.419  0.00  0.00     0.088 H 
BRANCH  19  21
ATOM     21  C   ASP d   1     -16.689  21.500 -22.796  0.00  0.00     0.241 C 
ATOM     22  O   ASP d   1     -17.631  22.194 -22.426  0.00  0.00    -0.271 OA
ATOM     23  N   TYR d   1     -16.909  20.262 -23.212  0.00  0.00    -0.346 N 
ATOM     24  H36 TYR d   1     -16.130  19.679 -23.442  0.00  0.00     0.163 HD
BRANCH  23  25
ATOM     25  CA  TYR d   1     -18.265  19.726 -23.343  0.00  0.00     0.093 C 
ATOM     26  H37 TYR d   1     -18.837  20.412 -23.986  0.00  0.00     0.088 H 
BRANCH  25  27
ATOM     27  C   TYR d   1     -18.981  19.634 -22.009  0.00  0.00     0.241 C 
ATOM     28  O   TYR d   1     -20.205  19.653 -21.918  0.00  0.00    -0.271 OA
ATOM     29  N   ALA d   1     -18.192  19.527 -20.958  0.00  0.00    -0.346 N 
ATOM     30  H45 ALA d   1     -17.198  19.556 -21.067  0.00  0.00     0.163 HD
BRANCH  29  31
ATOM     31  CA  ALA d   1     -18.774  19.368 -19.657  0.00  0.00     0.086 C 
ATOM     32  H46 ALA d   1     -19.763  18.892 -19.735  0.00  0.00     0.086 H 
BRANCH  31  33
ATOM     33  C   ALA d   1     -18.986  20.757 -18.954  0.00  0.00     0.240 C 
ATOM     34  O   ALA d   1     -19.307  20.871 -17.760  0.00  0.00    -0.271 OA
ATOM     35  N   SER d   1     -18.792  21.889 -19.631  0.00  0.00    -0.344 N 
ATOM     36  H50 SER d   1     -18.535  21.817 -20.595  0.00  0.00     0.163 HD
BRANCH  35  37
ATOM     37  CA  SER d   1     -18.930  23.232 -19.059  0.00  0.00     0.109 C 
ATOM     38  H51 SER d   1     -18.606  23.249 -18.008  0.00  0.00     0.090 H 
BRANCH  37  39
ATOM     39  C   SER d   1     -20.422  23.604 -19.141  0.00  0.00     0.240 C 
ATOM     40  O   SER d   1     -21.198  23.269 -18.233  0.00  0.00    -0.271 OA
ATOM     41  N   NH2 d   1     -20.817  24.186 -20.149  0.00  0.00    -0.368 N 
ATOM     42  H55 NH2 d   1     -21.780  24.442 -20.234  0.00  0.00     0.159 HD
ATOM     43  H56 NH2 d   1     -20.175  24.404 -20.884  0.00  0.00     0.159 HD
ENDBRANCH  37  39
BRANCH  37  44
ATOM     44  CB  SER d   1     -18.016  24.142 -19.895  0.00  0.00     0.044 C 
ATOM     45  H52 SER d   1     -18.034  23.755 -20.925  0.00  0.00     0.077 H 
ATOM     46  H53 SER d   1     -17.001  24.041 -19.484  0.00  0.00     0.077 H 
BRANCH  44  47
ATOM     47  OG  SER d   1     -18.293  25.522 -19.970  0.00  0.00    -0.398 OA
ATOM     48  H54 SER d   1     -17.644  25.945 -20.520  0.00  0.00     0.209 HD
ENDBRANCH  44  47
ENDBRANCH  37  44
ENDBRANCH  35  37
ENDBRANCH  31  33
BRANCH  31  49
ATOM     49  CB  ALA d   1     -17.788  18.371 -19.012  0.00  0.00    -0.049 C 
ATOM     50  H47 ALA d   1     -18.112  18.148 -17.985  0.00  0.00     0.030 H 
ATOM     51  H48 ALA d   1     -16.781  18.813 -18.991  0.00  0.00     0.030 H 
ATOM     52  H49 ALA d   1     -17.769  17.442 -19.600  0.00  0.00     0.030 H 
ENDBRANCH  31  49
ENDBRANCH  29  31
ENDBRANCH  25  27
BRANCH  25  53
ATOM     53  CB  TYR d   1     -18.231  18.314 -24.036  0.00  0.00    -0.014 C 
ATOM     54  H38 TYR d   1     -18.052  18.499 -25.105  0.00  0.00     0.043 H 
ATOM     55  H39 TYR d   1     -19.233  17.880 -23.901  0.00  0.00     0.043 H 
BRANCH  53  56
ATOM     56  CG  TYR d   1     -17.219  17.217 -23.608  0.00  0.00    -0.056 A 
ATOM     57  CD1 TYR d   1     -15.895  17.304 -23.969  0.00  0.00    -0.074 A 
ATOM     58  CE1 TYR d   1     -15.034  16.361 -23.542  0.00  0.00    -0.051 A 
ATOM     59  H40 TYR d   1     -15.549  18.122 -24.590  0.00  0.00     0.084 H 
ATOM     60  CZ  TYR d   1     -15.491  15.318 -22.770  0.00  0.00     0.065 A 
ATOM     61  H42 TYR d   1     -13.984  16.423 -23.806  0.00  0.00     0.087 H 
ATOM     62  CE2 TYR d   1     -16.788  15.211 -22.421  0.00  0.00    -0.051 A 
ATOM     63  CD2 TYR d   1     -17.654  16.164 -22.838  0.00  0.00    -0.074 A 
ATOM     64  H43 TYR d   1     -17.131  14.378 -21.818  0.00  0.00     0.087 H 
ATOM     65  H41 TYR d   1     -18.700  16.096 -22.562  0.00  0.00     0.084 H 
BRANCH  60  66
ATOM     66  OH  TYR d   1     -14.593  14.358 -22.335  0.00  0.00    -0.361 OA
ATOM     67  H44 TYR d   1     -14.583  14.343 -21.385  0.00  0.00     0.217 HD
ENDBRANCH  60  66
ENDBRANCH  53  56
ENDBRANCH  25  53
ENDBRANCH  23  25
ENDBRANCH  19  21
BRANCH  19  68
ATOM     68  CB  ASP d   1     -14.759  21.740 -21.305  0.00  0.00     0.043 C 
ATOM     69  H34 ASP d   1     -15.541  22.031 -20.588  0.00  0.00     0.052 H 
ATOM     70  H35 ASP d   1     -13.860  22.351 -21.136  0.00  0.00     0.052 H 
BRANCH  68  71
ATOM     71  CG  ASP d   1     -14.409  20.302 -21.071  0.00  0.00     0.175 C 
ATOM     72  OD1 ASP d   1     -13.313  19.964 -21.461  0.00  0.00    -0.648 OA
ATOM     73  OD2 ASP d   1     -15.181  19.558 -20.488  0.00  0.00    -0.648 OA
ENDBRANCH  68  71
ENDBRANCH  19  68
ENDBRANCH  17  19
ENDBRANCH   4  15
BRANCH   1  74
ATOM     74  CA  VAL d   1     -13.673  25.625 -27.949  0.00  0.00     0.092 C 
ATOM     75  H17 VAL d   1     -14.358  26.435 -28.241  0.00  0.00     0.088 H 
BRANCH  74  76
ATOM     76  N   VAL d   1     -12.344  26.021 -28.364  0.00  0.00    -0.346 N 
ATOM     77  C   ASP d   1     -12.137  27.242 -28.769  0.00  0.00     0.241 C 
ATOM     78  O   ASP d   1     -12.946  28.148 -28.674  0.00  0.00    -0.271 OA
ATOM     79  H16 VAL d   1     -11.591  25.363 -28.340  0.00  0.00     0.163 HD
BRANCH  77  80
ATOM     80  CA  ASP d   1     -10.788  27.517 -29.333  0.00  0.00     0.098 C 
ATOM     81  H13 ASP d   1     -10.141  26.629 -29.274  0.00  0.00     0.088 H 
BRANCH  80  82
ATOM     82  N   ASP d   1     -11.004  27.886 -30.724  0.00  0.00    -0.345 N 
ATOM     83  C   TYR d   1     -10.213  27.510 -31.719  0.00  0.00     0.249 C 
ATOM     84  O   TYR d   1      -9.218  26.823 -31.507  0.00  0.00    -0.271 OA
ATOM     85  H12 ASP d   1     -11.796  28.457 -30.942  0.00  0.00     0.163 HD
BRANCH  83  86
ATOM     86  CA  TYR d   1     -10.449  28.031 -33.136  0.00  0.00     0.179 C 
ATOM     87  H4  TYR d   1     -10.969  29.000 -33.120  0.00  0.00     0.099 H 
BRANCH  86  88
ATOM     88  N   TYR d   1      -9.071  28.108 -33.575  0.00  0.00    -0.066 N 
ATOM     89  H1  TYR d   1      -9.039  28.446 -34.524  0.00  0.00     0.275 HD
ATOM     90  H2  TYR d   1      -8.652  27.192 -33.530  0.00  0.00     0.275 HD
ATOM     91  H3  TYR d   1      -8.562  28.740 -32.976  0.00  0.00     0.275 HD
ENDBRANCH  86  88
BRANCH  86  92
ATOM     92  CB  TYR d   1     -11.130  27.079 -34.157  0.00  0.00    -0.006 C 
ATOM     93  H5  TYR d   1     -10.524  26.161 -34.182  0.00  0.00     0.043 H 
ATOM     94  H6  TYR d   1     -11.079  27.579 -35.135  0.00  0.00     0.043 H 
BRANCH  92  95
ATOM     95  CG  TYR d   1     -12.583  26.638 -33.968  0.00  0.00    -0.056 A 
ATOM     96  CD1 TYR d   1     -13.551  27.460 -33.403  0.00  0.00    -0.074 A 
ATOM     97  CE1 TYR d   1     -14.846  26.991 -33.236  0.00  0.00    -0.051 A 
ATOM     98  H7  TYR d   1     -13.294  28.467 -33.093  0.00  0.00     0.084 H 
ATOM     99  CZ  TYR d   1     -15.173  25.704 -33.631  0.00  0.00     0.065 A 
ATOM    100  H9  TYR d   1     -15.602  27.632 -32.796  0.00  0.00     0.087 H 
ATOM    101  CE2 TYR d   1     -14.216  24.880 -34.195  0.00  0.00    -0.051 A 
ATOM    102  CD2 TYR d   1     -12.921  25.354 -34.364  0.00  0.00    -0.074 A 
ATOM    103  H10 TYR d   1     -14.474  23.873 -34.502  0.00  0.00     0.087 H 
ATOM    104  H8  TYR d   1     -12.168  24.714 -34.810  0.00  0.00     0.084 H 
BRANCH  99 105
ATOM    105  OH  TYR d   1     -16.471  25.253 -33.468  0.00  0.00    -0.361 OA
ATOM    106  H11 TYR d   1     -16.995  25.938 -33.069  0.00  0.00     0.217 HD
ENDBRANCH  99 105
ENDBRANCH  92  95
ENDBRANCH  86  92
ENDBRANCH  83  86
ENDBRANCH  80  82
BRANCH  80 107
ATOM    107  CB  ASP d   1     -10.197  28.639 -28.513  0.00  0.00     0.043 C 
ATOM    108  H14 ASP d   1     -10.897  29.488 -28.519  0.00  0.00     0.052 H 
ATOM    109  H15 ASP d   1      -9.244  28.946 -28.969  0.00  0.00     0.052 H 
BRANCH 107 110
ATOM    110  CG  ASP d   1      -9.940  28.231 -27.078  0.00  0.00     0.175 C 
ATOM    111  OD1 ASP d   1      -9.873  27.040 -26.808  0.00  0.00    -0.648 OA
ATOM    112  OD2 ASP d   1      -9.780  29.100 -26.230  0.00  0.00    -0.648 OA
ENDBRANCH 107 110
ENDBRANCH  80 107
ENDBRANCH  77  80
ENDBRANCH  74  76
BRANCH  74 113
ATOM    113  CB  VAL d   1     -14.074  24.326 -28.782  0.00  0.00    -0.033 C 
ATOM    114  H18 VAL d   1     -14.960  23.865 -28.322  0.00  0.00     0.042 H 
BRANCH 113 115
ATOM    115  CG1 VAL d   1     -14.398  24.794 -30.192  0.00  0.00    -0.071 C 
ATOM    116  H19 VAL d   1     -14.682  23.929 -30.809  0.00  0.00     0.028 H 
ATOM    117  H20 VAL d   1     -13.514  25.282 -30.629  0.00  0.00     0.028 H 
ATOM    118  H21 VAL d   1     -15.232  25.510 -30.158  0.00  0.00     0.028 H 
ENDBRANCH 113 115
BRANCH 113 119
ATOM    119  CG2 VAL d   1     -12.960  23.272 -28.870  0.00  0.00    -0.071 C 
ATOM    120  H22 VAL d   1     -12.709  22.919 -27.859  0.00  0.00     0.028 H 
ATOM    121  H23 VAL d   1     -12.068  23.719 -29.334  0.00  0.00     0.028 H 
ATOM    122  H24 VAL d   1     -13.305  22.424 -29.480  0.00  0.00     0.028 H 
ENDBRANCH 113 119
ENDBRANCH  74 113
ENDBRANCH   1  74
TORSDOF 31
