REMARK  27 active torsions:
REMARK  status: ('A' for Active; 'I' for Inactive)
REMARK    1  A    between atoms: C_1  and  CA_2 
REMARK       I    between atoms: N_15  and  C_1 
REMARK    2  A    between atoms: CA_2  and  O1_14 
REMARK    3  A    between atoms: O1_14  and  C1_3 
REMARK    4  A    between atoms: CA_16  and  N_15 
REMARK    5  A    between atoms: C_17  and  CA_16 
REMARK    6  A    between atoms: CA_16  and  CB_19 
REMARK       I    between atoms: N_25  and  C_17 
REMARK    7  A    between atoms: CB_19  and  CG_20 
REMARK    8  A    between atoms: CA_26  and  N_25 
REMARK    9  A    between atoms: C_34  and  CA_26 
REMARK   10  A    between atoms: CA_26  and  CB_27 
REMARK   11  A    between atoms: CB_27  and  CG_28 
REMARK   12  A    between atoms: CB1_36  and  C_34 
REMARK   13  A    between atoms: C_34  and  O_35 
REMARK   14  A    between atoms: CB1_36  and  OB1_41 
REMARK   15  A    between atoms: CA'_37  and  CB1_36 
REMARK   16  A    between atoms: C'_42  and  CA'_37 
REMARK   17  A    between atoms: CA'_37  and  CB'_38 
REMARK   18  A    between atoms: CB'_38  and  CG2_40 
REMARK   19  A    between atoms: CB'_38  and  CG1_39 
REMARK       I    between atoms: N_44  and  C'_42 
REMARK   20  A    between atoms: CA_45  and  N_44 
REMARK   21  A    between atoms: C_46  and  CA_45 
REMARK   22  A    between atoms: CA_45  and  CB_48 
REMARK       I    between atoms: C_46  and  N_52 
REMARK   23  A    between atoms: CB_48  and  CG1_49 
REMARK   24  A    between atoms: CB_48  and  CG2_50 
REMARK   25  A    between atoms: CG1_49  and  CD1_51 
REMARK   26  A    between atoms: N_52  and  CM_53 
REMARK   27  A    between atoms: CM_53  and  C2_54 
ROOT
ATOM      1  CA  1ZK d   1       5.881  -0.001  13.808  0.00  0.00     0.040 C 
ATOM      2  H18 1ZK d   1       6.066  -0.896  13.195  0.00  0.00     0.076 H 
ENDROOT
BRANCH   1   3
ATOM      3  N   1ZK d   1       4.814   0.719  13.173  0.00  0.00    -0.352 N 
ATOM      4  C   1ZK d   1       4.018   0.269  12.183  0.00  0.00     0.241 C 
ATOM      5  O   1ZK d   1       4.203  -0.810  11.651  0.00  0.00    -0.271 OA
ATOM      6  H17 1ZK d   1       4.644   1.649  13.498  0.00  0.00     0.163 HD
BRANCH   4   7
ATOM      7  CA  1ZK d   1       3.077   1.346  11.644  0.00  0.00     0.094 C 
ATOM      8  H11 1ZK d   1       2.731   1.961  12.488  0.00  0.00     0.088 H 
BRANCH   7   9
ATOM      9  CB  1ZK d   1       1.856   0.712  11.049  0.00  0.00     0.002 C 
ATOM     10  H12 1ZK d   1       1.300   0.157  11.819  0.00  0.00     0.046 H 
ATOM     11  H13 1ZK d   1       2.139   0.027  10.236  0.00  0.00     0.046 H 
BRANCH   9  12
ATOM     12  CG  1ZK d   1       1.015   1.845  10.511  0.00  0.00     0.030 A 
ATOM     13  CD2 1ZK d   1      -0.105   2.479  10.887  0.00  0.00     0.025 A 
ATOM     14  NE2 1ZK d   1      -0.372   3.461   9.881  0.00  0.00    -0.254 NA
ATOM     15  H15 1ZK d   1      -0.695   2.285  11.781  0.00  0.00     0.117 H 
ATOM     16  CE1 1ZK d   1       0.638   3.428   9.002  0.00  0.00     0.063 A 
ATOM     17  ND1 1ZK d   1       1.467   2.439   9.321  0.00  0.00    -0.353 N 
ATOM     18  H16 1ZK d   1       0.761   4.105   8.158  0.00  0.00     0.143 H 
ATOM     19  H14 1ZK d   1       2.300   2.156   8.786  0.00  0.00     0.166 HD
ENDBRANCH   9  12
ENDBRANCH   7   9
BRANCH   7  20
ATOM     20  N   1ZK d   1       3.855   2.201  10.790  0.00  0.00    -0.346 N 
ATOM     21  C   1ZK d   1       3.946   3.520  10.861  0.00  0.00     0.242 C 
ATOM     22  O   1ZK d   1       3.224   4.213  11.565  0.00  0.00    -0.271 OA
ATOM     23  H10 1ZK d   1       4.382   1.754  10.068  0.00  0.00     0.163 HD
BRANCH  21  24
ATOM     24  CA  1ZK d   1       4.856   4.282   9.931  0.00  0.00     0.099 C 
ATOM     25  H1  1ZK d   1       5.711   4.668  10.506  0.00  0.00     0.089 H 
ATOM     26  H2  1ZK d   1       4.297   5.123   9.495  0.00  0.00     0.089 H 
BRANCH  24  27
ATOM     27  O1  1ZK d   1       5.331   3.476   8.904  0.00  0.00    -0.341 OA
BRANCH  27  28
ATOM     28  C1  1ZK d   1       6.308   3.824   8.036  0.00  0.00     0.080 A 
ATOM     29  C1A 1ZK d   1       6.824   2.882   7.117  0.00  0.00     0.007 A 
ATOM     30  C4A 1ZK d   1       7.885   3.277   6.208  0.00  0.00    -0.023 A 
ATOM     31  C8  1ZK d   1       6.398   1.548   7.074  0.00  0.00    -0.070 A 
ATOM     32  C4  1ZK d   1       8.363   4.590   6.284  0.00  0.00    -0.072 A 
ATOM     33  C5  1ZK d   1       8.469   2.345   5.318  0.00  0.00    -0.072 A 
ATOM     34  C3  1ZK d   1       7.805   5.484   7.142  0.00  0.00    -0.080 A 
ATOM     35  H5  1ZK d   1       9.188   4.897   5.651  0.00  0.00     0.084 H 
ATOM     36  C2  1ZK d   1       6.770   5.099   8.019  0.00  0.00    -0.050 A 
ATOM     37  H4  1ZK d   1       8.161   6.508   7.152  0.00  0.00     0.083 H 
ATOM     38  H3  1ZK d   1       6.337   5.833   8.689  0.00  0.00     0.087 H 
ATOM     39  C6  1ZK d   1       7.986   1.072   5.322  0.00  0.00    -0.082 A 
ATOM     40  H6  1ZK d   1       9.275   2.635   4.654  0.00  0.00     0.084 H 
ATOM     41  C7  1ZK d   1       6.949   0.682   6.190  0.00  0.00    -0.082 A 
ATOM     42  H7  1ZK d   1       8.410   0.343   4.641  0.00  0.00     0.083 H 
ATOM     43  H8  1ZK d   1       6.582  -0.337   6.150  0.00  0.00     0.083 H 
ATOM     44  H9  1ZK d   1       5.623   1.207   7.752  0.00  0.00     0.085 H 
ENDBRANCH  27  28
ENDBRANCH  24  27
ENDBRANCH  21  24
ENDBRANCH   7  20
ENDBRANCH   4   7
ENDBRANCH   1   3
BRANCH   1  45
ATOM     45  C   1ZK d   1       5.592  -0.511  15.204  0.00  0.00     0.080 C 
ATOM     46  H32 1ZK d   1       6.511  -1.018  15.531  0.00  0.00     0.090 H 
BRANCH  45  47
ATOM     47  CB1 1ZK d   1       4.426  -1.543  15.170  0.00  0.00     0.074 C 
ATOM     48  H34 1ZK d   1       4.517  -2.025  14.186  0.00  0.00     0.088 H 
BRANCH  47  49
ATOM     49  OB1 1ZK d   1       3.249  -0.875  15.134  0.00  0.00    -0.392 OA
ATOM     50  H43 1ZK d   1       3.172  -0.329  15.908  0.00  0.00     0.210 HD
ENDBRANCH  47  49
BRANCH  47  51
ATOM     51  CA' 1ZK d   1       4.451  -2.730  16.152  0.00  0.00     0.053 C 
ATOM     52  H35 1ZK d   1       4.675  -2.319  17.147  0.00  0.00     0.059 H 
BRANCH  51  53
ATOM     53  C'  1ZK d   1       5.603  -3.655  15.782  0.00  0.00     0.225 C 
ATOM     54  O'  1ZK d   1       5.748  -4.044  14.612  0.00  0.00    -0.273 OA
ATOM     55  N   1ZK d   1       6.478  -3.958  16.751  0.00  0.00    -0.347 N 
ATOM     56  H44 1ZK d   1       6.351  -3.523  17.642  0.00  0.00     0.163 HD
BRANCH  55  57
ATOM     57  CA  1ZK d   1       7.592  -4.867  16.603  0.00  0.00     0.092 C 
ATOM     58  H45 1ZK d   1       7.551  -5.309  15.597  0.00  0.00     0.088 H 
BRANCH  57  59
ATOM     59  C   1ZK d   1       7.274  -5.947  17.691  0.00  0.00     0.241 C 
ATOM     60  O   1ZK d   1       7.311  -5.667  18.880  0.00  0.00    -0.271 OA
ATOM     61  N   1ZK d   1       6.871  -7.136  17.332  0.00  0.00    -0.354 N 
ATOM     62  H55 1ZK d   1       6.742  -7.253  16.347  0.00  0.00     0.162 HD
BRANCH  61  63
ATOM     63  CM  1ZK d   1       6.587  -8.286  18.106  0.00  0.00     0.035 C 
ATOM     64  H56 1ZK d   1       6.972  -8.133  19.125  0.00  0.00     0.073 H 
ATOM     65  H57 1ZK d   1       7.088  -9.154  17.651  0.00  0.00     0.073 H 
BRANCH  63  66
ATOM     66  C2  1ZK d   1       5.126  -8.557  18.179  0.00  0.00     0.051 A 
ATOM     67  N1  1ZK d   1       4.497  -9.459  17.386  0.00  0.00    -0.264 NA
ATOM     68  C6  1ZK d   1       3.164  -9.631  17.518  0.00  0.00     0.003 A 
ATOM     69  C5  1ZK d   1       2.423  -8.911  18.456  0.00  0.00    -0.066 A 
ATOM     70  H61 1ZK d   1       2.657 -10.346  16.880  0.00  0.00     0.114 H 
ATOM     71  C4  1ZK d   1       3.045  -7.980  19.287  0.00  0.00    -0.080 A 
ATOM     72  H60 1ZK d   1       1.355  -9.077  18.539  0.00  0.00     0.085 H 
ATOM     73  C3  1ZK d   1       4.413  -7.811  19.117  0.00  0.00    -0.058 A 
ATOM     74  H59 1ZK d   1       2.489  -7.417  20.028  0.00  0.00     0.083 H 
ATOM     75  H58 1ZK d   1       4.938  -7.084  19.726  0.00  0.00     0.086 H 
ENDBRANCH  63  66
ENDBRANCH  61  63
ENDBRANCH  57  59
BRANCH  57  76
ATOM     76  CB  1ZK d   1       8.986  -4.351  16.803  0.00  0.00    -0.030 C 
ATOM     77  H46 1ZK d   1       9.064  -4.102  17.872  0.00  0.00     0.043 H 
BRANCH  76  78
ATOM     78  CG1 1ZK d   1       9.488  -3.108  16.016  0.00  0.00    -0.063 C 
ATOM     79  H47 1ZK d   1      10.583  -3.036  16.098  0.00  0.00     0.033 H 
ATOM     80  H48 1ZK d   1       9.029  -2.198  16.430  0.00  0.00     0.033 H 
BRANCH  78  81
ATOM     81  CD1 1ZK d   1       9.099  -3.257  14.571  0.00  0.00    -0.076 C 
ATOM     82  H52 1ZK d   1       9.450  -2.382  14.005  0.00  0.00     0.027 H 
ATOM     83  H53 1ZK d   1       8.004  -3.330  14.492  0.00  0.00     0.027 H 
ATOM     84  H54 1ZK d   1       9.558  -4.168  14.160  0.00  0.00     0.027 H 
ENDBRANCH  78  81
ENDBRANCH  76  78
BRANCH  76  85
ATOM     85  CG2 1ZK d   1      10.000  -5.461  16.472  0.00  0.00    -0.071 C 
ATOM     86  H49 1ZK d   1       9.715  -6.386  16.995  0.00  0.00     0.028 H 
ATOM     87  H50 1ZK d   1      11.004  -5.150  16.798  0.00  0.00     0.028 H 
ATOM     88  H51 1ZK d   1      10.006  -5.641  15.387  0.00  0.00     0.028 H 
ENDBRANCH  76  85
ENDBRANCH  57  76
ENDBRANCH  55  57
ENDBRANCH  51  53
BRANCH  51  89
ATOM     89  CB' 1ZK d   1       3.124  -3.441  16.281  0.00  0.00    -0.047 C 
ATOM     90  H36 1ZK d   1       2.403  -2.697  16.652  0.00  0.00     0.040 H 
BRANCH  89  91
ATOM     91  CG2 1ZK d   1       3.204  -4.586  17.345  0.00  0.00    -0.072 C 
ATOM     92  H40 1ZK d   1       3.608  -4.184  18.286  0.00  0.00     0.028 H 
ATOM     93  H41 1ZK d   1       3.863  -5.385  16.975  0.00  0.00     0.028 H 
ATOM     94  H42 1ZK d   1       2.198  -4.993  17.522  0.00  0.00     0.028 H 
ENDBRANCH  89  91
BRANCH  89  95
ATOM     95  CG1 1ZK d   1       2.553  -3.986  14.933  0.00  0.00    -0.072 C 
ATOM     96  H37 1ZK d   1       1.591  -4.486  15.118  0.00  0.00     0.028 H 
ATOM     97  H38 1ZK d   1       3.263  -4.705  14.498  0.00  0.00     0.028 H 
ATOM     98  H39 1ZK d   1       2.404  -3.150  14.233  0.00  0.00     0.028 H 
ENDBRANCH  89  95
ENDBRANCH  51  89
ENDBRANCH  47  51
ENDBRANCH  45  47
BRANCH  45  99
ATOM     99  O   1ZK d   1       5.225   0.377  16.238  0.00  0.00    -0.391 OA
ATOM    100  H33 1ZK d   1       4.392   0.782  16.026  0.00  0.00     0.210 HD
ENDBRANCH  45  99
ENDBRANCH   1  45
BRANCH   1 101
ATOM    101  CB  1ZK d   1       7.140   0.860  13.743  0.00  0.00    -0.040 C 
ATOM    102  H19 1ZK d   1       7.982   0.276  14.143  0.00  0.00     0.036 H 
ATOM    103  H20 1ZK d   1       6.984   1.753  14.367  0.00  0.00     0.036 H 
BRANCH 101 104
ATOM    104  CG  1ZK d   1       7.503   1.324  12.299  0.00  0.00    -0.052 C 
ATOM    105  CD2 1ZK d   1       8.420   2.537  12.325  0.00  0.00    -0.062 C 
ATOM    106  CE2 1ZK d   1       8.907   2.979  10.922  0.00  0.00    -0.065 C 
ATOM    107  H24 1ZK d   1       9.301   2.294  12.938  0.00  0.00     0.033 H 
ATOM    108  H25 1ZK d   1       7.875   3.375  12.783  0.00  0.00     0.033 H 
ATOM    109  CZ  1ZK d   1       9.409   1.807  10.075  0.00  0.00    -0.065 C 
ATOM    110  H28 1ZK d   1       8.071   3.461  10.395  0.00  0.00     0.033 H 
ATOM    111  H29 1ZK d   1       9.728   3.701  11.046  0.00  0.00     0.033 H 
ATOM    112  CE1 1ZK d   1       8.381   0.689  10.066  0.00  0.00    -0.065 C 
ATOM    113  H30 1ZK d   1       9.581   2.151   9.044  0.00  0.00     0.033 H 
ATOM    114  H31 1ZK d   1      10.352   1.430  10.498  0.00  0.00     0.033 H 
ATOM    115  CD1 1ZK d   1       8.185   0.142  11.507  0.00  0.00    -0.062 C 
ATOM    116  H26 1ZK d   1       7.423   1.077   9.689  0.00  0.00     0.033 H 
ATOM    117  H27 1ZK d   1       8.731  -0.123   9.412  0.00  0.00     0.033 H 
ATOM    118  H22 1ZK d   1       7.535  -0.745  11.499  0.00  0.00     0.033 H 
ATOM    119  H23 1ZK d   1       9.154  -0.118  11.958  0.00  0.00     0.033 H 
ATOM    120  H21 1ZK d   1       6.574   1.603  11.780  0.00  0.00     0.040 H 
ENDBRANCH 101 104
ENDBRANCH   1 101
TORSDOF 27
