REMARK  7 active torsions:
REMARK  status: ('A' for Active; 'I' for Inactive)
REMARK    1  A    between atoms: C1_1  and  C7_7 
REMARK    2  A    between atoms: O4_17  and  C4_4 
REMARK    3  A    between atoms: C7_7  and  C8_8 
REMARK    4  A    between atoms: C8_8  and  C9_9 
REMARK    5  A    between atoms: C8_8  and  N8_16 
REMARK    6  A    between atoms: C1'_10  and  O4_17 
REMARK    7  A    between atoms: C4'_13  and  O4'_18 
ROOT
ATOM      1  C1  T44 d   1      -8.838   0.435  16.124  0.00  0.00    -0.053 A 
ATOM      2  C2  T44 d   1      -8.503  -0.896  15.927  0.00  0.00    -0.058 A 
ATOM      3  C3  T44 d   1      -8.771  -1.565  14.740  0.00  0.00     0.042 A 
ATOM      4  C4  T44 d   1      -9.415  -0.867  13.663  0.00  0.00     0.109 A 
ATOM      5  C5  T44 d   1      -9.769   0.454  13.866  0.00  0.00     0.042 A 
ATOM      6  C6  T44 d   1      -9.499   1.135  15.075  0.00  0.00    -0.058 A 
ATOM      7  I3  T44 d   1      -8.198  -3.555  14.581  0.00  0.00    -0.042 I 
ATOM      8  I5  T44 d   1     -10.731   1.518  12.338  0.00  0.00    -0.042 I 
ATOM      9  H1  T44 d   1      -8.013  -1.435  16.730  0.00  0.00     0.086 H 
ATOM     10  H2  T44 d   1      -9.790   2.172  15.201  0.00  0.00     0.086 H 
ENDROOT
BRANCH   4  11
ATOM     11  O4  T44 d   1      -9.640  -1.514  12.467  0.00  0.00    -0.308 OA
BRANCH  11  12
ATOM     12  C1' T44 d   1      -8.595  -1.336  11.493  0.00  0.00     0.078 A 
ATOM     13  C2' T44 d   1      -8.969  -1.297  10.151  0.00  0.00    -0.032 A 
ATOM     14  C3' T44 d   1      -7.956  -1.116   9.187  0.00  0.00     0.043 A 
ATOM     15  H6  T44 d   1     -10.007  -1.403   9.857  0.00  0.00     0.089 H 
ATOM     16  C4' T44 d   1      -6.524  -0.960   9.508  0.00  0.00     0.098 A 
ATOM     17  I3' T44 d   1      -8.532  -1.076   7.183  0.00  0.00    -0.042 I 
ATOM     18  C5' T44 d   1      -6.247  -1.012  10.878  0.00  0.00     0.043 A 
ATOM     19  C6' T44 d   1      -7.215  -1.193  11.870  0.00  0.00    -0.032 A 
ATOM     20  I5' T44 d   1      -4.252  -0.810  11.473  0.00  0.00    -0.042 I 
ATOM     21  H7  T44 d   1      -6.928  -1.225  12.915  0.00  0.00     0.089 H 
BRANCH  16  22
ATOM     22  O4' T44 d   1      -5.595  -0.791   8.600  0.00  0.00    -0.358 OA
ATOM     23  H11 T44 d   1      -4.967  -1.502   8.655  0.00  0.00     0.217 HD
ENDBRANCH  16  22
ENDBRANCH  11  12
ENDBRANCH   4  11
BRANCH   1  24
ATOM     24  C7  T44 d   1      -8.460   1.078  17.450  0.00  0.00    -0.005 C 
ATOM     25  H3  T44 d   1      -8.870   0.445  18.250  0.00  0.00     0.044 H 
ATOM     26  H4  T44 d   1      -8.940   2.067  17.483  0.00  0.00     0.044 H 
BRANCH  24  27
ATOM     27  C8  T44 d   1      -6.952   1.285  17.752  0.00  0.00     0.186 C 
ATOM     28  H5  T44 d   1      -6.650   0.469  18.424  0.00  0.00     0.101 H 
BRANCH  27  29
ATOM     29  C9  T44 d   1      -5.937   1.282  16.551  0.00  0.00     0.204 C 
ATOM     30  O9  T44 d   1      -5.991   2.234  15.758  0.00  0.00    -0.646 OA
ATOM     31  O10 T44 d   1      -5.146   0.332  16.475  0.00  0.00    -0.646 OA
ENDBRANCH  27  29
BRANCH  27  32
ATOM     32  N8  T44 d   1      -6.795   2.605  18.482  0.00  0.00    -0.065 N 
ATOM     33  H8  T44 d   1      -5.821   2.761  18.689  0.00  0.00     0.275 HD
ATOM     34  H9  T44 d   1      -7.321   2.578  19.341  0.00  0.00     0.275 HD
ATOM     35  H10 T44 d   1      -7.139   3.353  17.901  0.00  0.00     0.275 HD
ENDBRANCH  27  32
ENDBRANCH  24  27
ENDBRANCH   1  24
TORSDOF 7
