REMARK  7 active torsions:
REMARK  status: ('A' for Active; 'I' for Inactive)
REMARK    1  A    between atoms: C1_1  and  C7_7 
REMARK    2  A    between atoms: O4_17  and  C4_4 
REMARK    3  A    between atoms: C7_7  and  C8_8 
REMARK    4  A    between atoms: C8_8  and  C9_9 
REMARK    5  A    between atoms: C8_8  and  N8_16 
REMARK    6  A    between atoms: C1'_10  and  O4_17 
REMARK    7  A    between atoms: C4'_13  and  O4'_18 
ROOT
ATOM      1  C1  T44 d   1      -8.715  -0.157  16.532  0.00  0.00    -0.053 A 
ATOM      2  C2  T44 d   1      -8.508  -1.494  16.172  0.00  0.00    -0.058 A 
ATOM      3  C3  T44 d   1      -8.845  -1.984  14.911  0.00  0.00     0.042 A 
ATOM      4  C4  T44 d   1      -9.415  -1.109  13.954  0.00  0.00     0.109 A 
ATOM      5  C5  T44 d   1      -9.637   0.197  14.310  0.00  0.00     0.042 A 
ATOM      6  C6  T44 d   1      -9.307   0.718  15.581  0.00  0.00    -0.058 A 
ATOM      7  I3  T44 d   1      -8.510  -3.972  14.447  0.00  0.00    -0.042 I 
ATOM      8  I5  T44 d   1     -10.508   1.451  12.894  0.00  0.00    -0.042 I 
ATOM      9  H1  T44 d   1      -8.071  -2.171  16.898  0.00  0.00     0.086 H 
ATOM     10  H2  T44 d   1      -9.500   1.757  15.824  0.00  0.00     0.086 H 
ENDROOT
BRANCH   4  11
ATOM     11  O4  T44 d   1      -9.711  -1.580  12.692  0.00  0.00    -0.308 OA
BRANCH  11  12
ATOM     12  C1' T44 d   1      -8.694  -1.410  11.697  0.00  0.00     0.078 A 
ATOM     13  C2' T44 d   1      -9.104  -1.358  10.375  0.00  0.00    -0.032 A 
ATOM     14  C3' T44 d   1      -8.113  -1.189   9.394  0.00  0.00     0.043 A 
ATOM     15  H6  T44 d   1     -10.151  -1.444  10.107  0.00  0.00     0.089 H 
ATOM     16  C4' T44 d   1      -6.690  -1.054   9.644  0.00  0.00     0.098 A 
ATOM     17  I3' T44 d   1      -8.661  -1.105   7.441  0.00  0.00    -0.042 I 
ATOM     18  C5' T44 d   1      -6.383  -1.115  11.013  0.00  0.00     0.043 A 
ATOM     19  C6' T44 d   1      -7.315  -1.281  12.031  0.00  0.00    -0.032 A 
ATOM     20  I5' T44 d   1      -4.425  -0.923  11.564  0.00  0.00    -0.042 I 
ATOM     21  H7  T44 d   1      -6.996  -1.312  13.067  0.00  0.00     0.089 H 
BRANCH  16  22
ATOM     22  O4' T44 d   1      -5.801  -0.898   8.663  0.00  0.00    -0.358 OA
ATOM     23  H11 T44 d   1      -5.182  -1.618   8.681  0.00  0.00     0.217 HD
ENDBRANCH  16  22
ENDBRANCH  11  12
ENDBRANCH   4  11
BRANCH   1  24
ATOM     24  C7  T44 d   1      -8.267   0.292  17.912  0.00  0.00    -0.005 C 
ATOM     25  H3  T44 d   1      -8.738  -0.361  18.662  0.00  0.00     0.044 H 
ATOM     26  H4  T44 d   1      -8.600   1.329  18.067  0.00  0.00     0.044 H 
BRANCH  24  27
ATOM     27  C8  T44 d   1      -6.728   0.235  18.106  0.00  0.00     0.186 C 
ATOM     28  H5  T44 d   1      -6.468  -0.806  18.349  0.00  0.00     0.101 H 
BRANCH  27  29
ATOM     29  C9  T44 d   1      -5.850   0.680  16.881  0.00  0.00     0.204 C 
ATOM     30  O9  T44 d   1      -6.044   1.824  16.439  0.00  0.00    -0.646 OA
ATOM     31  O10 T44 d   1      -5.034  -0.140  16.424  0.00  0.00    -0.646 OA
ENDBRANCH  27  29
BRANCH  27  32
ATOM     32  N8  T44 d   1      -6.332   1.129  19.250  0.00  0.00    -0.065 N 
ATOM     33  H8  T44 d   1      -5.332   1.091  19.375  0.00  0.00     0.275 HD
ATOM     34  H9  T44 d   1      -6.788   0.818  20.093  0.00  0.00     0.275 HD
ATOM     35  H10 T44 d   1      -6.610   2.077  19.048  0.00  0.00     0.275 HD
ENDBRANCH  27  32
ENDBRANCH  24  27
ENDBRANCH   1  24
TORSDOF 7
