REMARK  7 active torsions:
REMARK  status: ('A' for Active; 'I' for Inactive)
REMARK    1  A    between atoms: C1_1  and  C7_7 
REMARK    2  A    between atoms: O4_17  and  C4_4 
REMARK    3  A    between atoms: C7_7  and  C8_8 
REMARK    4  A    between atoms: C8_8  and  C9_9 
REMARK    5  A    between atoms: C8_8  and  N8_16 
REMARK    6  A    between atoms: C1'_10  and  O4_17 
REMARK    7  A    between atoms: C4'_13  and  O4'_18 
ROOT
ATOM      1  C1  T44 d   1      -8.517  -0.026  16.919  0.00  0.00    -0.053 A 
ATOM      2  C2  T44 d   1      -8.248  -1.373  16.627  0.00  0.00    -0.058 A 
ATOM      3  C3  T44 d   1      -8.527  -1.924  15.375  0.00  0.00     0.042 A 
ATOM      4  C4  T44 d   1      -9.077  -1.118  14.385  0.00  0.00     0.109 A 
ATOM      5  C5  T44 d   1      -9.355   0.194  14.657  0.00  0.00     0.042 A 
ATOM      6  C6  T44 d   1      -9.091   0.791  15.909  0.00  0.00    -0.058 A 
ATOM      7  I3  T44 d   1      -8.079  -3.931  14.942  0.00  0.00    -0.042 I 
ATOM      8  I5  T44 d   1     -10.167   1.375  13.112  0.00  0.00    -0.042 I 
ATOM      9  H1  T44 d   1      -7.812  -2.002  17.395  0.00  0.00     0.086 H 
ATOM     10  H2  T44 d   1      -9.318   1.835  16.093  0.00  0.00     0.086 H 
ENDROOT
BRANCH   4  11
ATOM     11  O4  T44 d   1      -9.306  -1.666  13.155  0.00  0.00    -0.308 OA
BRANCH  11  12
ATOM     12  C1' T44 d   1      -8.289  -1.518  12.178  0.00  0.00     0.078 A 
ATOM     13  C2' T44 d   1      -8.709  -1.452  10.850  0.00  0.00    -0.032 A 
ATOM     14  C3' T44 d   1      -7.689  -1.293   9.859  0.00  0.00     0.043 A 
ATOM     15  H6  T44 d   1      -9.757  -1.518  10.581  0.00  0.00     0.089 H 
ATOM     16  C4' T44 d   1      -6.276  -1.194  10.162  0.00  0.00     0.098 A 
ATOM     17  I3' T44 d   1      -8.182  -1.187   7.838  0.00  0.00    -0.042 I 
ATOM     18  C5' T44 d   1      -5.975  -1.272  11.520  0.00  0.00     0.043 A 
ATOM     19  C6' T44 d   1      -6.926  -1.430  12.528  0.00  0.00    -0.032 A 
ATOM     20  I5' T44 d   1      -3.980  -1.131  12.044  0.00  0.00    -0.042 I 
ATOM     21  H7  T44 d   1      -6.621  -1.484  13.567  0.00  0.00     0.089 H 
BRANCH  16  22
ATOM     22  O4' T44 d   1      -5.361  -1.043   9.212  0.00  0.00    -0.358 OA
ATOM     23  H11 T44 d   1      -4.755  -1.774   9.238  0.00  0.00     0.217 HD
ENDBRANCH  16  22
ENDBRANCH  11  12
ENDBRANCH   4  11
BRANCH   1  24
ATOM     24  C7  T44 d   1      -8.139   0.498  18.292  0.00  0.00    -0.005 C 
ATOM     25  H3  T44 d   1      -8.720  -0.060  19.041  0.00  0.00     0.044 H 
ATOM     26  H4  T44 d   1      -8.411   1.563  18.336  0.00  0.00     0.044 H 
BRANCH  24  27
ATOM     27  C8  T44 d   1      -6.636   0.371  18.658  0.00  0.00     0.186 C 
ATOM     28  H5  T44 d   1      -6.504  -0.606  19.147  0.00  0.00     0.101 H 
BRANCH  27  29
ATOM     29  C9  T44 d   1      -5.606   0.466  17.511  0.00  0.00     0.204 C 
ATOM     30  O9  T44 d   1      -5.689   1.475  16.769  0.00  0.00    -0.646 OA
ATOM     31  O10 T44 d   1      -4.734  -0.399  17.475  0.00  0.00    -0.646 OA
ENDBRANCH  27  29
BRANCH  27  32
ATOM     32  N8  T44 d   1      -6.271   1.465  19.617  0.00  0.00    -0.065 N 
ATOM     33  H8  T44 d   1      -5.295   1.388  19.859  0.00  0.00     0.275 HD
ATOM     34  H9  T44 d   1      -6.831   1.382  20.451  0.00  0.00     0.275 HD
ATOM     35  H10 T44 d   1      -6.441   2.360  19.186  0.00  0.00     0.275 HD
ENDBRANCH  27  32
ENDBRANCH  24  27
ENDBRANCH   1  24
TORSDOF 7
