REMARK  7 active torsions:
REMARK  status: ('A' for Active; 'I' for Inactive)
REMARK    1  A    between atoms: C1_1  and  C7_7 
REMARK    2  A    between atoms: O4_17  and  C4_4 
REMARK    3  A    between atoms: C7_7  and  C8_8 
REMARK    4  A    between atoms: C8_8  and  C9_9 
REMARK    5  A    between atoms: C8_8  and  N8_16 
REMARK    6  A    between atoms: C1'_10  and  O4_17 
REMARK    7  A    between atoms: C4'_13  and  O4'_18 
ROOT
ATOM      1  C1  T44 d   1      20.133  10.609  28.666  0.00  0.00    -0.053 A 
ATOM      2  C2  T44 d   1      21.327  10.184  28.059  0.00  0.00    -0.058 A 
ATOM      3  C3  T44 d   1      21.556  10.325  26.670  0.00  0.00     0.042 A 
ATOM      4  C4  T44 d   1      20.557  10.913  25.839  0.00  0.00     0.109 A 
ATOM      5  C5  T44 d   1      19.385  11.327  26.433  0.00  0.00     0.042 A 
ATOM      6  C6  T44 d   1      19.136  11.194  27.827  0.00  0.00    -0.058 A 
ATOM      7  I3  T44 d   1      23.347   9.679  25.846  0.00  0.00    -0.042 I 
ATOM      8  I5  T44 d   1      17.904  12.194  25.238  0.00  0.00    -0.042 I 
ATOM      9  H1  T44 d   1      22.097   9.734  28.675  0.00  0.00     0.086 H 
ATOM     10  H2  T44 d   1      18.197  11.534  28.249  0.00  0.00     0.086 H 
ENDROOT
BRANCH   4  11
ATOM     11  O4  T44 d   1      20.797  11.058  24.473  0.00  0.00    -0.308 OA
BRANCH  11  12
ATOM     12  C1' T44 d   1      21.448  12.210  23.949  0.00  0.00     0.078 A 
ATOM     13  C2' T44 d   1      21.611  12.234  22.560  0.00  0.00    -0.032 A 
ATOM     14  C3' T44 d   1      22.253  13.349  21.979  0.00  0.00     0.043 A 
ATOM     15  H6  T44 d   1      21.253  11.416  21.945  0.00  0.00     0.089 H 
ATOM     16  C4' T44 d   1      22.757  14.491  22.733  0.00  0.00     0.098 A 
ATOM     17  I3' T44 d   1      22.501  13.393  19.913  0.00  0.00    -0.042 I 
ATOM     18  C5' T44 d   1      22.547  14.377  24.124  0.00  0.00     0.043 A 
ATOM     19  C6' T44 d   1      21.912  13.288  24.757  0.00  0.00    -0.032 A 
ATOM     20  I5' T44 d   1      23.215  15.928  25.331  0.00  0.00    -0.042 I 
ATOM     21  H7  T44 d   1      21.780  13.272  25.833  0.00  0.00     0.089 H 
BRANCH  16  22
ATOM     22  O4' T44 d   1      23.351  15.510  22.152  0.00  0.00    -0.358 OA
ATOM     23  H11 T44 d   1      23.378  15.366  21.213  0.00  0.00     0.217 HD
ENDBRANCH  16  22
ENDBRANCH  11  12
ENDBRANCH   4  11
BRANCH   1  24
ATOM     24  C7  T44 d   1      19.946  10.441  30.181  0.00  0.00    -0.005 C 
ATOM     25  H3  T44 d   1      18.922  10.761  30.422  0.00  0.00     0.044 H 
ATOM     26  H4  T44 d   1      20.665  11.110  30.676  0.00  0.00     0.044 H 
BRANCH  24  27
ATOM     27  C8  T44 d   1      20.138   9.047  30.777  0.00  0.00     0.186 C 
ATOM     28  H5  T44 d   1      21.180   8.747  30.596  0.00  0.00     0.101 H 
BRANCH  27  29
ATOM     29  C9  T44 d   1      19.863   8.921  32.316  0.00  0.00     0.204 C 
ATOM     30  O9  T44 d   1      18.824   9.444  32.756  0.00  0.00    -0.646 OA
ATOM     31  O10 T44 d   1      20.702   8.307  32.998  0.00  0.00    -0.646 OA
ENDBRANCH  27  29
BRANCH  27  32
ATOM     32  N8  T44 d   1      19.212   8.091  30.063  0.00  0.00    -0.065 N 
ATOM     33  H8  T44 d   1      19.326   7.165  30.445  0.00  0.00     0.275 HD
ATOM     34  H9  T44 d   1      19.434   8.079  29.080  0.00  0.00     0.275 HD
ATOM     35  H10 T44 d   1      18.258   8.391  30.188  0.00  0.00     0.275 HD
ENDBRANCH  27  32
ENDBRANCH  24  27
ENDBRANCH   1  24
TORSDOF 7
