REMARK  21 active torsions:
REMARK  status: ('A' for Active; 'I' for Inactive)
REMARK    1  A    between atoms: O4_26  and  C1_1 
REMARK    2  A    between atoms: C2_2  and  N2_9 
REMARK    3  A    between atoms: C3_3  and  O3_10 
REMARK    4  A    between atoms: C4_4  and  O4_11 
REMARK    5  A    between atoms: C5_5  and  C6_6 
REMARK    6  A    between atoms: C6_6  and  O6_13 
REMARK    7  A    between atoms: C7_7  and  C8_8 
REMARK       I    between atoms: N2_9  and  C7_7 
REMARK    8  A    between atoms: O6_13  and  C9_14 
REMARK    9  A    between atoms: O4_42  and  C1_16 
REMARK   10  A    between atoms: C2_17  and  N2_24 
REMARK   11  A    between atoms: C3_18  and  O3_25 
REMARK   12  A    between atoms: C4_19  and  O4_26 
REMARK   13  A    between atoms: C5_20  and  C6_21 
REMARK   14  A    between atoms: C6_21  and  O6_28 
REMARK   15  A    between atoms: C7_22  and  C8_23 
REMARK       I    between atoms: N2_24  and  C7_22 
REMARK   16  A    between atoms: C3_32  and  O3_41 
REMARK   17  A    between atoms: C4_33  and  O4_42 
REMARK   18  A    between atoms: C5_34  and  C6_35 
REMARK   19  A    between atoms: C6_35  and  O6_43 
REMARK   20  A    between atoms: N7_40  and  C8_37 
REMARK   21  A    between atoms: N7_40  and  C9_38 
ROOT
ATOM      1  H17 NA1 d   1       5.562  64.339  -2.054  0.00  0.00     0.132 H 
ATOM      2  H18 NA1 d   1       4.930  61.838  -0.371  0.00  0.00     0.084 H 
ATOM      3  H19 NA1 d   1       3.524  61.056  -2.145  0.00  0.00     0.090 H 
ATOM      4  H20 NA1 d   1       2.379  62.516  -0.581  0.00  0.00     0.091 H 
ATOM      5  H21 NA1 d   1       3.201  64.822  -2.422  0.00  0.00     0.090 H 
ATOM      6  C1  NAA d   1       5.288  63.854  -1.105  0.00  0.00     0.154 C 
ATOM      7  C2  NAA d   1       5.038  62.348  -1.340  0.00  0.00     0.087 C 
ATOM      8  C3  NAA d   1       3.777  62.126  -2.174  0.00  0.00     0.087 C 
ATOM      9  C4  NAA d   1       2.589  62.921  -1.582  0.00  0.00     0.095 C 
ATOM     10  C5  NAA d   1       2.962  64.394  -1.437  0.00  0.00     0.089 C 
ATOM     11  O5  NAA d   1       4.111  64.500  -0.554  0.00  0.00    -0.349 OA
ENDROOT
BRANCH   9  12
ATOM     12  O4  NAA d   1       1.404  62.803  -2.357  0.00  0.00    -0.348 OA
BRANCH  12  13
ATOM     13  C1  NA1 d   1       0.770  61.554  -2.123  0.00  0.00     0.154 C 
ATOM     14  C2  NA1 d   1      -0.644  61.704  -2.676  0.00  0.00     0.087 C 
ATOM     15  C3  NA1 d   1      -1.380  60.376  -2.648  0.00  0.00     0.086 C 
ATOM     16  H2  NA1 d   1      -0.583  62.037  -3.723  0.00  0.00     0.084 H 
ATOM     17  C4  NA1 d   1      -0.531  59.304  -3.363  0.00  0.00     0.089 C 
ATOM     18  H3  NA1 d   1      -2.349  60.477  -3.159  0.00  0.00     0.090 H 
ATOM     19  C5  NA1 d   1       0.858  59.227  -2.715  0.00  0.00     0.089 C 
ATOM     20  H4  NA1 d   1      -0.416  59.593  -4.418  0.00  0.00     0.091 H 
ATOM     21  O5  NA1 d   1       1.499  60.517  -2.821  0.00  0.00    -0.349 OA
ATOM     22  H5  NA1 d   1       0.743  58.967  -1.652  0.00  0.00     0.090 H 
ATOM     23  H1  NA1 d   1       0.739  61.326  -1.047  0.00  0.00     0.132 H 
BRANCH  14  24
ATOM     24  N2  NA1 d   1      -1.331  62.741  -1.896  0.00  0.00    -0.349 N 
ATOM     25  C7  NA1 d   1      -1.426  64.003  -2.349  0.00  0.00     0.214 C 
ATOM     26  O7  NA1 d   1      -1.012  64.377  -3.456  0.00  0.00    -0.274 OA
ATOM     27  H11 NA1 d   1      -1.735  62.504  -1.012  0.00  0.00     0.163 HD
BRANCH  25  28
ATOM     28  C8  NA1 d   1      -2.147  64.981  -1.409  0.00  0.00    -0.003 C 
ATOM     29  H8  NA1 d   1      -2.172  65.980  -1.868  0.00  0.00     0.040 H 
ATOM     30  H9  NA1 d   1      -1.610  65.031  -0.450  0.00  0.00     0.040 H 
ATOM     31  H10 NA1 d   1      -3.175  64.632  -1.235  0.00  0.00     0.040 H 
ENDBRANCH  25  28
ENDBRANCH  14  24
BRANCH  15  32
ATOM     32  O3  NA1 d   1      -1.592  60.004  -1.294  0.00  0.00    -0.391 OA
ATOM     33  H12 NA1 d   1      -2.048  59.171  -1.263  0.00  0.00     0.210 HD
ENDBRANCH  15  32
BRANCH  17  34
ATOM     34  O4  NA1 d   1      -1.169  58.022  -3.307  0.00  0.00    -0.390 OA
ATOM     35  H13 NA1 d   1      -1.261  57.755  -2.400  0.00  0.00     0.210 HD
ENDBRANCH  17  34
BRANCH  19  36
ATOM     36  C6  NA1 d   1       1.719  58.155  -3.396  0.00  0.00     0.045 C 
ATOM     37  H6  NA1 d   1       1.773  58.373  -4.473  0.00  0.00     0.078 H 
ATOM     38  H7  NA1 d   1       1.249  57.172  -3.244  0.00  0.00     0.078 H 
BRANCH  36  39
ATOM     39  O6  NA1 d   1       3.069  58.120  -2.855  0.00  0.00    -0.393 OA
BRANCH  39  40
ATOM     40  C9  NA1 d   1       3.068  57.765  -1.464  0.00  0.00     0.004 C 
ATOM     41  H14 NA1 d   1       4.102  57.748  -1.089  0.00  0.00     0.066 H 
ATOM     42  H15 NA1 d   1       2.617  56.770  -1.340  0.00  0.00     0.066 H 
ATOM     43  H16 NA1 d   1       2.484  58.505  -0.897  0.00  0.00     0.066 H 
ENDBRANCH  39  40
ENDBRANCH  36  39
ENDBRANCH  19  36
ENDBRANCH  12  13
ENDBRANCH   9  12
BRANCH   8  44
ATOM     44  O3  NAA d   1       4.019  62.496  -3.538  0.00  0.00    -0.391 OA
ATOM     45  H28 NA1 d   1       3.244  62.315  -4.056  0.00  0.00     0.210 HD
ENDBRANCH   8  44
BRANCH  10  46
ATOM     46  C6  NAA d   1       1.789  65.142  -0.812  0.00  0.00     0.043 C 
ATOM     47  H22 NA1 d   1       1.540  64.692   0.160  0.00  0.00     0.078 H 
ATOM     48  H23 NA1 d   1       0.916  65.082  -1.478  0.00  0.00     0.078 H 
BRANCH  46  49
ATOM     49  O6  NAA d   1       2.155  66.502  -0.627  0.00  0.00    -0.398 OA
ATOM     50  H29 NA1 d   1       1.428  66.974  -0.238  0.00  0.00     0.209 HD
ENDBRANCH  46  49
ENDBRANCH  10  46
BRANCH   7  51
ATOM     51  N2  NAA d   1       6.189  61.798  -2.071  0.00  0.00    -0.349 N 
ATOM     52  C7  NAA d   1       7.057  60.981  -1.490  0.00  0.00     0.214 C 
ATOM     53  O7  NAA d   1       6.916  60.650  -0.313  0.00  0.00    -0.274 OA
ATOM     54  H27 NA1 d   1       6.321  62.046  -3.031  0.00  0.00     0.163 HD
BRANCH  52  55
ATOM     55  C8  NAA d   1       8.257  60.478  -2.287  0.00  0.00    -0.003 C 
ATOM     56  H24 NA1 d   1       8.866  59.816  -1.654  0.00  0.00     0.040 H 
ATOM     57  H25 NA1 d   1       8.865  61.334  -2.614  0.00  0.00     0.040 H 
ATOM     58  H26 NA1 d   1       7.905  59.921  -3.167  0.00  0.00     0.040 H 
ENDBRANCH  52  55
ENDBRANCH   7  51
BRANCH   6  59
ATOM     59  O4  AMI d   1       6.362  63.965  -0.164  0.00  0.00    -0.351 OA
BRANCH  59  60
ATOM     60  C4  AMI d   1       6.939  65.284  -0.119  0.00  0.00     0.076 C 
ATOM     61  C3  AMI d   1       6.200  66.290   0.777  0.00  0.00     0.083 C 
ATOM     62  C2  AMI d   1       7.237  67.386   1.080  0.00  0.00     0.066 A 
ATOM     63  H32 NA1 d   1       5.834  65.815   1.699  0.00  0.00     0.090 H 
ATOM     64  C1  AMI d   1       8.617  66.690   1.041  0.00  0.00     0.078 A 
ATOM     65  N2  AMI d   1       7.159  67.830   2.468  0.00  0.00    -0.347 N 
ATOM     66  H31 NA1 d   1       7.152  68.224   0.372  0.00  0.00     0.080 H 
ATOM     67  C5  AMI d   1       8.258  65.260   0.631  0.00  0.00     0.022 C 
ATOM     68  O7  AMI d   1       9.103  66.690   2.429  0.00  0.00    -0.314 OA
ATOM     69  H30 NA1 d   1       9.330  67.165   0.351  0.00  0.00     0.088 H 
ATOM     70  H34 NA1 d   1       8.072  64.710   1.565  0.00  0.00     0.051 H 
ATOM     71  C7  AMI d   1       8.220  67.422   3.149  0.00  0.00     0.217 A 
ATOM     72  N7  AMI d   1       8.444  67.728   4.441  0.00  0.00    -0.356 N 
ATOM     73  H43 NA1 d   1       6.386  68.384   2.864  0.00  0.00     0.163 HD
ATOM     74  H33 NA1 d   1       7.046  65.664  -1.146  0.00  0.00     0.088 H 
BRANCH  61  75
ATOM     75  O3  AMI d   1       5.116  66.867   0.042  0.00  0.00    -0.391 OA
ATOM     76  H44 NA1 d   1       4.518  66.181  -0.229  0.00  0.00     0.210 HD
ENDBRANCH  61  75
BRANCH  67  77
ATOM     77  C6  AMI d   1       9.377  64.489  -0.070  0.00  0.00     0.025 C 
ATOM     78  H35 NA1 d   1       9.101  63.426  -0.138  0.00  0.00     0.074 H 
ATOM     79  H36 NA1 d   1      10.308  64.591   0.507  0.00  0.00     0.074 H 
BRANCH  77  80
ATOM     80  O6  AMI d   1       9.574  65.010  -1.379  0.00  0.00    -0.400 OA
ATOM     81  H45 NA1 d   1      10.270  64.527  -1.809  0.00  0.00     0.209 HD
ENDBRANCH  77  80
ENDBRANCH  67  77
BRANCH  72  82
ATOM     82  C8  AMI d   1       7.475  68.539   5.198  0.00  0.00    -0.016 C 
ATOM     83  H37 NA1 d   1       7.837  68.677   6.227  0.00  0.00     0.056 H 
ATOM     84  H38 NA1 d   1       6.503  68.025   5.218  0.00  0.00     0.056 H 
ATOM     85  H39 NA1 d   1       7.361  69.520   4.715  0.00  0.00     0.056 H 
ENDBRANCH  72  82
BRANCH  72  86
ATOM     86  C9  AMI d   1       9.656  67.237   5.117  0.00  0.00    -0.016 C 
ATOM     87  H40 NA1 d   1      10.261  66.654   4.407  0.00  0.00     0.056 H 
ATOM     88  H41 NA1 d   1       9.369  66.598   5.965  0.00  0.00     0.056 H 
ATOM     89  H42 NA1 d   1      10.243  68.092   5.484  0.00  0.00     0.056 H 
ENDBRANCH  72  86
ENDBRANCH  59  60
ENDBRANCH   6  59
TORSDOF 21
