REMARK  20 active torsions:
REMARK  status: ('A' for Active; 'I' for Inactive)
REMARK    1  A    between atoms: O4_25  and  C1_1 
REMARK    2  A    between atoms: C2_2  and  N2_9 
REMARK    3  A    between atoms: C3_3  and  O3_10 
REMARK    4  A    between atoms: C4_4  and  O4_11 
REMARK    5  A    between atoms: C5_5  and  C6_6 
REMARK    6  A    between atoms: C6_6  and  O6_13 
REMARK    7  A    between atoms: C7_7  and  C8_8 
REMARK       I    between atoms: N2_9  and  C7_7 
REMARK    8  A    between atoms: O4_41  and  C1_15 
REMARK    9  A    between atoms: C2_16  and  N2_23 
REMARK   10  A    between atoms: C3_17  and  O3_24 
REMARK   11  A    between atoms: C4_18  and  O4_25 
REMARK   12  A    between atoms: C5_19  and  C6_20 
REMARK   13  A    between atoms: C6_20  and  O6_27 
REMARK   14  A    between atoms: C7_21  and  C8_22 
REMARK       I    between atoms: N2_23  and  C7_21 
REMARK   15  A    between atoms: C3_31  and  O3_40 
REMARK   16  A    between atoms: C4_32  and  O4_41 
REMARK   17  A    between atoms: C5_33  and  C6_34 
REMARK   18  A    between atoms: C6_34  and  O6_42 
REMARK   19  A    between atoms: N7_39  and  C8_36 
REMARK   20  A    between atoms: N7_39  and  C9_37 
ROOT
ATOM      1  C1  NAA d   1       5.222  64.890  -1.886  0.00  0.00     0.154 C 
ATOM      2  C2  NAA d   1       5.028  63.385  -2.150  0.00  0.00     0.087 C 
ATOM      3  C3  NAA d   1       3.725  63.144  -2.948  0.00  0.00     0.087 C 
ATOM      4  C4  NAA d   1       2.538  63.898  -2.263  0.00  0.00     0.095 C 
ATOM      5  C5  NAA d   1       2.900  65.373  -2.116  0.00  0.00     0.089 C 
ATOM      6  O5  NAA d   1       4.052  65.494  -1.288  0.00  0.00    -0.349 OA
ATOM      7  H15 NAA d   1       5.458  65.407  -2.828  0.00  0.00     0.132 H 
ATOM      8  H16 NAA d   1       4.972  62.842  -1.195  0.00  0.00     0.084 H 
ATOM      9  H17 NAA d   1       3.503  62.067  -2.954  0.00  0.00     0.090 H 
ATOM     10  H18 NAA d   1       2.385  63.456  -1.267  0.00  0.00     0.091 H 
ATOM     11  H19 NAA d   1       3.095  65.808  -3.107  0.00  0.00     0.090 H 
ENDROOT
BRANCH   1  12
ATOM     12  O4  AMI d   1       6.302  64.996  -0.977  0.00  0.00    -0.351 OA
BRANCH  12  13
ATOM     13  C4  AMI d   1       6.843  66.305  -0.912  0.00  0.00     0.076 C 
ATOM     14  C3  AMI d   1       6.147  67.273   0.045  0.00  0.00     0.083 C 
ATOM     15  C2  AMI d   1       7.182  68.372   0.302  0.00  0.00     0.066 C 
ATOM     16  H30 NAA d   1       5.875  66.764   0.982  0.00  0.00     0.090 H 
ATOM     17  C1  AMI d   1       8.558  67.639   0.270  0.00  0.00     0.078 C 
ATOM     18  N2  AMI d   1       7.113  68.840   1.673  0.00  0.00    -0.347 N 
ATOM     19  H29 NAA d   1       7.100  69.192  -0.426  0.00  0.00     0.080 H 
ATOM     20  C5  AMI d   1       8.194  66.224  -0.216  0.00  0.00     0.022 C 
ATOM     21  O7  AMI d   1       8.997  67.568   1.660  0.00  0.00    -0.314 OA
ATOM     22  H28 NAA d   1       9.300  68.131  -0.376  0.00  0.00     0.088 H 
ATOM     23  H32 NAA d   1       8.073  65.588   0.673  0.00  0.00     0.051 H 
ATOM     24  C7  AMI d   1       8.143  68.367   2.368  0.00  0.00     0.217 C 
ATOM     25  N7  AMI d   1       8.327  68.624   3.671  0.00  0.00    -0.356 N 
ATOM     26  H41 NAA d   1       6.374  69.449   2.053  0.00  0.00     0.163 HD
ATOM     27  H31 NAA d   1       6.907  66.725  -1.927  0.00  0.00     0.088 H 
BRANCH  14  28
ATOM     28  O3  AMI d   1       4.974  67.833  -0.554  0.00  0.00    -0.391 OA
ATOM     29  H42 NAA d   1       4.369  67.135  -0.775  0.00  0.00     0.210 HD
ENDBRANCH  14  28
BRANCH  20  30
ATOM     30  C6  AMI d   1       9.296  65.564  -1.082  0.00  0.00     0.025 C 
ATOM     31  H33 NAA d   1       8.973  64.555  -1.376  0.00  0.00     0.074 H 
ATOM     32  H34 NAA d   1      10.226  65.496  -0.499  0.00  0.00     0.074 H 
BRANCH  30  33
ATOM     33  O6  AMI d   1       9.529  66.356  -2.265  0.00  0.00    -0.400 OA
ATOM     34  H43 NAA d   1      10.205  65.946  -2.791  0.00  0.00     0.209 HD
ENDBRANCH  30  33
ENDBRANCH  20  30
BRANCH  25  35
ATOM     35  C8  AMI d   1       7.355  69.447   4.415  0.00  0.00    -0.016 C 
ATOM     36  H35 NAA d   1       7.680  69.542   5.462  0.00  0.00     0.056 H 
ATOM     37  H36 NAA d   1       6.366  68.967   4.381  0.00  0.00     0.056 H 
ATOM     38  H37 NAA d   1       7.294  70.446   3.958  0.00  0.00     0.056 H 
ENDBRANCH  25  35
BRANCH  25  39
ATOM     39  C9  AMI d   1       9.536  68.128   4.359  0.00  0.00    -0.016 C 
ATOM     40  H38 NAA d   1      10.141  67.537   3.656  0.00  0.00     0.056 H 
ATOM     41  H39 NAA d   1       9.241  67.496   5.210  0.00  0.00     0.056 H 
ATOM     42  H40 NAA d   1      10.127  68.981   4.724  0.00  0.00     0.056 H 
ENDBRANCH  25  39
ENDBRANCH  12  13
ENDBRANCH   1  12
BRANCH   2  43
ATOM     43  N2  NAA d   1       6.207  62.925  -2.921  0.00  0.00    -0.349 N 
ATOM     44  C7  NAA d   1       7.134  62.123  -2.384  0.00  0.00     0.214 C 
ATOM     45  O7  NAA d   1       7.025  61.728  -1.224  0.00  0.00    -0.274 OA
ATOM     46  H25 NAA d   1       6.313  63.222  -3.870  0.00  0.00     0.163 HD
BRANCH  44  47
ATOM     47  C8  NAA d   1       8.373  61.732  -3.211  0.00  0.00    -0.003 C 
ATOM     48  H22 NAA d   1       9.020  61.074  -2.613  0.00  0.00     0.040 H 
ATOM     49  H23 NAA d   1       8.930  62.639  -3.489  0.00  0.00     0.040 H 
ATOM     50  H24 NAA d   1       8.054  61.204  -4.122  0.00  0.00     0.040 H 
ENDBRANCH  44  47
ENDBRANCH   2  43
BRANCH   3  51
ATOM     51  O3  NAA d   1       3.898  63.590  -4.307  0.00  0.00    -0.391 OA
ATOM     52  H26 NAA d   1       4.622  63.120  -4.703  0.00  0.00     0.210 HD
ENDBRANCH   3  51
BRANCH   5  53
ATOM     53  C6  NAA d   1       1.769  66.119  -1.431  0.00  0.00     0.043 C 
ATOM     54  H20 NAA d   1       1.617  65.711  -0.421  0.00  0.00     0.078 H 
ATOM     55  H21 NAA d   1       0.844  66.004  -2.016  0.00  0.00     0.078 H 
BRANCH  53  56
ATOM     56  O6  NAA d   1       2.109  67.501  -1.342  0.00  0.00    -0.398 OA
ATOM     57  H27 NAA d   1       1.404  67.972  -0.914  0.00  0.00     0.209 HD
ENDBRANCH  53  56
ENDBRANCH   5  53
BRANCH   4  58
ATOM     58  O4  NAA d   1       1.303  63.840  -2.976  0.00  0.00    -0.348 OA
BRANCH  58  59
ATOM     59  C1  NAA d   1       0.693  62.580  -2.885  0.00  0.00     0.154 C 
ATOM     60  C2  NAA d   1      -0.841  62.789  -2.952  0.00  0.00     0.087 C 
ATOM     61  C3  NAA d   1      -1.552  61.442  -3.187  0.00  0.00     0.086 C 
ATOM     62  H2  NAA d   1      -1.081  63.477  -3.776  0.00  0.00     0.084 H 
ATOM     63  C4  NAA d   1      -0.899  60.660  -4.357  0.00  0.00     0.089 C 
ATOM     64  H3  NAA d   1      -2.607  61.634  -3.434  0.00  0.00     0.090 H 
ATOM     65  C5  NAA d   1       0.621  60.509  -4.123  0.00  0.00     0.089 C 
ATOM     66  H4  NAA d   1      -1.071  61.200  -5.300  0.00  0.00     0.091 H 
ATOM     67  O5  NAA d   1       1.188  61.822  -4.009  0.00  0.00    -0.349 OA
ATOM     68  H5  NAA d   1       0.802  59.917  -3.214  0.00  0.00     0.090 H 
ATOM     69  H1  NAA d   1       0.960  62.079  -1.943  0.00  0.00     0.132 H 
BRANCH  60  70
ATOM     70  N2  NAA d   1      -1.305  63.368  -1.666  0.00  0.00    -0.349 N 
ATOM     71  C7  NAA d   1      -1.641  64.647  -1.483  0.00  0.00     0.214 C 
ATOM     72  O7  NAA d   1      -1.633  65.509  -2.362  0.00  0.00    -0.274 OA
ATOM     73  H11 NAA d   1      -1.371  62.755  -0.879  0.00  0.00     0.163 HD
BRANCH  71  74
ATOM     74  C8  NAA d   1      -2.071  64.985  -0.053  0.00  0.00    -0.003 C 
ATOM     75  H8  NAA d   1      -2.329  66.052   0.010  0.00  0.00     0.040 H 
ATOM     76  H9  NAA d   1      -1.245  64.766   0.640  0.00  0.00     0.040 H 
ATOM     77  H10 NAA d   1      -2.948  64.379   0.219  0.00  0.00     0.040 H 
ENDBRANCH  71  74
ENDBRANCH  60  70
BRANCH  61  78
ATOM     78  O3  NAA d   1      -1.484  60.659  -1.989  0.00  0.00    -0.391 OA
ATOM     79  H12 NAA d   1      -1.948  59.840  -2.120  0.00  0.00     0.210 HD
ENDBRANCH  61  78
BRANCH  63  80
ATOM     80  O4  NAA d   1      -1.491  59.368  -4.429  0.00  0.00    -0.390 OA
ATOM     81  H13 NAA d   1      -1.337  58.905  -3.614  0.00  0.00     0.210 HD
ENDBRANCH  63  80
BRANCH  65  82
ATOM     82  C6  NAA d   1       1.328  59.867  -5.335  0.00  0.00     0.043 C 
ATOM     83  H6  NAA d   1       0.796  58.950  -5.628  0.00  0.00     0.078 H 
ATOM     84  H7  NAA d   1       2.366  59.619  -5.067  0.00  0.00     0.078 H 
BRANCH  82  85
ATOM     85  O6  NAA d   1       1.323  60.805  -6.440  0.00  0.00    -0.398 OA
ATOM     86  H14 NAA d   1       1.782  61.596  -6.184  0.00  0.00     0.209 HD
ENDBRANCH  82  85
ENDBRANCH  65  82
ENDBRANCH  58  59
ENDBRANCH   4  58
TORSDOF 20
