REMARK  19 active torsions:
REMARK  status: ('A' for Active; 'I' for Inactive)
REMARK    1  A    between atoms: O4_25  and  C1_1 
REMARK    2  A    between atoms: C2_2  and  N2_9 
REMARK    3  A    between atoms: C3_3  and  O3_10 
REMARK    4  A    between atoms: C4_4  and  O4_11 
REMARK    5  A    between atoms: C5_5  and  C6_6 
REMARK    6  A    between atoms: C6_6  and  O6_13 
REMARK    7  A    between atoms: C7_7  and  C8_8 
REMARK       I    between atoms: N2_9  and  C7_7 
REMARK    8  A    between atoms: O4_40  and  C1_15 
REMARK    9  A    between atoms: C2_16  and  N2_23 
REMARK   10  A    between atoms: C3_17  and  O3_24 
REMARK   11  A    between atoms: C4_18  and  O4_25 
REMARK   12  A    between atoms: C5_19  and  C6_20 
REMARK   13  A    between atoms: C6_20  and  O6_27 
REMARK   14  A    between atoms: C7_21  and  C8_22 
REMARK       I    between atoms: N2_23  and  C7_21 
REMARK   15  A    between atoms: C3_31  and  O3_39 
REMARK   16  A    between atoms: C4_32  and  O4_40 
REMARK   17  A    between atoms: C5_33  and  C6_34 
REMARK   18  A    between atoms: C6_34  and  O6_41 
REMARK   19  A    between atoms: C7_35  and  N7_38 
ROOT
ATOM      1  C1  NAA d   1       5.484  63.760  -0.981  0.00  0.00     0.154 C 
ATOM      2  C2  NAA d   1       5.258  62.263  -1.256  0.00  0.00     0.087 C 
ATOM      3  C3  NAA d   1       4.007  62.041  -2.131  0.00  0.00     0.087 C 
ATOM      4  C4  NAA d   1       2.791  62.790  -1.531  0.00  0.00     0.095 C 
ATOM      5  C5  NAA d   1       3.160  64.263  -1.356  0.00  0.00     0.089 C 
ATOM      6  O5  NAA d   1       4.286  64.359  -0.431  0.00  0.00    -0.349 OA
ATOM      7  H15 NAA d   1       5.755  64.274  -1.915  0.00  0.00     0.132 H 
ATOM      8  H16 NAA d   1       5.119  61.738  -0.299  0.00  0.00     0.084 H 
ATOM      9  H17 NAA d   1       3.781  60.965  -2.163  0.00  0.00     0.090 H 
ATOM     10  H18 NAA d   1       2.561  62.353  -0.548  0.00  0.00     0.091 H 
ATOM     11  H19 NAA d   1       3.442  64.692  -2.329  0.00  0.00     0.090 H 
ENDROOT
BRANCH   4  12
ATOM     12  O4  NAA d   1       1.624  62.698  -2.352  0.00  0.00    -0.348 OA
BRANCH  12  13
ATOM     13  C1  NAA d   1       0.997  61.423  -2.245  0.00  0.00     0.154 C 
ATOM     14  C2  NAA d   1      -0.498  61.638  -2.536  0.00  0.00     0.087 C 
ATOM     15  C3  NAA d   1      -1.229  60.305  -2.683  0.00  0.00     0.086 C 
ATOM     16  H2  NAA d   1      -0.601  62.201  -3.475  0.00  0.00     0.084 H 
ATOM     17  C4  NAA d   1      -0.483  59.385  -3.669  0.00  0.00     0.089 C 
ATOM     18  H3  NAA d   1      -2.244  60.490  -3.065  0.00  0.00     0.090 H 
ATOM     19  C5  NAA d   1       0.970  59.213  -3.213  0.00  0.00     0.089 C 
ATOM     20  H4  NAA d   1      -0.496  59.844  -4.668  0.00  0.00     0.091 H 
ATOM     21  O5  NAA d   1       1.601  60.519  -3.210  0.00  0.00    -0.349 OA
ATOM     22  H5  NAA d   1       0.992  58.788  -2.199  0.00  0.00     0.090 H 
ATOM     23  H1  NAA d   1       1.126  61.016  -1.231  0.00  0.00     0.132 H 
BRANCH  14  24
ATOM     24  N2  NAA d   1      -1.085  62.420  -1.439  0.00  0.00    -0.349 N 
ATOM     25  C7  NAA d   1      -1.234  63.746  -1.499  0.00  0.00     0.214 C 
ATOM     26  O7  NAA d   1      -0.929  64.431  -2.476  0.00  0.00    -0.274 OA
ATOM     27  H11 NAA d   1      -1.385  61.940  -0.615  0.00  0.00     0.163 HD
BRANCH  25  28
ATOM     28  C8  NAA d   1      -1.851  64.387  -0.250  0.00  0.00    -0.003 C 
ATOM     29  H8  NAA d   1      -1.931  65.474  -0.397  0.00  0.00     0.040 H 
ATOM     30  H9  NAA d   1      -1.212  64.181   0.621  0.00  0.00     0.040 H 
ATOM     31  H10 NAA d   1      -2.852  63.965  -0.078  0.00  0.00     0.040 H 
ENDBRANCH  25  28
ENDBRANCH  14  24
BRANCH  15  32
ATOM     32  O3  NAA d   1      -1.314  59.685  -1.408  0.00  0.00    -0.391 OA
ATOM     33  H12 NAA d   1      -1.785  58.864  -1.487  0.00  0.00     0.210 HD
ENDBRANCH  15  32
BRANCH  17  34
ATOM     34  O4  NAA d   1      -1.120  58.104  -3.735  0.00  0.00    -0.390 OA
ATOM     35  H13 NAA d   1      -2.020  58.214  -4.018  0.00  0.00     0.210 HD
ENDBRANCH  17  34
BRANCH  19  36
ATOM     36  C6  NAA d   1       1.717  58.278  -4.172  0.00  0.00     0.043 C 
ATOM     37  H6  NAA d   1       1.815  58.764  -5.154  0.00  0.00     0.078 H 
ATOM     38  H7  NAA d   1       1.152  57.341  -4.282  0.00  0.00     0.078 H 
BRANCH  36  39
ATOM     39  O6  NAA d   1       3.021  57.989  -3.652  0.00  0.00    -0.398 OA
ATOM     40  H14 NAA d   1       3.510  58.798  -3.558  0.00  0.00     0.209 HD
ENDBRANCH  36  39
ENDBRANCH  19  36
ENDBRANCH  12  13
ENDBRANCH   4  12
BRANCH   3  41
ATOM     41  O3  NAA d   1       4.256  62.504  -3.461  0.00  0.00    -0.391 OA
ATOM     42  H26 NAA d   1       3.491  62.342  -4.000  0.00  0.00     0.210 HD
ENDBRANCH   3  41
BRANCH   5  43
ATOM     43  C6  NAA d   1       1.967  65.029  -0.786  0.00  0.00     0.043 C 
ATOM     44  H20 NAA d   1       1.687  64.603   0.189  0.00  0.00     0.078 H 
ATOM     45  H21 NAA d   1       1.115  64.953  -1.478  0.00  0.00     0.078 H 
BRANCH  43  46
ATOM     46  O6  NAA d   1       2.329  66.397  -0.623  0.00  0.00    -0.398 OA
ATOM     47  H27 NAA d   1       1.591  66.879  -0.269  0.00  0.00     0.209 HD
ENDBRANCH  43  46
ENDBRANCH   5  43
BRANCH   2  48
ATOM     48  N2  NAA d   1       6.452  61.727  -1.938  0.00  0.00    -0.349 N 
ATOM     49  C7  NAA d   1       7.314  60.916  -1.311  0.00  0.00     0.214 C 
ATOM     50  O7  NAA d   1       7.132  60.583  -0.138  0.00  0.00    -0.274 OA
ATOM     51  H25 NAA d   1       6.622  61.975  -2.892  0.00  0.00     0.163 HD
BRANCH  49  52
ATOM     52  C8  NAA d   1       8.552  60.417  -2.054  0.00  0.00    -0.003 C 
ATOM     53  H22 NAA d   1       9.141  59.767  -1.390  0.00  0.00     0.040 H 
ATOM     54  H23 NAA d   1       9.165  61.276  -2.364  0.00  0.00     0.040 H 
ATOM     55  H24 NAA d   1       8.242  59.848  -2.943  0.00  0.00     0.040 H 
ENDBRANCH  49  52
ENDBRANCH   2  48
BRANCH   1  56
ATOM     56  O4  ALI d   1       6.551  63.872  -0.035  0.00  0.00    -0.351 OA
BRANCH  56  57
ATOM     57  C4  ALI d   1       7.131  65.195   0.018  0.00  0.00     0.076 C 
ATOM     58  C3  ALI d   1       6.388  66.229   0.863  0.00  0.00     0.085 C 
ATOM     59  C2  ALI d   1       7.420  67.320   1.156  0.00  0.00     0.089 C 
ATOM     60  H30 NAA d   1       6.009  65.781   1.794  0.00  0.00     0.090 H 
ATOM     61  C1  ALI d   1       8.794  66.606   1.202  0.00  0.00     0.080 C 
ATOM     62  N2  ALI d   1       7.288  67.828   2.511  0.00  0.00    -0.239 NA
ATOM     63  H29 NAA d   1       7.375  68.125   0.407  0.00  0.00     0.084 H 
ATOM     64  C5  ALI d   1       8.458  65.177   0.767  0.00  0.00     0.022 C 
ATOM     65  O7  ALI d   1       9.187  66.613   2.614  0.00  0.00    -0.311 OA
ATOM     66  H28 NAA d   1       9.553  67.075   0.559  0.00  0.00     0.088 H 
ATOM     67  H32 NAA d   1       8.312  64.580   1.679  0.00  0.00     0.051 H 
ATOM     68  C7  ALI d   1       8.288  67.410   3.259  0.00  0.00     0.263 C 
ATOM     69  H31 NAA d   1       7.253  65.558  -1.013  0.00  0.00     0.088 H 
BRANCH  58  70
ATOM     70  O3  ALI d   1       5.308  66.782   0.106  0.00  0.00    -0.391 OA
ATOM     71  H37 NAA d   1       4.709  66.088  -0.143  0.00  0.00     0.210 HD
ENDBRANCH  58  70
BRANCH  64  72
ATOM     72  C6  ALI d   1       9.592  64.507  -0.016  0.00  0.00     0.025 C 
ATOM     73  H33 NAA d   1       9.312  63.469  -0.247  0.00  0.00     0.074 H 
ATOM     74  H34 NAA d   1      10.509  64.513   0.592  0.00  0.00     0.074 H 
BRANCH  72  75
ATOM     75  O6  ALI d   1       9.825  65.214  -1.228  0.00  0.00    -0.400 OA
ATOM     76  H38 NAA d   1      10.529  64.794  -1.708  0.00  0.00     0.209 HD
ENDBRANCH  72  75
ENDBRANCH  64  72
BRANCH  68  77
ATOM     77  N7  ALI d   1       8.422  67.755   4.545  0.00  0.00    -0.231 NA
ATOM     78  C8  ALI d   1       9.444  67.311   5.260  0.00  0.00    -0.039 C 
ATOM     79  H35 NAA d   1       9.543  67.599   6.306  0.00  0.00     0.096 H 
ATOM     80  H36 NAA d   1      10.186  66.658   4.802  0.00  0.00     0.096 H 
ENDBRANCH  68  77
ENDBRANCH  56  57
ENDBRANCH   1  56
TORSDOF 19
