REMARK  5 active torsions:
REMARK  status: ('A' for Active; 'I' for Inactive)
REMARK    1  A    between atoms: C2_2  and  O2_3 
REMARK    2  A    between atoms: C3_4  and  O3_5 
REMARK    3  A    between atoms: C4_6  and  O4_7 
REMARK    4  A    between atoms: C5_8  and  C6_9 
REMARK    5  A    between atoms: C6_9  and  O6_10 
ROOT
ATOM      1  C1  GL4 d   1      33.914  22.747  27.816  0.00  0.00     0.249 A 
ATOM      2  C2  GL4 d   1      33.959  23.109  26.294  0.00  0.00     0.120 C 
ATOM      3  C3  GL4 d   1      32.684  22.562  25.568  0.00  0.00     0.092 C 
ATOM      4  C4  GL4 d   1      32.465  21.048  25.897  0.00  0.00     0.090 C 
ATOM      5  C5  GL4 d   1      32.426  20.823  27.461  0.00  0.00     0.089 C 
ATOM      6  O5  GL4 d   1      33.631  21.360  28.065  0.00  0.00    -0.340 OA
ATOM      7  N2  GL4 d   1      35.242  23.145  28.375  0.00  0.00    -0.325 N 
ATOM      8  C8  GL4 d   1      35.032  24.094  29.283  0.00  0.00     0.177 A 
ATOM      9  S8  GL4 d   1      36.311  24.734  30.171  0.00  0.00    -0.041 SA
ATOM     10  N1  GL4 d   1      33.758  24.460  29.473  0.00  0.00    -0.300 N 
ATOM     11  C7  GL4 d   1      33.047  23.677  28.630  0.00  0.00     0.282 A 
ATOM     12  O7  GL4 d   1      31.821  23.749  28.605  0.00  0.00    -0.267 OA
ATOM     13  H1  GL4 d   1      34.853  22.649  25.848  0.00  0.00     0.095 H 
ATOM     14  H3  GL4 d   1      31.802  23.133  25.893  0.00  0.00     0.091 H 
ATOM     15  H5  GL4 d   1      33.300  20.469  25.476  0.00  0.00     0.091 H 
ATOM     16  H7  GL4 d   1      31.548  21.348  27.865  0.00  0.00     0.090 H 
ATOM     17  H11 GL4 d   1      36.129  22.766  28.113  0.00  0.00     0.165 HD
ATOM     18  H12 GL4 d   1      33.410  25.157  30.099  0.00  0.00     0.171 HD
ENDROOT
BRANCH   2  19
ATOM     19  O2  GL4 d   1      34.023  24.530  26.110  0.00  0.00    -0.387 OA
ATOM     20  H2  GL4 d   1      34.049  24.727  25.181  0.00  0.00     0.210 HD
ENDBRANCH   2  19
BRANCH   3  21
ATOM     21  O3  GL4 d   1      32.874  22.729  24.170  0.00  0.00    -0.390 OA
ATOM     22  H4  GL4 d   1      32.994  23.651  23.976  0.00  0.00     0.210 HD
ENDBRANCH   3  21
BRANCH   5  23
ATOM     23  C6  GL4 d   1      32.342  19.366  27.842  0.00  0.00     0.043 C 
ATOM     24  H8  GL4 d   1      31.411  18.932  27.449  0.00  0.00     0.078 H 
ATOM     25  H9  GL4 d   1      32.359  19.267  28.937  0.00  0.00     0.078 H 
BRANCH  23  26
ATOM     26  O6  GL4 d   1      33.452  18.697  27.285  0.00  0.00    -0.398 OA
ATOM     27  H10 GL4 d   1      34.253  19.077  27.625  0.00  0.00     0.209 HD
ENDBRANCH  23  26
ENDBRANCH   5  23
BRANCH   4  28
ATOM     28  O4  GL4 d   1      31.270  20.605  25.320  0.00  0.00    -0.390 OA
ATOM     29  H6  GL4 d   1      30.545  21.110  25.668  0.00  0.00     0.210 HD
ENDBRANCH   4  28
TORSDOF 5
