REMARK  1 active torsions:
REMARK  status: ('A' for Active; 'I' for Inactive)
REMARK    1  A    between atoms: C5_5  and  N1_15 
ROOT
ATOM      1  C1  ANC d   1       0.521  -0.644   5.540  0.00  0.00    -0.023 A 
ATOM      2  C2  ANC d   1       1.281  -0.249   4.383  0.00  0.00    -0.072 A 
ATOM      3  C3  ANC d   1      -0.864  -0.347   5.625  0.00  0.00     0.001 A 
ATOM      4  C4  ANC d   1       0.622   0.460   3.303  0.00  0.00    -0.080 A 
ATOM      5  C5  ANC d   1      -1.510   0.353   4.563  0.00  0.00     0.036 A 
ATOM      6  C6  ANC d   1      -0.793   0.748   3.421  0.00  0.00    -0.057 A 
ATOM      7  C7  ANC d   1      -1.138  -2.528  10.037  0.00  0.00    -0.082 A 
ATOM      8  C8  ANC d   1       0.358  -2.858   9.934  0.00  0.00    -0.082 A 
ATOM      9  C9  ANC d   1      -1.765  -1.828   8.986  0.00  0.00    -0.072 A 
ATOM     10  C10 ANC d   1       1.044  -2.438   8.780  0.00  0.00    -0.072 A 
ATOM     11  C11 ANC d   1      -1.019  -1.431   7.838  0.00  0.00    -0.025 A 
ATOM     12  C12 ANC d   1       0.378  -1.737   7.745  0.00  0.00    -0.025 A 
ATOM     13  C13 ANC d   1       1.211  -1.336   6.553  0.00  0.00    -0.061 A 
ATOM     14  C14 ANC d   1      -1.723  -0.678   6.709  0.00  0.00    -0.059 A 
ATOM     15  H1  ANC d   1       2.338  -0.480   4.319  0.00  0.00     0.084 H 
ATOM     16  H2  ANC d   1       1.177   0.768   2.425  0.00  0.00     0.083 H 
ATOM     17  H3  ANC d   1      -1.303   1.273   2.621  0.00  0.00     0.086 H 
ATOM     18  H4  ANC d   1      -1.706  -2.830  10.909  0.00  0.00     0.083 H 
ATOM     19  H5  ANC d   1       0.869  -3.397  10.724  0.00  0.00     0.083 H 
ATOM     20  H6  ANC d   1      -2.821  -1.590   9.051  0.00  0.00     0.084 H 
ATOM     21  H7  ANC d   1       2.102  -2.655   8.681  0.00  0.00     0.084 H 
ATOM     22  H8  ANC d   1       2.268  -1.565   6.481  0.00  0.00     0.086 H 
ATOM     23  H9  ANC d   1      -2.776  -0.421   6.732  0.00  0.00     0.086 H 
ENDROOT
BRANCH   5  24
ATOM     24  N1  ANC d   1      -2.984   0.690   4.612  0.00  0.00    -0.398 N 
ATOM     25  H10 ANC d   1      -3.423   1.196   3.830  0.00  0.00     0.156 HD
ATOM     26  H11 ANC d   1      -3.549   0.413   5.428  0.00  0.00     0.156 HD
ENDBRANCH   5  24
TORSDOF 1
