REMARK  5 active torsions:
REMARK  status: ('A' for Active; 'I' for Inactive)
REMARK    1  A    between atoms: O5'_1  and  C5'_2 
REMARK    2  A    between atoms: C5'_2  and  C4'_3 
REMARK    3  A    between atoms: C3'_5  and  O3'_6 
REMARK    4  A    between atoms: C2'_7  and  O2'_8 
REMARK    5  A    between atoms: C1'_9  and  N9_10 
ROOT
ATOM      1  C4' AD3 d   1      15.404  26.078  10.204  0.00  0.00     0.088 C 
ATOM      2  O4' AD3 d   1      15.246  25.808  11.632  0.00  0.00    -0.353 OA
ATOM      3  C3' AD3 d   1      16.503  27.136  10.018  0.00  0.00     0.091 C 
ATOM      4  C2' AD3 d   1      16.913  27.568  11.455  0.00  0.00     0.105 C 
ATOM      5  C1' AD3 d   1      16.022  26.742  12.388  0.00  0.00     0.138 C 
ATOM      6  H4  AD3 d   1      14.473  26.235   9.639  0.00  0.00     0.090 H 
ATOM      7  H5  AD3 d   1      17.380  26.711   9.508  0.00  0.00     0.091 H 
ATOM      8  H7  AD3 d   1      17.964  27.277  11.601  0.00  0.00     0.093 H 
ATOM      9  H9  AD3 d   1      15.283  27.469  12.757  0.00  0.00     0.122 H 
ENDROOT
BRANCH   5  10
ATOM     10  N9  AD3 d   1      16.631  26.220  13.655  0.00  0.00    -0.309 N 
ATOM     11  C4  AD3 d   1      16.787  24.905  14.073  0.00  0.00     0.071 A 
ATOM     12  C5  AD3 d   1      17.442  24.968  15.334  0.00  0.00     0.130 A 
ATOM     13  C3  AD3 d   1      16.384  23.744  13.388  0.00  0.00    -0.037 A 
ATOM     14  N7  AD3 d   1      17.692  26.298  15.712  0.00  0.00    -0.238 NA
ATOM     15  C6  AD3 d   1      17.723  23.689  15.966  0.00  0.00     0.152 A 
ATOM     16  C8  AD3 d   1      17.202  26.988  14.700  0.00  0.00     0.069 A 
ATOM     17  H10 AD3 d   1      17.234  28.076  14.670  0.00  0.00     0.143 H 
ATOM     18  N1  AD3 d   1      17.332  22.545  15.295  0.00  0.00    -0.241 NA
ATOM     19  N6  AD3 d   1      18.331  23.571  17.143  0.00  0.00    -0.382 N 
ATOM     20  C2  AD3 d   1      16.706  22.626  14.088  0.00  0.00     0.007 A 
ATOM     21  H13 AD3 d   1      16.431  21.683  13.630  0.00  0.00     0.114 H 
ATOM     22  H11 AD3 d   1      18.504  22.637  17.542  0.00  0.00     0.157 HD
ATOM     23  H12 AD3 d   1      18.629  24.413  17.655  0.00  0.00     0.157 HD
ATOM     24  H14 AD3 d   1      15.882  23.742  12.427  0.00  0.00     0.089 H 
ENDBRANCH   5  10
BRANCH   4  25
ATOM     25  O2' AD3 d   1      16.817  28.951  11.808  0.00  0.00    -0.388 OA
ATOM     26  H8  AD3 d   1      17.369  29.463  11.229  0.00  0.00     0.210 HD
ENDBRANCH   4  25
BRANCH   1  27
ATOM     27  C5' AD3 d   1      16.298  24.865   9.847  0.00  0.00     0.043 C 
ATOM     28  H2  AD3 d   1      16.591  24.952   8.790  0.00  0.00     0.078 H 
ATOM     29  H3  AD3 d   1      17.197  24.901  10.480  0.00  0.00     0.078 H 
BRANCH  27  30
ATOM     30  O5' AD3 d   1      15.670  23.598  10.034  0.00  0.00    -0.398 OA
ATOM     31  H1  AD3 d   1      14.896  23.545   9.485  0.00  0.00     0.209 HD
ENDBRANCH  27  30
ENDBRANCH   1  27
BRANCH   3  32
ATOM     32  O3' AD3 d   1      15.934  28.152   9.191  0.00  0.00    -0.390 OA
ATOM     33  H6  AD3 d   1      16.560  28.859   9.084  0.00  0.00     0.210 HD
ENDBRANCH   3  32
TORSDOF 5
