REMARK  10 active torsions:
REMARK  status: ('A' for Active; 'I' for Inactive)
REMARK    1  A    between atoms: CA_3  and  N_2 
REMARK    2  A    between atoms: CA_3  and  C_4 
REMARK    3  A    between atoms: CA_3  and  CB_6 
REMARK    4  A    between atoms: CB_6  and  SG_7 
REMARK    5  A    between atoms: SG_7  and  CD_8 
REMARK    6  A    between atoms: CD_8  and  CE_9 
REMARK    7  A    between atoms: CE_9  and  B_10 
REMARK    8  A    between atoms: B_10  and  O1_11 
REMARK    9  A    between atoms: B_10  and  O2_12 
REMARK   10  A    between atoms: B_10  and  O3_13 
ROOT
ATOM      1  SG  S2C d   1      20.547  12.318  -5.775  0.00  0.00    -0.167 SA
ENDROOT
BRANCH   1   2
ATOM      2  CB  S2C d   1      21.917  12.387  -4.630  0.00  0.00     0.013 C 
ATOM      3  H5  S2C d   1      22.292  13.420  -4.575  0.00  0.00     0.052 H 
ATOM      4  H6  S2C d   1      21.574  12.068  -3.635  0.00  0.00     0.052 H 
BRANCH   2   5
ATOM      5  CA  S2C d   1      23.038  11.471  -5.091  0.00  0.00     0.190 C 
ATOM      6  H4  S2C d   1      22.695  10.892  -5.961  0.00  0.00     0.102 H 
BRANCH   5   7
ATOM      7  N   S2C d   1      23.277  10.556  -3.942  0.00  0.00    -0.065 N 
ATOM      8  H1  S2C d   1      22.418  10.087  -3.701  0.00  0.00     0.275 HD
ATOM      9  H2  S2C d   1      23.602  11.088  -3.150  0.00  0.00     0.275 HD
ATOM     10  H3  S2C d   1      23.973   9.873  -4.196  0.00  0.00     0.275 HD
ENDBRANCH   5   7
BRANCH   5  11
ATOM     11  C   S2C d   1      24.347  12.221  -5.499  0.00  0.00     0.205 C 
ATOM     12  OXT S2C d   1      24.190  12.907  -6.634  0.00  0.00    -0.646 OA
ATOM     13  O   S2C d   1      25.403  12.206  -4.903  0.00  0.00    -0.646 OA
ENDBRANCH   5  11
ENDBRANCH   2   5
ENDBRANCH   1   2
BRANCH   1  14
ATOM     14  CD  S2C d   1      19.425  13.327  -4.817  0.00  0.00    -0.023 C 
ATOM     15  H7  S2C d   1      19.995  14.090  -4.267  0.00  0.00     0.048 H 
ATOM     16  H8  S2C d   1      18.877  12.693  -4.104  0.00  0.00     0.048 H 
BRANCH  14  17
ATOM     17  CE  S2C d   1      18.444  14.003  -5.753  0.00  0.00     0.005 C 
ATOM     18  H9  S2C d   1      17.974  13.226  -6.374  0.00  0.00     0.035 H 
ATOM     19  H10 S2C d   1      19.007  14.696  -6.396  0.00  0.00     0.035 H 
BRANCH  17  20
ATOM     20  B   S2C d   1      17.320  14.804  -5.052  0.00  0.00     0.604 B 
BRANCH  20  21
ATOM     21  O1  S2C d   1      17.615  16.206  -4.929  0.00  0.00    -0.410 OA
ATOM     22  H11 S2C d   1      18.414  16.317  -4.428  0.00  0.00     0.188 HD
ENDBRANCH  20  21
BRANCH  20  23
ATOM     23  O2  S2C d   1      16.113  14.693  -5.812  0.00  0.00    -0.410 OA
ATOM     24  H12 S2C d   1      15.411  15.145  -5.358  0.00  0.00     0.188 HD
ENDBRANCH  20  23
BRANCH  20  25
ATOM     25  O3  S2C d   1      17.036  14.294  -3.710  0.00  0.00    -0.410 OA
ATOM     26  H13 S2C d   1      16.292  14.759  -3.346  0.00  0.00     0.188 HD
ENDBRANCH  20  25
ENDBRANCH  17  20
ENDBRANCH  14  17
ENDBRANCH   1  14
TORSDOF 10
