REMARK  7 active torsions:
REMARK  status: ('A' for Active; 'I' for Inactive)
REMARK    1  A    between atoms: N_1  and  CA_2 
REMARK    2  A    between atoms: CA_2  and  C_3 
REMARK    3  A    between atoms: CA_2  and  CB_5 
REMARK    4  A    between atoms: CB_5  and  CG_6 
REMARK    5  A    between atoms: CG_6  and  CD_7 
REMARK    6  A    between atoms: CD_7  and  NE_8 
REMARK       I    between atoms: NE_8  and  CZ_9 
REMARK       I    between atoms: CZ_9  and  NH1_10 
REMARK    7  A    between atoms: NH1_10  and  OH1_12 
ROOT
ATOM      1  CG  HAR d   1      -4.329  45.979  10.273  0.00  0.00    -0.047 C 
ATOM      2  H7  HAR d   1      -4.625  45.877  11.328  0.00  0.00     0.035 H 
ATOM      3  H8  HAR d   1      -3.472  46.665  10.197  0.00  0.00     0.035 H 
ENDROOT
BRANCH   1   4
ATOM      4  CB  HAR d   1      -5.473  46.547   9.503  0.00  0.00    -0.028 C 
ATOM      5  H5  HAR d   1      -5.622  45.954   8.589  0.00  0.00     0.036 H 
ATOM      6  H6  HAR d   1      -6.381  46.502  10.121  0.00  0.00     0.036 H 
BRANCH   4   7
ATOM      7  CA  HAR d   1      -5.197  48.023   9.112  0.00  0.00     0.182 C 
ATOM      8  H4  HAR d   1      -6.147  48.491   8.814  0.00  0.00     0.101 H 
BRANCH   7   9
ATOM      9  N   HAR d   1      -4.248  48.081   7.923  0.00  0.00    -0.065 N 
ATOM     10  H1  HAR d   1      -4.647  47.572   7.150  0.00  0.00     0.275 HD
ATOM     11  H2  HAR d   1      -3.365  47.668   8.178  0.00  0.00     0.275 HD
ATOM     12  H3  HAR d   1      -4.104  49.042   7.654  0.00  0.00     0.275 HD
ENDBRANCH   7   9
BRANCH   7  13
ATOM     13  C   HAR d   1      -4.618  48.827  10.404  0.00  0.00     0.204 C 
ATOM     14  O   HAR d   1      -5.328  48.805  11.513  0.00  0.00    -0.646 OA
ATOM     15  OXT HAR d   1      -3.457  49.433  10.293  0.00  0.00    -0.646 OA
ENDBRANCH   7  13
ENDBRANCH   4   7
ENDBRANCH   1   4
BRANCH   1  16
ATOM     16  CD  HAR d   1      -3.927  44.648   9.756  0.00  0.00     0.009 C 
ATOM     17  H9  HAR d   1      -3.662  44.730   8.692  0.00  0.00     0.064 H 
ATOM     18  H10 HAR d   1      -4.761  43.940   9.873  0.00  0.00     0.064 H 
BRANCH  16  19
ATOM     19  NE  HAR d   1      -2.776  44.175  10.510  0.00  0.00    -0.225 N 
ATOM     20  CZ  HAR d   1      -2.142  43.037  10.299  0.00  0.00     0.691 C 
ATOM     21  NH1 HAR d   1      -2.527  42.193   9.331  0.00  0.00    -0.099 N 
ATOM     22  NH2 HAR d   1      -1.092  42.735  11.048  0.00  0.00    -0.233 N 
ATOM     23  H12 HAR d   1      -3.348  42.395   8.742  0.00  0.00     0.213 HD
ATOM     24  H13 HAR d   1      -0.789  43.378  11.794  0.00  0.00     0.174 HD
ATOM     25  H14 HAR d   1      -0.578  41.857  10.885  0.00  0.00     0.174 HD
ATOM     26  H11 HAR d   1      -2.428  44.777  11.270  0.00  0.00     0.177 HD
BRANCH  21  27
ATOM     27  OH1 HAR d   1      -1.802  41.073   9.157  0.00  0.00    -0.276 OA
ATOM     28  H15 HAR d   1      -2.174  40.563   8.447  0.00  0.00     0.245 HD
ENDBRANCH  21  27
ENDBRANCH  16  19
ENDBRANCH   1  16
TORSDOF 7
