REMARK  6 active torsions:
REMARK  status: ('A' for Active; 'I' for Inactive)
REMARK    1  A    between atoms: N_1  and  CA_2 
REMARK    2  A    between atoms: CA_2  and  CB_3 
REMARK    3  A    between atoms: CA_2  and  C_7 
REMARK    4  A    between atoms: CB_3  and  CG_4 
REMARK    5  A    between atoms: CG_4  and  CD_5 
REMARK    6  A    between atoms: CD_5  and  NE_6 
ROOT
ATOM      1  CB  ORN d   1      37.165  21.999  -8.704  0.00  0.00    -0.027 C 
ATOM      2  H5  ORN d   1      36.226  21.519  -8.390  0.00  0.00     0.036 H 
ATOM      3  H6  ORN d   1      37.241  21.974  -9.801  0.00  0.00     0.036 H 
ENDROOT
BRANCH   1   4
ATOM      4  CA  ORN d   1      38.327  21.186  -8.130  0.00  0.00     0.182 C 
ATOM      5  H4  ORN d   1      38.202  20.119  -8.368  0.00  0.00     0.101 H 
BRANCH   4   6
ATOM      6  N   ORN d   1      38.336  21.375  -6.645  0.00  0.00    -0.065 N 
ATOM      7  H1  ORN d   1      37.474  21.025  -6.256  0.00  0.00     0.275 HD
ATOM      8  H2  ORN d   1      38.427  22.356  -6.432  0.00  0.00     0.275 HD
ATOM      9  H3  ORN d   1      39.113  20.871  -6.247  0.00  0.00     0.275 HD
ENDBRANCH   4   6
BRANCH   4  10
ATOM     10  C   ORN d   1      39.638  21.713  -8.766  0.00  0.00     0.204 C 
ATOM     11  O   ORN d   1      40.532  22.230  -7.966  0.00  0.00    -0.646 OA
ATOM     12  OXT ORN d   1      39.879  21.653 -10.068  0.00  0.00    -0.646 OA
ENDBRANCH   4  10
ENDBRANCH   1   4
BRANCH   1  13
ATOM     13  CG  ORN d   1      37.118  23.427  -8.278  0.00  0.00    -0.040 C 
ATOM     14  H7  ORN d   1      38.097  23.885  -8.481  0.00  0.00     0.035 H 
ATOM     15  H8  ORN d   1      36.913  23.463  -7.198  0.00  0.00     0.035 H 
BRANCH  13  16
ATOM     16  CD  ORN d   1      36.061  24.223  -8.992  0.00  0.00     0.080 C 
ATOM     17  H9  ORN d   1      35.079  23.773  -8.786  0.00  0.00     0.075 H 
ATOM     18  H10 ORN d   1      36.261  24.189 -10.073  0.00  0.00     0.075 H 
BRANCH  16  19
ATOM     19  NE  ORN d   1      36.038  25.634  -8.557  0.00  0.00    -0.079 N 
ATOM     20  H11 ORN d   1      35.318  26.129  -9.059  0.00  0.00     0.274 HD
ATOM     21  H12 ORN d   1      36.932  26.059  -8.747  0.00  0.00     0.274 HD
ATOM     22  H13 ORN d   1      35.849  25.678  -7.568  0.00  0.00     0.274 HD
ENDBRANCH  16  19
ENDBRANCH  13  16
ENDBRANCH   1  13
TORSDOF 6
