REMARK  5 active torsions:
REMARK  status: ('A' for Active; 'I' for Inactive)
REMARK    1  A    between atoms: N_1  and  CA_2 
REMARK    2  A    between atoms: CA_2  and  C_3 
REMARK    3  A    between atoms: CA_2  and  CB_5 
REMARK    4  A    between atoms: CB_5  and  CG_6 
REMARK    5  A    between atoms: CG_6  and  ND_7 
REMARK       I    between atoms: ND_7  and  CE_8 
REMARK       I    between atoms: CE_8  and  NH1_9 
ROOT
ATOM      1  CB  NNH d   1      37.801  22.684 -10.091  0.00  0.00    -0.014 C 
ATOM      2  H5  NNH d   1      37.083  22.056  -9.543  0.00  0.00     0.039 H 
ATOM      3  H6  NNH d   1      37.561  22.664 -11.164  0.00  0.00     0.039 H 
ENDROOT
BRANCH   1   4
ATOM      4  CA  NNH d   1      39.196  22.023  -9.927  0.00  0.00     0.184 C 
ATOM      5  H4  NNH d   1      39.124  20.974 -10.252  0.00  0.00     0.101 H 
BRANCH   4   6
ATOM      6  N   NNH d   1      39.537  22.043  -8.513  0.00  0.00    -0.065 N 
ATOM      7  H1  NNH d   1      38.810  21.585  -7.986  0.00  0.00     0.275 HD
ATOM      8  H2  NNH d   1      39.627  22.998  -8.203  0.00  0.00     0.275 HD
ATOM      9  H3  NNH d   1      40.410  21.560  -8.371  0.00  0.00     0.275 HD
ENDBRANCH   4   6
BRANCH   4  10
ATOM     10  C   NNH d   1      40.257  22.702 -10.792  0.00  0.00     0.204 C 
ATOM     11  O   NNH d   1      41.279  23.228 -10.401  0.00  0.00    -0.646 OA
ATOM     12  OXT NNH d   1      39.931  22.639 -12.091  0.00  0.00    -0.646 OA
ENDBRANCH   4  10
ENDBRANCH   1   4
BRANCH   1  13
ATOM     13  CG  NNH d   1      37.587  24.149  -9.605  0.00  0.00     0.012 C 
ATOM     14  H7  NNH d   1      38.523  24.716  -9.715  0.00  0.00     0.065 H 
ATOM     15  H8  NNH d   1      37.281  24.148  -8.548  0.00  0.00     0.065 H 
BRANCH  13  16
ATOM     16  ND  NNH d   1      36.521  24.774 -10.435  0.00  0.00    -0.223 N 
ATOM     17  CE  NNH d   1      35.952  26.024 -10.339  0.00  0.00     0.718 C 
ATOM     18  NH1 NNH d   1      36.381  26.934  -9.314  0.00  0.00     0.095 NA
ATOM     19  NH2 NNH d   1      34.990  26.468 -11.166  0.00  0.00    -0.231 N 
ATOM     20  OH1 NNH d   1      35.862  28.118  -9.213  0.00  0.00    -0.044 OA
ATOM     21  H10 NNH d   1      34.602  27.415 -11.044  0.00  0.00     0.174 HD
ATOM     22  H11 NNH d   1      34.640  25.862 -11.922  0.00  0.00     0.174 HD
ATOM     23  H9  NNH d   1      36.154  24.183 -11.195  0.00  0.00     0.177 HD
ENDBRANCH  13  16
ENDBRANCH   1  13
TORSDOF 5
