REMARK  21 active torsions:
REMARK  status: ('A' for Active; 'I' for Inactive)
REMARK    1  A    between atoms: C1_1  and  O1_10 
REMARK    2  A    between atoms: C1_1  and  C2_2 
REMARK    3  A    between atoms: C3_14  and  C1_1 
REMARK    4  A    between atoms: C2_2  and  O2_11 
REMARK    5  A    between atoms: C2_2  and  C3_3 
REMARK    6  A    between atoms: C3_3  and  C1'_4 
REMARK    7  A    between atoms: C1_12  and  C2_13 
REMARK       I    between atoms: N2_29  and  C1_12 
REMARK    8  A    between atoms: C2_13  and  C4'_18 
REMARK    9  A    between atoms: C2_13  and  C3_14 
REMARK   10  A    between atoms: C4'_18  and  C1'_15 
REMARK   11  A    between atoms: C1_20  and  O1_30 
REMARK   12  A    between atoms: C2_21  and  C1_20 
REMARK   13  A    between atoms: C1_20  and  C1_31 
REMARK   14  A    between atoms: N2_29  and  C2_21 
REMARK   15  A    between atoms: C2_21  and  C3_22 
REMARK   16  A    between atoms: C3_22  and  C1'_23 
REMARK   17  A    between atoms: C1_31  and  O1_36 
REMARK   18  A    between atoms: C1_31  and  C2_32 
REMARK   19  A    between atoms: C2_32  and  C3_33 
REMARK   20  A    between atoms: C3_33  and  C5_35 
REMARK   21  A    between atoms: C3_33  and  C4_34 
ROOT
ATOM      1  C2  03D d   1      33.630  60.417  42.522  0.00  0.00     0.040 C 
ATOM      2  H23 03D d   1      34.008  59.548  41.963  0.00  0.00     0.076 H 
ENDROOT
BRANCH   1   3
ATOM      3  C1  03D d   1      32.712  61.347  41.583  0.00  0.00     0.080 C 
ATOM      4  H22 03D d   1      31.737  60.851  41.464  0.00  0.00     0.090 H 
BRANCH   3   5
ATOM      5  O1  03D d   1      32.505  62.640  42.188  0.00  0.00    -0.391 OA
ATOM      6  H38 03D d   1      33.344  63.067  42.316  0.00  0.00     0.210 HD
ENDBRANCH   3   5
BRANCH   3   7
ATOM      7  C1  03D d   1      33.330  61.562  40.173  0.00  0.00     0.062 C 
ATOM      8  H39 03D d   1      34.312  62.039  40.309  0.00  0.00     0.086 H 
BRANCH   7   9
ATOM      9  O1  03D d   1      33.570  60.300  39.533  0.00  0.00    -0.393 OA
ATOM     10  H49 03D d   1      32.741  59.867  39.368  0.00  0.00     0.210 HD
ENDBRANCH   7   9
BRANCH   7  11
ATOM     11  C2  03D d   1      32.460  62.555  39.351  0.00  0.00    -0.036 C 
ATOM     12  H40 03D d   1      32.358  63.496  39.911  0.00  0.00     0.037 H 
ATOM     13  H41 03D d   1      31.465  62.115  39.189  0.00  0.00     0.037 H 
BRANCH  11  14
ATOM     14  C3  03D d   1      33.110  62.846  37.990  0.00  0.00    -0.059 C 
ATOM     15  H42 03D d   1      33.439  61.894  37.548  0.00  0.00     0.039 H 
BRANCH  14  16
ATOM     16  C5  03D d   1      34.327  63.767  38.109  0.00  0.00    -0.073 C 
ATOM     17  H46 03D d   1      35.076  63.302  38.767  0.00  0.00     0.028 H 
ATOM     18  H47 03D d   1      34.016  64.733  38.533  0.00  0.00     0.028 H 
ATOM     19  H48 03D d   1      34.764  63.928  37.112  0.00  0.00     0.028 H 
ENDBRANCH  14  16
BRANCH  14  20
ATOM     20  C4  03D d   1      32.062  63.488  37.074  0.00  0.00    -0.073 C 
ATOM     21  H43 03D d   1      32.514  63.702  36.094  0.00  0.00     0.028 H 
ATOM     22  H44 03D d   1      31.705  64.425  37.526  0.00  0.00     0.028 H 
ATOM     23  H45 03D d   1      31.216  62.797  36.944  0.00  0.00     0.028 H 
ENDBRANCH  14  20
ENDBRANCH  11  14
ENDBRANCH   7  11
ENDBRANCH   3   7
ENDBRANCH   1   3
BRANCH   1  24
ATOM     24  N2  03D d   1      34.745  61.240  43.008  0.00  0.00    -0.354 N 
ATOM     25  C1  03D d   1      36.020  60.911  42.698  0.00  0.00     0.222 C 
ATOM     26  O1  03D d   1      36.279  59.882  42.112  0.00  0.00    -0.273 OA
ATOM     27  H37 03D d   1      34.561  62.046  43.570  0.00  0.00     0.163 HD
BRANCH  25  28
ATOM     28  C2  03D d   1      37.120  61.860  43.163  0.00  0.00     0.026 C 
ATOM     29  H12 03D d   1      36.647  62.746  43.612  0.00  0.00     0.054 H 
BRANCH  28  30
ATOM     30  C4' 03D d   1      37.935  62.330  41.891  0.00  0.00    -0.050 C 
ATOM     31  H20 03D d   1      38.501  61.472  41.499  0.00  0.00     0.034 H 
ATOM     32  H21 03D d   1      38.635  63.123  42.195  0.00  0.00     0.034 H 
BRANCH  30  33
ATOM     33  C1' 03D d   1      37.024  62.880  40.761  0.00  0.00    -0.053 A 
ATOM     34  C3' 03D d   1      36.735  64.320  40.916  0.00  0.00    -0.061 A 
ATOM     35  C2' 03D d   1      37.767  63.880  39.970  0.00  0.00    -0.061 A 
ATOM     36  H18 03D d   1      37.023  64.842  41.840  0.00  0.00     0.033 H 
ATOM     37  H19 03D d   1      35.787  64.734  40.542  0.00  0.00     0.033 H 
ATOM     38  H16 03D d   1      37.592  63.965  38.887  0.00  0.00     0.033 H 
ATOM     39  H17 03D d   1      38.828  64.073  40.186  0.00  0.00     0.033 H 
ATOM     40  H15 03D d   1      36.311  62.152  40.346  0.00  0.00     0.040 H 
ENDBRANCH  30  33
ENDBRANCH  28  30
BRANCH  28  41
ATOM     41  C3  03D d   1      38.027  61.202  44.266  0.00  0.00    -0.027 C 
ATOM     42  H13 03D d   1      38.689  61.982  44.671  0.00  0.00     0.038 H 
ATOM     43  H14 03D d   1      38.633  60.420  43.785  0.00  0.00     0.038 H 
BRANCH  41  44
ATOM     44  C1  03D d   1      37.266  60.556  45.454  0.00  0.00     0.061 C 
ATOM     45  H1  03D d   1      36.302  60.178  45.083  0.00  0.00     0.086 H 
BRANCH  44  46
ATOM     46  O1  03D d   1      37.055  61.519  46.476  0.00  0.00    -0.393 OA
ATOM     47  H10 03D d   1      36.547  61.129  47.177  0.00  0.00     0.210 HD
ENDBRANCH  44  46
BRANCH  44  48
ATOM     48  C2  03D d   1      38.035  59.405  46.153  0.00  0.00     0.064 C 
ATOM     49  H2  03D d   1      38.166  58.558  45.463  0.00  0.00     0.087 H 
BRANCH  48  50
ATOM     50  O2  03D d   1      39.298  59.921  46.579  0.00  0.00    -0.393 OA
ATOM     51  H11 03D d   1      39.157  60.640  47.184  0.00  0.00     0.210 HD
ENDBRANCH  48  50
BRANCH  48  52
ATOM     52  C3  03D d   1      37.288  58.956  47.424  0.00  0.00    -0.015 C 
ATOM     53  H3  03D d   1      36.210  58.894  47.213  0.00  0.00     0.044 H 
ATOM     54  H4  03D d   1      37.463  59.685  48.229  0.00  0.00     0.044 H 
BRANCH  52  55
ATOM     55  C1' 03D d   1      37.825  57.524  47.878  0.00  0.00    -0.056 A 
ATOM     56  C6' 03D d   1      37.437  56.367  47.225  0.00  0.00    -0.077 A 
ATOM     57  C5' 03D d   1      37.876  55.162  47.664  0.00  0.00    -0.082 A 
ATOM     58  H9  03D d   1      36.782  56.424  46.363  0.00  0.00     0.084 H 
ATOM     59  C4' 03D d   1      38.648  55.062  48.756  0.00  0.00    -0.083 A 
ATOM     60  H8  03D d   1      37.598  54.264  47.123  0.00  0.00     0.083 H 
ATOM     61  C3' 03D d   1      39.022  56.174  49.407  0.00  0.00    -0.082 A 
ATOM     62  H7  03D d   1      38.968  54.089  49.111  0.00  0.00     0.083 H 
ATOM     63  C2' 03D d   1      38.594  57.412  48.984  0.00  0.00    -0.077 A 
ATOM     64  H6  03D d   1      39.667  56.097  50.275  0.00  0.00     0.083 H 
ATOM     65  H5  03D d   1      38.874  58.300  49.539  0.00  0.00     0.084 H 
ENDBRANCH  52  55
ENDBRANCH  48  52
ENDBRANCH  44  48
ENDBRANCH  41  44
ENDBRANCH  28  41
ENDBRANCH  25  28
ENDBRANCH   1  24
BRANCH   1  66
ATOM     66  C3  03D d   1      32.745  59.944  43.748  0.00  0.00    -0.040 C 
ATOM     67  H24 03D d   1      31.830  59.473  43.361  0.00  0.00     0.036 H 
ATOM     68  H25 03D d   1      32.477  60.825  44.350  0.00  0.00     0.036 H 
BRANCH  66  69
ATOM     69  C1' 03D d   1      33.485  58.920  44.663  0.00  0.00    -0.052 C 
ATOM     70  C6' 03D d   1      33.690  57.568  43.882  0.00  0.00    -0.062 C 
ATOM     71  C5' 03D d   1      34.444  56.523  44.731  0.00  0.00    -0.065 C 
ATOM     72  H35 03D d   1      34.269  57.769  42.968  0.00  0.00     0.033 H 
ATOM     73  H36 03D d   1      32.705  57.161  43.610  0.00  0.00     0.033 H 
ATOM     74  C4' 03D d   1      33.563  56.197  45.963  0.00  0.00    -0.065 C 
ATOM     75  H33 03D d   1      34.614  55.611  44.140  0.00  0.00     0.033 H 
ATOM     76  H34 03D d   1      35.411  56.933  45.059  0.00  0.00     0.033 H 
ATOM     77  C3' 03D d   1      33.385  57.517  46.780  0.00  0.00    -0.065 C 
ATOM     78  H31 03D d   1      32.582  55.824  45.634  0.00  0.00     0.033 H 
ATOM     79  H32 03D d   1      34.055  55.435  46.585  0.00  0.00     0.033 H 
ATOM     80  C2' 03D d   1      32.617  58.589  45.923  0.00  0.00    -0.062 C 
ATOM     81  H29 03D d   1      32.811  57.304  47.694  0.00  0.00     0.033 H 
ATOM     82  H30 03D d   1      34.375  57.911  47.053  0.00  0.00     0.033 H 
ATOM     83  H27 03D d   1      31.643  58.186  45.609  0.00  0.00     0.033 H 
ATOM     84  H28 03D d   1      32.462  59.501  46.519  0.00  0.00     0.033 H 
ATOM     85  H26 03D d   1      34.456  59.334  44.971  0.00  0.00     0.040 H 
ENDBRANCH  66  69
ENDBRANCH   1  66
TORSDOF 21
