REMARK  12 active torsions:
REMARK  status: ('A' for Active; 'I' for Inactive)
REMARK    1  A    between atoms: N2_1  and  C1_2 
REMARK    2  A    between atoms: C1_2  and  C6_3 
REMARK    3  A    between atoms: C1_2  and  C2_10 
REMARK    4  A    between atoms: C6_3  and  C7_4 
REMARK    5  A    between atoms: C2_10  and  O2_11 
REMARK    6  A    between atoms: C2_10  and  C3_12 
REMARK       I    between atoms: C3_12  and  N1_14 
REMARK    7  A    between atoms: N1_14  and  C4_15 
REMARK    8  A    between atoms: C4_15  and  C13_16 
REMARK    9  A    between atoms: C4_15  and  C5_20 
REMARK   10  A    between atoms: C13_16  and  C14_17 
REMARK   11  A    between atoms: C14_17  and  C15_18 
REMARK   12  A    between atoms: C14_17  and  C16_19 
ROOT
ATOM      1  C2  BES d   1      15.881  42.065  63.795  0.00  0.00     0.139 C 
ATOM      2  H12 BES d   1      15.903  43.011  63.234  0.00  0.00     0.101 H 
ENDROOT
BRANCH   1   3
ATOM      3  C1  BES d   1      14.450  41.733  64.255  0.00  0.00     0.136 C 
ATOM      4  H4  BES d   1      14.517  40.956  65.031  0.00  0.00     0.089 H 
BRANCH   3   5
ATOM      5  N2  BES d   1      13.712  41.186  63.145  0.00  0.00    -0.072 N 
ATOM      6  H1  BES d   1      12.774  40.967  63.441  0.00  0.00     0.274 HD
ATOM      7  H2  BES d   1      14.166  40.347  62.820  0.00  0.00     0.274 HD
ATOM      8  H3  BES d   1      13.679  41.862  62.398  0.00  0.00     0.274 HD
ENDBRANCH   3   5
BRANCH   3   9
ATOM      9  C6  BES d   1      13.749  42.939  64.880  0.00  0.00    -0.012 C 
ATOM     10  H5  BES d   1      13.779  43.762  64.151  0.00  0.00     0.043 H 
ATOM     11  H6  BES d   1      14.311  43.226  65.781  0.00  0.00     0.043 H 
BRANCH   9  12
ATOM     12  C7  BES d   1      12.300  42.727  65.283  0.00  0.00    -0.056 A 
ATOM     13  C8  BES d   1      11.297  43.571  64.799  0.00  0.00    -0.077 A 
ATOM     14  C9  BES d   1       9.990  43.454  65.227  0.00  0.00    -0.082 A 
ATOM     15  H7  BES d   1      11.551  44.334  64.072  0.00  0.00     0.084 H 
ATOM     16  C10 BES d   1       9.639  42.451  66.135  0.00  0.00    -0.083 A 
ATOM     17  H9  BES d   1       9.236  44.140  64.859  0.00  0.00     0.083 H 
ATOM     18  C11 BES d   1      10.614  41.580  66.600  0.00  0.00    -0.082 A 
ATOM     19  H11 BES d   1       8.614  42.354  66.473  0.00  0.00     0.083 H 
ATOM     20  C12 BES d   1      11.934  41.717  66.170  0.00  0.00    -0.077 A 
ATOM     21  H10 BES d   1      10.350  40.793  67.297  0.00  0.00     0.083 H 
ATOM     22  H8  BES d   1      12.687  41.026  66.532  0.00  0.00     0.084 H 
ENDBRANCH   9  12
ENDBRANCH   3   9
ENDBRANCH   1   3
BRANCH   1  23
ATOM     23  O2  BES d   1      16.369  41.004  62.999  0.00  0.00    -0.384 OA
ATOM     24  H13 BES d   1      15.807  40.894  62.241  0.00  0.00     0.210 HD
ENDBRANCH   1  23
BRANCH   1  25
ATOM     25  C3  BES d   1      16.741  42.156  65.063  0.00  0.00     0.249 C 
ATOM     26  O3  BES d   1      16.932  41.185  65.803  0.00  0.00    -0.271 OA
ATOM     27  N1  BES d   1      17.280  43.376  65.250  0.00  0.00    -0.344 N 
ATOM     28  H14 BES d   1      17.079  44.117  64.609  0.00  0.00     0.163 HD
BRANCH  27  29
ATOM     29  C4  BES d   1      18.157  43.613  66.390  0.00  0.00     0.096 C 
ATOM     30  H15 BES d   1      18.027  42.816  67.137  0.00  0.00     0.089 H 
BRANCH  29  31
ATOM     31  C13 BES d   1      19.568  43.595  65.855  0.00  0.00    -0.034 C 
ATOM     32  H16 BES d   1      19.902  44.642  65.816  0.00  0.00     0.037 H 
ATOM     33  H17 BES d   1      19.512  43.189  64.834  0.00  0.00     0.037 H 
BRANCH  31  34
ATOM     34  C14 BES d   1      20.669  42.812  66.576  0.00  0.00    -0.059 C 
ATOM     35  H18 BES d   1      21.200  43.561  67.182  0.00  0.00     0.038 H 
BRANCH  34  36
ATOM     36  C15 BES d   1      20.210  41.770  67.577  0.00  0.00    -0.073 C 
ATOM     37  H19 BES d   1      21.087  41.280  68.024  0.00  0.00     0.028 H 
ATOM     38  H20 BES d   1      19.591  41.018  67.066  0.00  0.00     0.028 H 
ATOM     39  H21 BES d   1      19.619  42.256  68.367  0.00  0.00     0.028 H 
ENDBRANCH  34  36
BRANCH  34  40
ATOM     40  C16 BES d   1      21.692  42.287  65.590  0.00  0.00    -0.073 C 
ATOM     41  H22 BES d   1      21.980  43.091  64.897  0.00  0.00     0.028 H 
ATOM     42  H23 BES d   1      21.258  41.451  65.022  0.00  0.00     0.028 H 
ATOM     43  H24 BES d   1      22.581  41.938  66.135  0.00  0.00     0.028 H 
ENDBRANCH  34  40
ENDBRANCH  31  34
ENDBRANCH  29  31
BRANCH  29  44
ATOM     44  C5  BES d   1      17.840  45.000  67.053  0.00  0.00     0.196 C 
ATOM     45  O1  BES d   1      17.160  45.848  66.348  0.00  0.00    -0.646 OA
ATOM     46  O4  BES d   1      18.206  45.226  68.192  0.00  0.00    -0.646 OA
ENDBRANCH  29  44
ENDBRANCH  27  29
ENDBRANCH   1  25
TORSDOF 12
