REMARK  17 active torsions:
REMARK  status: ('A' for Active; 'I' for Inactive)
REMARK    1  A    between atoms: N1_1  and  C31_39 
REMARK    2  A    between atoms: C2_3  and  C3_4 
REMARK       I    between atoms: C3_4  and  N2_6 
REMARK    3  A    between atoms: N2_6  and  C4_7 
REMARK    4  A    between atoms: C4_7  and  C7_10 
REMARK    5  A    between atoms: C4_7  and  C6_9 
REMARK    6  A    between atoms: C4_7  and  C5_8 
REMARK    7  A    between atoms: N3_11  and  C10_14 
REMARK    8  A    between atoms: C10_14  and  C11_15 
REMARK    9  A    between atoms: C11_15  and  C12_17 
REMARK   10  A    between atoms: C11_15  and  O2_16 
REMARK   11  A    between atoms: C12_17  and  C13_18 
REMARK   12  A    between atoms: C13_18  and  C21_26 
REMARK   13  A    between atoms: C13_18  and  C14_19 
REMARK   14  A    between atoms: C14_19  and  C15_20 
REMARK       I    between atoms: C21_26  and  N4_28 
REMARK   15  A    between atoms: N4_28  and  C22_29 
REMARK   16  A    between atoms: C23_30  and  O4_31 
REMARK   17  A    between atoms: C31_39  and  C32_40 
ROOT
ATOM      1  C10 MK1 d   1      13.083  24.963   4.552  0.00  0.00     0.108 C 
ATOM      2  H20 MK1 d   1      12.927  25.778   5.274  0.00  0.00     0.080 H 
ATOM      3  H21 MK1 d   1      13.402  25.384   3.587  0.00  0.00     0.080 H 
ENDROOT
BRANCH   1   4
ATOM      4  N3  MK1 d   1      11.819  24.282   4.355  0.00  0.00    -0.053 N 
ATOM      5  C2  MK1 d   1      10.591  24.905   4.962  0.00  0.00     0.203 C 
ATOM      6  C1  MK1 d   1       9.498  23.983   4.459  0.00  0.00     0.119 C 
ATOM      7  H4  MK1 d   1      10.456  25.940   4.615  0.00  0.00     0.102 H 
ATOM      8  N1  MK1 d   1       9.280  23.763   3.004  0.00  0.00    -0.063 N 
ATOM      9  H2  MK1 d   1       9.700  22.994   4.896  0.00  0.00     0.080 H 
ATOM     10  H3  MK1 d   1       8.552  24.375   4.860  0.00  0.00     0.080 H 
ATOM     11  C9  MK1 d   1      10.440  23.182   2.493  0.00  0.00     0.106 C 
ATOM     12  H1  MK1 d   1       9.219  24.681   2.593  0.00  0.00     0.280 HD
ATOM     13  C8  MK1 d   1      11.753  23.776   2.961  0.00  0.00     0.107 C 
ATOM     14  H18 MK1 d   1      10.404  23.271   1.397  0.00  0.00     0.078 H 
ATOM     15  H19 MK1 d   1      10.434  22.119   2.775  0.00  0.00     0.078 H 
ATOM     16  H16 MK1 d   1      12.523  22.997   2.857  0.00  0.00     0.078 H 
ATOM     17  H17 MK1 d   1      11.990  24.618   2.294  0.00  0.00     0.078 H 
ATOM     18  H15 MK1 d   1      11.915  23.441   4.903  0.00  0.00     0.281 HD
BRANCH   5  19
ATOM     19  C3  MK1 d   1      10.591  24.864   6.466  0.00  0.00     0.251 C 
ATOM     20  N2  MK1 d   1      10.193  25.953   7.094  0.00  0.00    -0.351 N 
ATOM     21  H5  MK1 d   1       9.874  26.689   6.497  0.00  0.00     0.163 HD
ATOM     22  O1  MK1 d   1      10.937  23.849   7.057  0.00  0.00    -0.271 OA
BRANCH  20  23
ATOM     23  C4  MK1 d   1      10.145  26.250   8.490  0.00  0.00     0.022 C 
BRANCH  23  24
ATOM     24  C7  MK1 d   1       9.364  25.283   9.268  0.00  0.00    -0.054 C 
ATOM     25  H12 MK1 d   1       9.371  25.574  10.329  0.00  0.00     0.030 H 
ATOM     26  H13 MK1 d   1       9.807  24.282   9.160  0.00  0.00     0.030 H 
ATOM     27  H14 MK1 d   1       8.328  25.267   8.899  0.00  0.00     0.030 H 
ENDBRANCH  23  24
BRANCH  23  28
ATOM     28  C6  MK1 d   1      11.398  26.347   9.074  0.00  0.00    -0.054 C 
ATOM     29  H9  MK1 d   1      11.287  26.576  10.144  0.00  0.00     0.030 H 
ATOM     30  H10 MK1 d   1      11.970  27.149   8.585  0.00  0.00     0.030 H 
ATOM     31  H11 MK1 d   1      11.932  25.392   8.957  0.00  0.00     0.030 H 
ENDBRANCH  23  28
BRANCH  23  32
ATOM     32  C5  MK1 d   1       9.379  27.577   8.641  0.00  0.00    -0.054 C 
ATOM     33  H6  MK1 d   1       9.318  27.846   9.706  0.00  0.00     0.030 H 
ATOM     34  H7  MK1 d   1       8.364  27.463   8.232  0.00  0.00     0.030 H 
ATOM     35  H8  MK1 d   1       9.908  28.370   8.093  0.00  0.00     0.030 H 
ENDBRANCH  23  32
ENDBRANCH  20  23
ENDBRANCH   5  19
BRANCH   8  36
ATOM     36  C31 MK1 d   1       8.033  23.100   2.604  0.00  0.00     0.108 C 
ATOM     37  H44 MK1 d   1       8.025  22.122   3.108  0.00  0.00     0.083 H 
ATOM     38  H45 MK1 d   1       8.095  22.951   1.516  0.00  0.00     0.083 H 
BRANCH  36  39
ATOM     39  C32 MK1 d   1       6.666  23.739   2.876  0.00  0.00    -0.015 A 
ATOM     40  C36 MK1 d   1       5.905  23.211   3.897  0.00  0.00    -0.072 A 
ATOM     41  C35 MK1 d   1       4.654  23.774   4.136  0.00  0.00    -0.066 A 
ATOM     42  H49 MK1 d   1       6.269  22.384   4.495  0.00  0.00     0.084 H 
ATOM     43  C34 MK1 d   1       4.207  24.839   3.348  0.00  0.00     0.002 A 
ATOM     44  H48 MK1 d   1       4.028  23.387   4.932  0.00  0.00     0.085 H 
ATOM     45  N5  MK1 d   1       4.911  25.430   2.300  0.00  0.00    -0.273 NA
ATOM     46  H47 MK1 d   1       3.225  25.241   3.572  0.00  0.00     0.114 H 
ATOM     47  C33 MK1 d   1       6.158  24.808   2.124  0.00  0.00     0.009 A 
ATOM     48  H46 MK1 d   1       6.789  25.191   1.330  0.00  0.00     0.115 H 
ENDBRANCH  36  39
ENDBRANCH   8  36
ENDBRANCH   1   4
BRANCH   1  49
ATOM     49  C11 MK1 d   1      14.203  24.064   5.078  0.00  0.00     0.059 C 
ATOM     50  H22 MK1 d   1      14.168  23.097   4.555  0.00  0.00     0.085 H 
BRANCH  49  51
ATOM     51  C12 MK1 d   1      14.440  23.761   6.569  0.00  0.00    -0.028 C 
ATOM     52  H24 MK1 d   1      13.505  23.327   6.954  0.00  0.00     0.038 H 
ATOM     53  H25 MK1 d   1      14.626  24.727   7.061  0.00  0.00     0.038 H 
BRANCH  51  54
ATOM     54  C13 MK1 d   1      15.573  22.821   7.005  0.00  0.00     0.029 C 
ATOM     55  H26 MK1 d   1      16.519  23.267   6.665  0.00  0.00     0.055 H 
BRANCH  54  56
ATOM     56  C21 MK1 d   1      15.447  21.440   6.373  0.00  0.00     0.222 C 
ATOM     57  N4  MK1 d   1      16.583  20.913   5.924  0.00  0.00    -0.350 N 
ATOM     58  H34 MK1 d   1      17.381  21.504   5.804  0.00  0.00     0.163 HD
ATOM     59  O3  MK1 d   1      14.367  20.831   6.397  0.00  0.00    -0.273 OA
BRANCH  57  60
ATOM     60  C22 MK1 d   1      16.692  19.500   5.604  0.00  0.00     0.063 C 
ATOM     61  C30 MK1 d   1      16.504  19.061   4.128  0.00  0.00    -0.027 A 
ATOM     62  C25 MK1 d   1      17.476  17.904   3.760  0.00  0.00    -0.047 A 
ATOM     63  C29 MK1 d   1      15.683  19.479   3.129  0.00  0.00    -0.074 A 
ATOM     64  C24 MK1 d   1      18.226  17.726   5.057  0.00  0.00    -0.014 C 
ATOM     65  C26 MK1 d   1      17.500  17.363   2.496  0.00  0.00    -0.076 A 
ATOM     66  C23 MK1 d   1      18.067  18.945   5.936  0.00  0.00     0.063 C 
ATOM     67  H38 MK1 d   1      17.831  16.846   5.585  0.00  0.00     0.044 H 
ATOM     68  H39 MK1 d   1      19.294  17.574   4.839  0.00  0.00     0.044 H 
ATOM     69  H36 MK1 d   1      18.103  18.637   6.991  0.00  0.00     0.087 H 
ATOM     70  C27 MK1 d   1      16.613  17.872   1.541  0.00  0.00    -0.082 A 
ATOM     71  H40 MK1 d   1      18.188  16.563   2.246  0.00  0.00     0.084 H 
ATOM     72  C28 MK1 d   1      15.722  18.906   1.865  0.00  0.00    -0.082 A 
ATOM     73  H41 MK1 d   1      16.614  17.462   0.538  0.00  0.00     0.083 H 
ATOM     74  H42 MK1 d   1      15.042  19.270   1.103  0.00  0.00     0.083 H 
ATOM     75  H43 MK1 d   1      14.980  20.280   3.324  0.00  0.00     0.084 H 
ATOM     76  H35 MK1 d   1      15.933  18.986   6.213  0.00  0.00     0.084 H 
BRANCH  66  77
ATOM     77  O4  MK1 d   1      19.061  19.938   5.729  0.00  0.00    -0.393 OA
ATOM     78  H37 MK1 d   1      19.918  19.570   5.911  0.00  0.00     0.210 HD
ENDBRANCH  66  77
ENDBRANCH  57  60
ENDBRANCH  54  56
BRANCH  54  79
ATOM     79  C14 MK1 d   1      15.644  22.664   8.534  0.00  0.00    -0.029 C 
ATOM     80  H27 MK1 d   1      14.685  22.262   8.892  0.00  0.00     0.041 H 
ATOM     81  H28 MK1 d   1      15.817  23.653   8.983  0.00  0.00     0.041 H 
BRANCH  79  82
ATOM     82  C15 MK1 d   1      16.733  21.750   8.961  0.00  0.00    -0.057 A 
ATOM     83  C20 MK1 d   1      16.374  20.687   9.772  0.00  0.00    -0.077 A 
ATOM     84  C19 MK1 d   1      17.347  19.773  10.176  0.00  0.00    -0.082 A 
ATOM     85  H33 MK1 d   1      15.345  20.566  10.091  0.00  0.00     0.084 H 
ATOM     86  C18 MK1 d   1      18.673  19.939   9.758  0.00  0.00    -0.083 A 
ATOM     87  H32 MK1 d   1      17.078  18.937  10.811  0.00  0.00     0.083 H 
ATOM     88  C17 MK1 d   1      19.037  21.016   8.947  0.00  0.00    -0.082 A 
ATOM     89  H31 MK1 d   1      19.426  19.223  10.068  0.00  0.00     0.083 H 
ATOM     90  C16 MK1 d   1      18.058  21.916   8.553  0.00  0.00    -0.077 A 
ATOM     91  H30 MK1 d   1      20.066  21.146   8.631  0.00  0.00     0.083 H 
ATOM     92  H29 MK1 d   1      18.324  22.756   7.922  0.00  0.00     0.084 H 
ENDBRANCH  79  82
ENDBRANCH  54  79
ENDBRANCH  51  54
ENDBRANCH  49  51
BRANCH  49  93
ATOM     93  O2  MK1 d   1      15.242  24.884   4.634  0.00  0.00    -0.394 OA
ATOM     94  H23 MK1 d   1      15.115  25.084   3.714  0.00  0.00     0.210 HD
ENDBRANCH  49  93
ENDBRANCH   1  49
TORSDOF 17
