REMARK  10 active torsions:
REMARK  status: ('A' for Active; 'I' for Inactive)
REMARK    1  A    between atoms: C1_1  and  C7_7 
REMARK    2  A    between atoms: C3_3  and  C2_2 
REMARK    3  A    between atoms: C4_4  and  C3_3 
REMARK    4  A    between atoms: C3_3  and  N2_25 
REMARK       I    between atoms: N3_26  and  C4_4 
REMARK    5  A    between atoms: C8_8  and  C5_5 
REMARK    6  A    between atoms: C8_8  and  C6_6 
REMARK    7  A    between atoms: C22_22  and  C9_9 
REMARK    8  A    between atoms: C9_9  and  N3_26 
REMARK    9  A    between atoms: C10_10  and  C11_11 
REMARK       I    between atoms: N2_25  and  C10_10 
REMARK   10  A    between atoms: C11_11  and  C13_13 
ROOT
ATOM      1  C3  G23 d   1       7.178  26.671   3.520  0.00  0.00     0.125 C 
ATOM      2  H3  G23 d   1       7.851  27.407   3.057  0.00  0.00     0.092 H 
ENDROOT
BRANCH   1   3
ATOM      3  C2  G23 d   1       7.808  25.274   3.400  0.00  0.00     0.175 C 
ATOM      4  N1  G23 d   1       8.881  25.171   4.336  0.00  0.00    -0.044 N 
ATOM      5  C1  G23 d   1      10.192  24.988   3.744  0.00  0.00     0.201 C 
ATOM      6  H24 G23 d   1       8.900  26.017   4.884  0.00  0.00     0.279 HD
ATOM      7  H25 G23 d   1       8.697  24.384   4.938  0.00  0.00     0.279 HD
ATOM      8  C8  G23 d   1      10.020  24.159   2.470  0.00  0.00     0.041 C 
ATOM      9  H1  G23 d   1      10.568  25.965   3.405  0.00  0.00     0.104 H 
ATOM     10  S1  G23 d   1       8.458  24.895   1.772  0.00  0.00    -0.122 SA
ATOM     11  H2  G23 d   1       7.037  24.529   3.645  0.00  0.00     0.105 H 
BRANCH   5  12
ATOM     12  C7  G23 d   1      11.100  24.573   4.893  0.00  0.00     0.206 C 
ATOM     13  O3  G23 d   1      10.883  23.529   5.486  0.00  0.00    -0.646 OA
ATOM     14  O4  G23 d   1      11.975  25.332   5.323  0.00  0.00    -0.646 OA
ENDBRANCH   5  12
BRANCH   8  15
ATOM     15  C5  G23 d   1      10.007  22.662   2.535  0.00  0.00    -0.058 C 
ATOM     16  H4  G23 d   1       9.874  22.252   1.523  0.00  0.00     0.029 H 
ATOM     17  H5  G23 d   1       9.178  22.330   3.177  0.00  0.00     0.029 H 
ATOM     18  H6  G23 d   1      10.960  22.305   2.953  0.00  0.00     0.029 H 
ENDBRANCH   8  15
BRANCH   8  19
ATOM     19  C6  G23 d   1      11.102  24.461   1.386  0.00  0.00    -0.058 C 
ATOM     20  H7  G23 d   1      11.196  25.549   1.255  0.00  0.00     0.029 H 
ATOM     21  H8  G23 d   1      10.804  24.001   0.432  0.00  0.00     0.029 H 
ATOM     22  H9  G23 d   1      12.069  24.046   1.707  0.00  0.00     0.029 H 
ENDBRANCH   8  19
ENDBRANCH   1   3
BRANCH   1  23
ATOM     23  C4  G23 d   1       5.886  26.648   2.695  0.00  0.00     0.243 C 
ATOM     24  N3  G23 d   1       6.024  27.238   1.507  0.00  0.00    -0.355 N 
ATOM     25  H27 G23 d   1       6.909  27.642   1.276  0.00  0.00     0.162 HD
ATOM     26  O1  G23 d   1       4.875  26.097   3.041  0.00  0.00    -0.271 OA
BRANCH  24  27
ATOM     27  C9  G23 d   1       4.971  27.321   0.551  0.00  0.00     0.019 C 
ATOM     28  H10 G23 d   1       4.472  26.345   0.464  0.00  0.00     0.071 H 
ATOM     29  H11 G23 d   1       4.240  28.079   0.869  0.00  0.00     0.071 H 
BRANCH  27  30
ATOM     30  C22 G23 d   1       5.569  27.717  -0.801  0.00  0.00    -0.041 A 
ATOM     31  C21 G23 d   1       4.924  28.368  -1.785  0.00  0.00    -0.075 A 
ATOM     32  C20 G23 d   1       5.502  28.716  -2.981  0.00  0.00    -0.082 A 
ATOM     33  H22 G23 d   1       3.885  28.634  -1.625  0.00  0.00     0.084 H 
ATOM     34  C19 G23 d   1       6.810  28.413  -3.214  0.00  0.00    -0.083 A 
ATOM     35  H21 G23 d   1       4.920  29.230  -3.737  0.00  0.00     0.083 H 
ATOM     36  C18 G23 d   1       7.498  27.767  -2.225  0.00  0.00    -0.082 A 
ATOM     37  H20 G23 d   1       7.288  28.675  -4.151  0.00  0.00     0.083 H 
ATOM     38  C23 G23 d   1       6.915  27.416  -1.056  0.00  0.00    -0.075 A 
ATOM     39  H19 G23 d   1       8.544  27.529  -2.382  0.00  0.00     0.083 H 
ATOM     40  H23 G23 d   1       7.497  26.894  -0.305  0.00  0.00     0.084 H 
ENDBRANCH  27  30
ENDBRANCH  24  27
ENDBRANCH   1  23
BRANCH   1  41
ATOM     41  N2  G23 d   1       7.060  27.032   4.926  0.00  0.00    -0.345 N 
ATOM     42  C10 G23 d   1       7.540  28.051   5.724  0.00  0.00     0.222 C 
ATOM     43  O2  G23 d   1       8.243  29.015   5.480  0.00  0.00    -0.273 OA
ATOM     44  H26 G23 d   1       6.494  26.385   5.437  0.00  0.00     0.163 HD
BRANCH  42  45
ATOM     45  C11 G23 d   1       7.105  27.809   7.144  0.00  0.00     0.033 C 
ATOM     46  H12 G23 d   1       6.604  26.834   7.231  0.00  0.00     0.054 H 
ATOM     47  H13 G23 d   1       6.421  28.604   7.476  0.00  0.00     0.054 H 
BRANCH  45  48
ATOM     48  C13 G23 d   1       8.367  27.826   7.964  0.00  0.00    -0.050 A 
ATOM     49  C12 G23 d   1       9.104  26.649   8.098  0.00  0.00    -0.076 A 
ATOM     50  C17 G23 d   1      10.237  26.655   8.822  0.00  0.00    -0.082 A 
ATOM     51  H14 G23 d   1       8.765  25.736   7.622  0.00  0.00     0.084 H 
ATOM     52  C16 G23 d   1      10.683  27.830   9.478  0.00  0.00    -0.083 A 
ATOM     53  H18 G23 d   1      10.820  25.745   8.906  0.00  0.00     0.083 H 
ATOM     54  C15 G23 d   1       9.931  28.934   9.377  0.00  0.00    -0.082 A 
ATOM     55  H17 G23 d   1      11.607  27.835  10.045  0.00  0.00     0.083 H 
ATOM     56  C14 G23 d   1       8.783  28.940   8.613  0.00  0.00    -0.076 A 
ATOM     57  H16 G23 d   1      10.229  29.834   9.902  0.00  0.00     0.083 H 
ATOM     58  H15 G23 d   1       8.203  29.852   8.530  0.00  0.00     0.084 H 
ENDBRANCH  45  48
ENDBRANCH  42  45
ENDBRANCH   1  41
TORSDOF 10
