REMARK  15 active torsions:
REMARK  status: ('A' for Active; 'I' for Inactive)
REMARK    1  A    between atoms: C_1  and  C5_6 
REMARK    2  A    between atoms: C_1  and  C6_7 
REMARK    3  A    between atoms: C1_2  and  C7_8 
REMARK    4  A    between atoms: C3_4  and  C2_3 
REMARK    5  A    between atoms: C4_5  and  C3_4 
REMARK    6  A    between atoms: C3_4  and  N2_35 
REMARK       I    between atoms: N3_36  and  C4_5 
REMARK       I    between atoms: C7_8  and  N1_34 
REMARK    7  A    between atoms: C8_9  and  C10_11 
REMARK    8  A    between atoms: C8_9  and  C19_20 
REMARK    9  A    between atoms: N1_34  and  C8_9 
REMARK   10  A    between atoms: C9_10  and  N3_36 
REMARK   11  A    between atoms: C9_10  and  C30_31 
REMARK   12  A    between atoms: C10_11  and  O4_40 
REMARK   13  A    between atoms: C11_12  and  C12_13 
REMARK       I    between atoms: N2_35  and  C11_12 
REMARK   14  A    between atoms: C12_13  and  C14_15 
REMARK   15  A    between atoms: C19_20  and  C23_24 
ROOT
ATOM      1  C   G26 d   1      18.565   4.331   1.219  0.00  0.00     0.040 C 
ATOM      2  C1  G26 d   1      18.458   3.244   2.293  0.00  0.00     0.194 C 
ATOM      3  C2  G26 d   1      17.549   5.116   3.589  0.00  0.00     0.175 C 
ATOM      4  N   G26 d   1      17.450   3.718   3.244  0.00  0.00    -0.045 N 
ATOM      5  S   G26 d   1      18.355   5.867   2.163  0.00  0.00    -0.122 SA
ATOM      6  H1  G26 d   1      19.420   3.189   2.824  0.00  0.00     0.102 H 
ATOM      7  H2  G26 d   1      16.551   5.542   3.771  0.00  0.00     0.105 H 
ATOM      8  H34 G26 d   1      17.541   3.179   4.091  0.00  0.00     0.279 HD
ATOM      9  H35 G26 d   1      16.540   3.559   2.841  0.00  0.00     0.279 HD
ENDROOT
BRANCH   3  10
ATOM     10  C3  G26 d   1      18.459   5.374   4.789  0.00  0.00     0.125 C 
ATOM     11  H3  G26 d   1      19.488   5.105   4.507  0.00  0.00     0.092 H 
BRANCH  10  12
ATOM     12  C4  G26 d   1      18.460   6.868   5.152  0.00  0.00     0.243 C 
ATOM     13  N3  G26 d   1      19.510   7.302   5.837  0.00  0.00    -0.355 N 
ATOM     14  H38 G26 d   1      20.228   6.652   6.087  0.00  0.00     0.162 HD
ATOM     15  O1  G26 d   1      17.557   7.627   4.844  0.00  0.00    -0.271 OA
BRANCH  13  16
ATOM     16  C9  G26 d   1      19.650   8.703   6.239  0.00  0.00     0.019 C 
ATOM     17  H11 G26 d   1      19.129   9.322   5.493  0.00  0.00     0.071 H 
ATOM     18  H12 G26 d   1      20.722   8.949   6.235  0.00  0.00     0.071 H 
BRANCH  16  19
ATOM     19  C30 G26 d   1      19.098   9.056   7.601  0.00  0.00    -0.041 A 
ATOM     20  C29 G26 d   1      17.742   8.976   7.859  0.00  0.00    -0.075 A 
ATOM     21  C28 G26 d   1      17.243   9.334   9.097  0.00  0.00    -0.082 A 
ATOM     22  H32 G26 d   1      17.066   8.630   7.085  0.00  0.00     0.084 H 
ATOM     23  C27 G26 d   1      18.098   9.776  10.085  0.00  0.00    -0.083 A 
ATOM     24  H31 G26 d   1      16.179   9.267   9.292  0.00  0.00     0.083 H 
ATOM     25  C26 G26 d   1      19.451   9.856   9.835  0.00  0.00    -0.082 A 
ATOM     26  H30 G26 d   1      17.707  10.060  11.055  0.00  0.00     0.083 H 
ATOM     27  C31 G26 d   1      19.947   9.496   8.599  0.00  0.00    -0.075 A 
ATOM     28  H29 G26 d   1      20.126  10.202  10.610  0.00  0.00     0.083 H 
ATOM     29  H33 G26 d   1      21.012   9.559   8.409  0.00  0.00     0.084 H 
ENDBRANCH  16  19
ENDBRANCH  13  16
ENDBRANCH  10  12
BRANCH  10  30
ATOM     30  N2  G26 d   1      18.055   4.492   5.891  0.00  0.00    -0.345 N 
ATOM     31  C11 G26 d   1      18.859   3.498   6.245  0.00  0.00     0.222 C 
ATOM     32  O2  G26 d   1      20.001   3.394   5.835  0.00  0.00    -0.273 OA
ATOM     33  H37 G26 d   1      17.188   4.638   6.367  0.00  0.00     0.163 HD
BRANCH  31  34
ATOM     34  C12 G26 d   1      18.271   2.492   7.215  0.00  0.00     0.033 C 
ATOM     35  H15 G26 d   1      17.226   2.756   7.436  0.00  0.00     0.054 H 
ATOM     36  H16 G26 d   1      18.854   2.490   8.148  0.00  0.00     0.054 H 
BRANCH  34  37
ATOM     37  C14 G26 d   1      18.328   1.129   6.577  0.00  0.00    -0.050 A 
ATOM     38  C15 G26 d   1      19.021   0.098   7.177  0.00  0.00    -0.076 A 
ATOM     39  C16 G26 d   1      19.057  -1.130   6.562  0.00  0.00    -0.082 A 
ATOM     40  H18 G26 d   1      19.530   0.255   8.121  0.00  0.00     0.084 H 
ATOM     41  C17 G26 d   1      18.415  -1.329   5.357  0.00  0.00    -0.083 A 
ATOM     42  H19 G26 d   1      19.594  -1.949   7.027  0.00  0.00     0.083 H 
ATOM     43  C18 G26 d   1      17.719  -0.310   4.760  0.00  0.00    -0.082 A 
ATOM     44  H20 G26 d   1      18.461  -2.300   4.878  0.00  0.00     0.083 H 
ATOM     45  C13 G26 d   1      17.678   0.913   5.372  0.00  0.00    -0.076 A 
ATOM     46  H21 G26 d   1      17.209  -0.471   3.817  0.00  0.00     0.083 H 
ATOM     47  H17 G26 d   1      17.129   1.725   4.908  0.00  0.00     0.084 H 
ENDBRANCH  34  37
ENDBRANCH  31  34
ENDBRANCH  10  30
ENDBRANCH   3  10
BRANCH   2  48
ATOM     48  C7  G26 d   1      18.208   1.854   1.709  0.00  0.00     0.250 C 
ATOM     49  N1  G26 d   1      19.283   1.285   1.175  0.00  0.00    -0.352 N 
ATOM     50  H36 G26 d   1      20.168   1.733   1.300  0.00  0.00     0.163 HD
ATOM     51  O   G26 d   1      17.122   1.305   1.702  0.00  0.00    -0.271 OA
BRANCH  49  52
ATOM     52  C8  G26 d   1      19.239   0.044   0.417  0.00  0.00     0.036 C 
ATOM     53  H10 G26 d   1      18.301   0.044  -0.157  0.00  0.00     0.076 H 
BRANCH  52  54
ATOM     54  C10 G26 d   1      20.388   0.037  -0.597  0.00  0.00     0.036 C 
ATOM     55  H13 G26 d   1      20.352   0.967  -1.184  0.00  0.00     0.077 H 
ATOM     56  H14 G26 d   1      20.266  -0.825  -1.269  0.00  0.00     0.077 H 
BRANCH  54  57
ATOM     57  O4  G26 d   1      21.650  -0.054   0.044  0.00  0.00    -0.399 OA
ATOM     58  H39 G26 d   1      21.690  -0.858   0.549  0.00  0.00     0.209 HD
ENDBRANCH  54  57
ENDBRANCH  52  54
BRANCH  52  59
ATOM     59  C19 G26 d   1      19.197  -1.206   1.320  0.00  0.00    -0.020 C 
ATOM     60  H22 G26 d   1      18.432  -1.046   2.094  0.00  0.00     0.043 H 
ATOM     61  H23 G26 d   1      20.182  -1.320   1.796  0.00  0.00     0.043 H 
BRANCH  59  62
ATOM     62  C23 G26 d   1      18.868  -2.506   0.582  0.00  0.00    -0.056 A 
ATOM     63  C22 G26 d   1      19.859  -3.327   0.072  0.00  0.00    -0.077 A 
ATOM     64  C21 G26 d   1      19.525  -4.495  -0.579  0.00  0.00    -0.082 A 
ATOM     65  H26 G26 d   1      20.901  -3.050   0.185  0.00  0.00     0.084 H 
ATOM     66  C20 G26 d   1      18.203  -4.856  -0.726  0.00  0.00    -0.083 A 
ATOM     67  H25 G26 d   1      20.306  -5.133  -0.977  0.00  0.00     0.083 H 
ATOM     68  C25 G26 d   1      17.211  -4.055  -0.224  0.00  0.00    -0.082 A 
ATOM     69  H24 G26 d   1      17.947  -5.776  -1.240  0.00  0.00     0.083 H 
ATOM     70  C24 G26 d   1      17.555  -2.890   0.421  0.00  0.00    -0.077 A 
ATOM     71  H28 G26 d   1      16.170  -4.336  -0.334  0.00  0.00     0.083 H 
ATOM     72  H27 G26 d   1      16.769  -2.255   0.814  0.00  0.00     0.084 H 
ENDBRANCH  59  62
ENDBRANCH  52  59
ENDBRANCH  49  52
ENDBRANCH   2  48
BRANCH   1  73
ATOM     73  C5  G26 d   1      17.408   4.354   0.222  0.00  0.00    -0.058 C 
ATOM     74  H4  G26 d   1      17.569   5.161  -0.507  0.00  0.00     0.029 H 
ATOM     75  H5  G26 d   1      16.464   4.528   0.759  0.00  0.00     0.029 H 
ATOM     76  H6  G26 d   1      17.358   3.389  -0.304  0.00  0.00     0.029 H 
ENDBRANCH   1  73
BRANCH   1  77
ATOM     77  C6  G26 d   1      19.917   4.357   0.526  0.00  0.00    -0.058 C 
ATOM     78  H7  G26 d   1      20.716   4.339   1.281  0.00  0.00     0.029 H 
ATOM     79  H8  G26 d   1      20.003   5.273  -0.077  0.00  0.00     0.029 H 
ATOM     80  H9  G26 d   1      20.011   3.478  -0.128  0.00  0.00     0.029 H 
ENDBRANCH   1  77
TORSDOF 15
