REMARK  19 active torsions:
REMARK  status: ('A' for Active; 'I' for Inactive)
REMARK    1  A    between atoms: C20_20  and  C1_1 
REMARK    2  A    between atoms: C1_1  and  C42_42 
REMARK    3  A    between atoms: N1_43  and  C2_2 
REMARK    4  A    between atoms: C2_2  and  C41_41 
REMARK    5  A    between atoms: C2_2  and  C20_20 
REMARK    6  A    between atoms: C4_4  and  C3_3 
REMARK       I    between atoms: C3_3  and  N1_43 
REMARK    7  A    between atoms: C5_5  and  C9_9 
REMARK    8  A    between atoms: C6_6  and  C7_7 
REMARK    9  A    between atoms: C6_6  and  C8_8 
REMARK   10  A    between atoms: C9_9  and  C18_18 
REMARK   11  A    between atoms: C9_9  and  N3_45 
REMARK   12  A    between atoms: C10_10  and  C11_11 
REMARK       I    between atoms: N3_45  and  C10_10 
REMARK   13  A    between atoms: C11_11  and  C12_12 
REMARK       I    between atoms: C18_18  and  N4_46 
REMARK   14  A    between atoms: N4_46  and  C19_19 
REMARK   15  A    between atoms: C19_19  and  C23_23 
REMARK   16  A    between atoms: C20_20  and  O4_53 
REMARK   17  A    between atoms: C34_34  and  C33_33 
REMARK   18  A    between atoms: N7_49  and  C34_34 
REMARK   19  A    between atoms: C41_41  and  C36_36 
REMARK       I    between atoms: C42_42  and  N7_49 
ROOT
ATOM      1  C4  G37 d   1       9.772  24.818   4.071  0.00  0.00     0.194 C 
ATOM      2  C5  G37 d   1       7.412  25.136   3.600  0.00  0.00     0.175 C 
ATOM      3  C6  G37 d   1       9.691  24.087   2.732  0.00  0.00     0.040 C 
ATOM      4  N2  G37 d   1       8.418  24.916   4.585  0.00  0.00    -0.045 N 
ATOM      5  S1  G37 d   1       8.140  24.688   2.009  0.00  0.00    -0.122 SA
ATOM      6  H4  G37 d   1      10.136  25.839   3.883  0.00  0.00     0.102 H 
ATOM      7  H5  G37 d   1       6.527  24.521   3.822  0.00  0.00     0.105 H 
ATOM      8  H42 G37 d   1       8.203  24.056   5.064  0.00  0.00     0.279 HD
ATOM      9  H43 G37 d   1       8.387  25.682   5.239  0.00  0.00     0.279 HD
ENDROOT
BRANCH   1  10
ATOM     10  C3  G37 d   1      10.759  24.170   5.036  0.00  0.00     0.250 C 
ATOM     11  O1  G37 d   1      10.436  23.349   5.876  0.00  0.00    -0.271 OA
ATOM     12  N1  G37 d   1      12.007  24.592   4.872  0.00  0.00    -0.352 N 
ATOM     13  H41 G37 d   1      12.182  25.288   4.175  0.00  0.00     0.163 HD
BRANCH  12  14
ATOM     14  C2  G37 d   1      13.160  24.089   5.666  0.00  0.00     0.041 C 
ATOM     15  H3  G37 d   1      12.940  23.033   5.881  0.00  0.00     0.076 H 
BRANCH  14  16
ATOM     16  C41 G37 d   1      13.342  24.773   7.030  0.00  0.00    -0.020 C 
ATOM     17  H39 G37 d   1      13.787  25.767   6.880  0.00  0.00     0.043 H 
ATOM     18  H40 G37 d   1      12.360  24.880   7.515  0.00  0.00     0.043 H 
BRANCH  16  19
ATOM     19  C36 G37 d   1      14.262  23.939   7.932  0.00  0.00    -0.056 A 
ATOM     20  C35 G37 d   1      15.644  23.992   7.900  0.00  0.00    -0.077 A 
ATOM     21  C40 G37 d   1      16.406  23.123   8.665  0.00  0.00    -0.082 A 
ATOM     22  H34 G37 d   1      16.137  24.722   7.269  0.00  0.00     0.084 H 
ATOM     23  C39 G37 d   1      15.799  22.193   9.481  0.00  0.00    -0.083 A 
ATOM     24  H38 G37 d   1      17.488  23.175   8.621  0.00  0.00     0.083 H 
ATOM     25  C38 G37 d   1      14.434  22.155   9.549  0.00  0.00    -0.082 A 
ATOM     26  H37 G37 d   1      16.397  21.500  10.062  0.00  0.00     0.083 H 
ATOM     27  C37 G37 d   1      13.680  23.025   8.778  0.00  0.00    -0.077 A 
ATOM     28  H36 G37 d   1      13.943  21.445  10.205  0.00  0.00     0.083 H 
ATOM     29  H35 G37 d   1      12.599  22.984   8.844  0.00  0.00     0.084 H 
ENDBRANCH  16  19
ENDBRANCH  14  16
BRANCH  14  30
ATOM     30  C20 G37 d   1      14.475  24.110   4.854  0.00  0.00     0.063 C 
ATOM     31  H22 G37 d   1      15.331  24.142   5.544  0.00  0.00     0.086 H 
BRANCH  30  32
ATOM     32  C1  G37 d   1      14.606  22.911   3.950  0.00  0.00     0.035 C 
ATOM     33  H1  G37 d   1      15.488  23.010   3.300  0.00  0.00     0.051 H 
ATOM     34  H2  G37 d   1      13.705  22.792   3.330  0.00  0.00     0.051 H 
BRANCH  32  35
ATOM     35  C42 G37 d   1      14.762  21.763   4.871  0.00  0.00     0.220 C 
ATOM     36  N7  G37 d   1      15.897  21.826   5.512  0.00  0.00    -0.354 N 
ATOM     37  H47 G37 d   1      16.480  22.629   5.390  0.00  0.00     0.162 HD
ATOM     38  O5  G37 d   1      13.905  20.914   5.066  0.00  0.00    -0.274 OA
BRANCH  36  39
ATOM     39  C34 G37 d   1      16.336  20.766   6.394  0.00  0.00     0.050 C 
ATOM     40  H32 G37 d   1      17.052  21.150   7.135  0.00  0.00     0.075 H 
ATOM     41  H33 G37 d   1      15.478  20.313   6.913  0.00  0.00     0.075 H 
BRANCH  39  42
ATOM     42  C33 G37 d   1      16.987  19.779   5.502  0.00  0.00     0.123 A 
ATOM     43  N6  G37 d   1      18.169  19.198   5.728  0.00  0.00    -0.341 N 
ATOM     44  C30 G37 d   1      18.306  18.348   4.679  0.00  0.00     0.062 A 
ATOM     45  H46 G37 d   1      18.820  19.357   6.510  0.00  0.00     0.167 HD
ATOM     46  C29 G37 d   1      17.151  18.516   3.778  0.00  0.00     0.085 A 
ATOM     47  C31 G37 d   1      19.217  17.372   4.396  0.00  0.00    -0.055 A 
ATOM     48  C28 G37 d   1      17.006  17.760   2.632  0.00  0.00    -0.053 A 
ATOM     49  N5  G37 d   1      16.354  19.429   4.390  0.00  0.00    -0.232 NA
ATOM     50  C27 G37 d   1      17.959  16.797   2.383  0.00  0.00    -0.081 A 
ATOM     51  H29 G37 d   1      16.175  17.918   1.954  0.00  0.00     0.087 H 
ATOM     52  C32 G37 d   1      19.012  16.599   3.273  0.00  0.00    -0.081 A 
ATOM     53  H28 G37 d   1      17.889  16.189   1.488  0.00  0.00     0.083 H 
ATOM     54  H31 G37 d   1      19.708  15.793   3.072  0.00  0.00     0.083 H 
ATOM     55  H30 G37 d   1      20.077  17.209   5.036  0.00  0.00     0.087 H 
ENDBRANCH  39  42
ENDBRANCH  36  39
ENDBRANCH  32  35
ENDBRANCH  30  32
BRANCH  30  56
ATOM     56  O4  G37 d   1      14.455  25.247   4.059  0.00  0.00    -0.393 OA
ATOM     57  H48 G37 d   1      15.262  25.298   3.561  0.00  0.00     0.210 HD
ENDBRANCH  30  56
ENDBRANCH  14  30
ENDBRANCH  12  14
ENDBRANCH   1  10
BRANCH   3  58
ATOM     58  C7  G37 d   1       9.560  22.573   2.848  0.00  0.00    -0.058 C 
ATOM     59  H6  G37 d   1       9.508  22.131   1.842  0.00  0.00     0.029 H 
ATOM     60  H7  G37 d   1       8.644  22.326   3.404  0.00  0.00     0.029 H 
ATOM     61  H8  G37 d   1      10.433  22.169   3.381  0.00  0.00     0.029 H 
ENDBRANCH   3  58
BRANCH   3  62
ATOM     62  C8  G37 d   1      10.823  24.482   1.821  0.00  0.00    -0.058 C 
ATOM     63  H9  G37 d   1      10.883  25.579   1.765  0.00  0.00     0.029 H 
ATOM     64  H10 G37 d   1      10.645  24.073   0.816  0.00  0.00     0.029 H 
ATOM     65  H11 G37 d   1      11.768  24.083   2.217  0.00  0.00     0.029 H 
ENDBRANCH   3  62
BRANCH   2  66
ATOM     66  C9  G37 d   1       7.015  26.599   3.486  0.00  0.00     0.125 C 
ATOM     67  H12 G37 d   1       7.872  27.142   3.062  0.00  0.00     0.092 H 
BRANCH  66  68
ATOM     68  C18 G37 d   1       5.917  26.626   2.435  0.00  0.00     0.243 C 
ATOM     69  O3  G37 d   1       6.161  26.852   1.257  0.00  0.00    -0.271 OA
ATOM     70  N4  G37 d   1       4.660  26.399   2.802  0.00  0.00    -0.355 N 
ATOM     71  H45 G37 d   1       3.967  26.896   2.280  0.00  0.00     0.162 HD
BRANCH  70  72
ATOM     72  C19 G37 d   1       4.135  25.518   3.870  0.00  0.00     0.019 C 
ATOM     73  H20 G37 d   1       4.977  24.915   4.241  0.00  0.00     0.071 H 
ATOM     74  H21 G37 d   1       3.385  24.858   3.411  0.00  0.00     0.071 H 
BRANCH  72  75
ATOM     75  C23 G37 d   1       3.480  26.180   5.081  0.00  0.00    -0.041 A 
ATOM     76  C22 G37 d   1       2.146  26.596   5.009  0.00  0.00    -0.075 A 
ATOM     77  C21 G37 d   1       1.539  27.177   6.121  0.00  0.00    -0.082 A 
ATOM     78  H24 G37 d   1       1.586  26.467   4.090  0.00  0.00     0.084 H 
ATOM     79  C26 G37 d   1       2.265  27.378   7.296  0.00  0.00    -0.083 A 
ATOM     80  H23 G37 d   1       0.498  27.474   6.073  0.00  0.00     0.083 H 
ATOM     81  C25 G37 d   1       3.591  26.983   7.365  0.00  0.00    -0.082 A 
ATOM     82  H27 G37 d   1       1.792  27.843   8.153  0.00  0.00     0.083 H 
ATOM     83  C24 G37 d   1       4.187  26.358   6.278  0.00  0.00    -0.075 A 
ATOM     84  H26 G37 d   1       4.163  27.162   8.268  0.00  0.00     0.083 H 
ATOM     85  H25 G37 d   1       5.209  26.004   6.356  0.00  0.00     0.084 H 
ENDBRANCH  72  75
ENDBRANCH  70  72
ENDBRANCH  66  68
BRANCH  66  86
ATOM     86  N3  G37 d   1       6.749  27.260   4.792  0.00  0.00    -0.345 N 
ATOM     87  C10 G37 d   1       7.677  27.990   5.461  0.00  0.00     0.222 C 
ATOM     88  O2  G37 d   1       8.689  28.449   4.948  0.00  0.00    -0.273 OA
ATOM     89  H44 G37 d   1       5.840  27.161   5.197  0.00  0.00     0.163 HD
BRANCH  87  90
ATOM     90  C11 G37 d   1       7.393  28.190   6.965  0.00  0.00     0.033 C 
ATOM     91  H13 G37 d   1       6.441  27.700   7.216  0.00  0.00     0.054 H 
ATOM     92  H14 G37 d   1       7.317  29.267   7.173  0.00  0.00     0.054 H 
BRANCH  90  93
ATOM     93  C12 G37 d   1       8.493  27.599   7.831  0.00  0.00    -0.050 A 
ATOM     94  C13 G37 d   1       9.414  28.417   8.450  0.00  0.00    -0.076 A 
ATOM     95  C14 G37 d   1      10.482  27.889   9.134  0.00  0.00    -0.082 A 
ATOM     96  H15 G37 d   1       9.294  29.493   8.396  0.00  0.00     0.084 H 
ATOM     97  C15 G37 d   1      10.647  26.536   9.225  0.00  0.00    -0.083 A 
ATOM     98  H16 G37 d   1      11.199  28.551   9.605  0.00  0.00     0.083 H 
ATOM     99  C16 G37 d   1       9.728  25.698   8.640  0.00  0.00    -0.082 A 
ATOM    100  H17 G37 d   1      11.498  26.125   9.756  0.00  0.00     0.083 H 
ATOM    101  C17 G37 d   1       8.642  26.215   7.954  0.00  0.00    -0.076 A 
ATOM    102  H18 G37 d   1       9.854  24.624   8.716  0.00  0.00     0.083 H 
ATOM    103  H19 G37 d   1       7.910  25.548   7.514  0.00  0.00     0.084 H 
ENDBRANCH  90  93
ENDBRANCH  87  90
ENDBRANCH  66  86
ENDBRANCH   2  66
TORSDOF 19
