REMARK  7 active torsions:
REMARK  status: ('A' for Active; 'I' for Inactive)
REMARK    1  A    between atoms: C1_1  and  C2_2 
REMARK    2  A    between atoms: C2_2  and  O2_3 
REMARK    3  A    between atoms: C2_2  and  CM_4 
REMARK    4  A    between atoms: C2_2  and  C3_5 
REMARK    5  A    between atoms: C3_5  and  C4_6 
REMARK    6  A    between atoms: C4_6  and  O4_7 
REMARK    7  A    between atoms: C4_6  and  C5_8 
ROOT
ATOM      1  C2  NON d   1      16.324  61.170  10.631  0.00  0.00     0.053 C 
ENDROOT
BRANCH   1   2
ATOM      2  C1  NON d   1      14.881  61.126  10.245  0.00  0.00    -0.048 C 
ATOM      3  H1  NON d   1      14.350  61.966  10.717  0.00  0.00     0.031 H 
ATOM      4  H2  NON d   1      14.440  60.177  10.583  0.00  0.00     0.031 H 
ATOM      5  H3  NON d   1      14.791  61.203   9.151  0.00  0.00     0.031 H 
ENDBRANCH   1   2
BRANCH   1   6
ATOM      6  O2  NON d   1      16.988  60.056   9.995  0.00  0.00    -0.391 OA
ATOM      7  H4  NON d   1      17.909  60.064  10.227  0.00  0.00     0.210 HD
ENDBRANCH   1   6
BRANCH   1   8
ATOM      8  CM  NON d   1      16.974  62.441  10.153  0.00  0.00    -0.048 C 
ATOM      9  H5  NON d   1      18.033  62.446  10.451  0.00  0.00     0.031 H 
ATOM     10  H6  NON d   1      16.463  63.306  10.602  0.00  0.00     0.031 H 
ATOM     11  H7  NON d   1      16.901  62.501   9.057  0.00  0.00     0.031 H 
ENDBRANCH   1   8
BRANCH   1  12
ATOM     12  C3  NON d   1      16.449  61.005  12.170  0.00  0.00    -0.014 C 
ATOM     13  H8  NON d   1      15.747  60.214  12.471  0.00  0.00     0.041 H 
ATOM     14  H9  NON d   1      16.144  61.959  12.626  0.00  0.00     0.041 H 
BRANCH  12  15
ATOM     15  C4  NON d   1      17.817  60.642  12.750  0.00  0.00     0.035 C 
ATOM     16  H10 NON d   1      18.462  60.256  11.947  0.00  0.00     0.082 H 
BRANCH  15  17
ATOM     17  O4  NON d   1      17.676  59.673  13.767  0.00  0.00    -0.396 OA
ATOM     18  H11 NON d   1      18.532  59.457  14.118  0.00  0.00     0.210 HD
ENDBRANCH  15  17
BRANCH  15  19
ATOM     19  C5  NON d   1      18.463  61.860  13.399  0.00  0.00    -0.052 C 
ATOM     20  H12 NON d   1      19.444  61.580  13.810  0.00  0.00     0.030 H 
ATOM     21  H13 NON d   1      17.818  62.229  14.210  0.00  0.00     0.030 H 
ATOM     22  H14 NON d   1      18.593  62.651  12.646  0.00  0.00     0.030 H 
ENDBRANCH  15  19
ENDBRANCH  12  15
ENDBRANCH   1  12
TORSDOF 7
