REMARK  18 active torsions:
REMARK  status: ('A' for Active; 'I' for Inactive)
REMARK       I    between atoms: C11_14  and  N1_1 
REMARK    1  A    between atoms: N2_2  and  C1_3 
REMARK       I    between atoms: C12_17  and  N2_2 
REMARK    2  A    between atoms: C1_3  and  C2_4 
REMARK    3  A    between atoms: C1_3  and  C11_14 
REMARK    4  A    between atoms: C2_4  and  C3_5 
REMARK    5  A    between atoms: C20_25  and  C12_17 
REMARK    6  A    between atoms: C13_18  and  C20_25 
REMARK    7  A    between atoms: C38_26  and  C13_18 
REMARK    8  A    between atoms: C39_27  and  C14_19 
REMARK    9  A    between atoms: C20_25  and  C21_28 
REMARK   10  A    between atoms: C38_26  and  C39_27 
REMARK   11  A    between atoms: C21_28  and  P_29 
REMARK   12  A    between atoms: P_29  and  C22_33 
REMARK   13  A    between atoms: C22_33  and  N4_32 
REMARK       I    between atoms: N4_32  and  C30_41 
REMARK   14  A    between atoms: C22_33  and  C23_34 
REMARK   15  A    between atoms: C23_34  and  C24_35 
REMARK   16  A    between atoms: C30_41  and  O6_43 
REMARK   17  A    between atoms: O6_43  and  C31_44 
REMARK   18  A    between atoms: C31_44  and  C32_45 
ROOT
ATOM      1  C20 RXP d   1      43.001  62.066   6.324  0.00  0.00     0.032 C 
ATOM      2  H20 RXP d   1      42.695  61.751   7.332  0.00  0.00     0.055 H 
ENDROOT
BRANCH   1   3
ATOM      3  C12 RXP d   1      41.740  61.998   5.395  0.00  0.00     0.223 C 
ATOM      4  N2  RXP d   1      40.581  61.499   5.853  0.00  0.00    -0.347 N 
ATOM      5  H3  RXP d   1      40.571  61.208   6.810  0.00  0.00     0.163 HD
ATOM      6  O2  RXP d   1      41.805  62.295   4.275  0.00  0.00    -0.273 OA
BRANCH   4   7
ATOM      7  C1  RXP d   1      39.327  61.332   5.110  0.00  0.00     0.093 C 
ATOM      8  H4  RXP d   1      39.577  61.309   4.039  0.00  0.00     0.088 H 
BRANCH   7   9
ATOM      9  C2  RXP d   1      38.753  59.942   5.407  0.00  0.00    -0.012 C 
ATOM     10  H5  RXP d   1      38.378  59.912   6.441  0.00  0.00     0.044 H 
ATOM     11  H6  RXP d   1      39.540  59.184   5.280  0.00  0.00     0.044 H 
BRANCH   9  12
ATOM     12  C3  RXP d   1      37.632  59.662   4.460  0.00  0.00    -0.028 A 
ATOM     13  C4  RXP d   1      37.822  58.994   3.269  0.00  0.00    -0.002 A 
ATOM     14  C6  RXP d   1      36.405  58.964   2.622  0.00  0.00     0.042 A 
ATOM     15  C7  RXP d   1      38.970  58.358   2.568  0.00  0.00    -0.070 A 
ATOM     16  N3  RXP d   1      35.539  59.619   3.476  0.00  0.00    -0.365 N 
ATOM     17  C8  RXP d   1      36.099  58.335   1.324  0.00  0.00    -0.056 A 
ATOM     18  C5  RXP d   1      36.242  60.028   4.599  0.00  0.00    -0.015 A 
ATOM     19  H8  RXP d   1      34.535  59.778   3.306  0.00  0.00     0.165 HD
ATOM     20  H7  RXP d   1      35.812  60.546   5.455  0.00  0.00     0.112 H 
ATOM     21  C10 RXP d   1      37.253  57.654   0.628  0.00  0.00    -0.081 A 
ATOM     22  H10 RXP d   1      35.104  58.360   0.895  0.00  0.00     0.086 H 
ATOM     23  C9  RXP d   1      38.692  57.672   1.257  0.00  0.00    -0.082 A 
ATOM     24  H12 RXP d   1      37.087  57.147  -0.316  0.00  0.00     0.083 H 
ATOM     25  H11 RXP d   1      39.504  57.179   0.735  0.00  0.00     0.083 H 
ATOM     26  H9  RXP d   1      39.970  58.388   2.986  0.00  0.00     0.084 H 
ENDBRANCH   9  12
ENDBRANCH   7   9
BRANCH   7  27
ATOM     27  C11 RXP d   1      38.468  62.648   5.300  0.00  0.00     0.238 C 
ATOM     28  N1  RXP d   1      38.099  63.264   4.140  0.00  0.00    -0.368 N 
ATOM     29  H1  RXP d   1      37.554  64.102   4.170  0.00  0.00     0.159 HD
ATOM     30  H2  RXP d   1      38.373  62.877   3.259  0.00  0.00     0.159 HD
ATOM     31  O1  RXP d   1      38.126  62.881   6.449  0.00  0.00    -0.271 OA
ENDBRANCH   7  27
ENDBRANCH   4   7
ENDBRANCH   1   3
BRANCH   1  32
ATOM     32  C13 RXP d   1      43.732  63.379   6.414  0.00  0.00    -0.053 C 
ATOM     33  H13 RXP d   1      43.880  63.773   5.398  0.00  0.00     0.034 H 
ATOM     34  H14 RXP d   1      44.710  63.209   6.888  0.00  0.00     0.034 H 
BRANCH  32  35
ATOM     35  C38 RXP d   1      42.979  64.387   7.215  0.00  0.00    -0.061 C 
ATOM     36  H21 RXP d   1      42.304  64.851   6.481  0.00  0.00     0.033 H 
ATOM     37  H22 RXP d   1      43.751  65.112   7.513  0.00  0.00     0.033 H 
BRANCH  35  38
ATOM     38  C39 RXP d   1      42.088  64.244   8.501  0.00  0.00    -0.041 C 
ATOM     39  H23 RXP d   1      41.207  63.650   8.218  0.00  0.00     0.040 H 
ATOM     40  H24 RXP d   1      42.681  63.690   9.243  0.00  0.00     0.040 H 
BRANCH  38  41
ATOM     41  C14 RXP d   1      41.599  65.443   9.157  0.00  0.00    -0.058 C 
ATOM     42  C15 RXP d   1      40.898  64.978  10.331  0.00  0.00    -0.077 C 
ATOM     43  C16 RXP d   1      40.454  65.993  11.305  0.00  0.00    -0.082 C 
ATOM     44  H15 RXP d   1      40.705  63.923  10.490  0.00  0.00     0.084 H 
ATOM     45  C17 RXP d   1      40.646  67.423  11.095  0.00  0.00    -0.083 C 
ATOM     46  H16 RXP d   1      39.965  65.662  12.214  0.00  0.00     0.083 H 
ATOM     47  C18 RXP d   1      41.250  67.861   9.862  0.00  0.00    -0.082 C 
ATOM     48  H17 RXP d   1      40.342  68.140  11.849  0.00  0.00     0.083 H 
ATOM     49  C19 RXP d   1      41.717  66.930   8.807  0.00  0.00    -0.077 C 
ATOM     50  H18 RXP d   1      41.369  68.926   9.697  0.00  0.00     0.083 H 
ATOM     51  H19 RXP d   1      42.112  67.275   7.859  0.00  0.00     0.084 H 
ENDBRANCH  38  41
ENDBRANCH  35  38
ENDBRANCH  32  35
ENDBRANCH   1  32
BRANCH   1  52
ATOM     52  C21 RXP d   1      44.098  61.134   5.760  0.00  0.00     0.020 C 
ATOM     53  H25 RXP d   1      44.586  61.670   4.933  0.00  0.00     0.050 H 
ATOM     54  H26 RXP d   1      43.594  60.237   5.370  0.00  0.00     0.050 H 
BRANCH  52  55
ATOM     55  P   RXP d   1      45.368  60.586   6.847  0.00  0.00     0.130 P 
ATOM     56  O1P RXP d   1      44.645  60.227   7.874  0.00  0.00    -0.666 OA
ATOM     57  O2P RXP d   1      46.330  61.402   7.275  0.00  0.00    -0.666 OA
BRANCH  55  58
ATOM     58  C22 RXP d   1      46.244  59.148   6.183  0.00  0.00     0.092 C 
ATOM     59  H28 RXP d   1      46.871  59.456   5.333  0.00  0.00     0.089 H 
BRANCH  58  60
ATOM     60  N4  RXP d   1      45.208  58.212   5.773  0.00  0.00    -0.334 N 
ATOM     61  C30 RXP d   1      44.921  57.192   4.809  0.00  0.00     0.292 C 
ATOM     62  O5  RXP d   1      43.864  56.356   5.069  0.00  0.00    -0.143 OA
ATOM     63  H27 RXP d   1      44.418  58.318   6.377  0.00  0.00     0.164 HD
BRANCH  61  64
ATOM     64  O6  RXP d   1      45.983  57.044   3.769  0.00  0.00    -0.310 OA
BRANCH  64  65
ATOM     65  C31 RXP d   1      45.922  55.810   2.796  0.00  0.00     0.053 C 
ATOM     66  H36 RXP d   1      46.950  55.614   2.459  0.00  0.00     0.082 H 
ATOM     67  H37 RXP d   1      45.304  56.108   1.936  0.00  0.00     0.082 H 
BRANCH  65  68
ATOM     68  C32 RXP d   1      45.334  54.425   3.339  0.00  0.00    -0.034 A 
ATOM     69  C33 RXP d   1      46.069  53.529   4.364  0.00  0.00    -0.075 A 
ATOM     70  C34 RXP d   1      45.307  52.397   5.107  0.00  0.00    -0.082 A 
ATOM     71  H38 RXP d   1      47.122  53.692   4.565  0.00  0.00     0.084 H 
ATOM     72  C35 RXP d   1      43.811  52.089   4.774  0.00  0.00    -0.083 A 
ATOM     73  H39 RXP d   1      45.818  51.814   5.865  0.00  0.00     0.083 H 
ATOM     74  C36 RXP d   1      43.032  52.870   3.673  0.00  0.00    -0.082 A 
ATOM     75  H40 RXP d   1      43.300  51.308   5.326  0.00  0.00     0.083 H 
ATOM     76  C37 RXP d   1      43.839  54.070   3.008  0.00  0.00    -0.075 A 
ATOM     77  H41 RXP d   1      42.019  52.616   3.383  0.00  0.00     0.083 H 
ATOM     78  H42 RXP d   1      43.323  54.683   2.278  0.00  0.00     0.084 H 
ENDBRANCH  65  68
ENDBRANCH  64  65
ENDBRANCH  61  64
ENDBRANCH  58  60
BRANCH  58  79
ATOM     79  C23 RXP d   1      47.101  58.383   7.215  0.00  0.00    -0.013 C 
ATOM     80  H29 RXP d   1      46.440  57.701   7.771  0.00  0.00     0.044 H 
ATOM     81  H30 RXP d   1      47.537  59.117   7.909  0.00  0.00     0.044 H 
BRANCH  79  82
ATOM     82  C24 RXP d   1      48.174  57.606   6.652  0.00  0.00    -0.056 A 
ATOM     83  C25 RXP d   1      47.966  56.181   6.074  0.00  0.00    -0.077 A 
ATOM     84  C27 RXP d   1      49.027  55.407   5.442  0.00  0.00    -0.082 A 
ATOM     85  H31 RXP d   1      46.979  55.738   6.144  0.00  0.00     0.084 H 
ATOM     86  C29 RXP d   1      50.360  56.051   5.395  0.00  0.00    -0.083 A 
ATOM     87  H33 RXP d   1      48.851  54.419   5.031  0.00  0.00     0.083 H 
ATOM     88  C28 RXP d   1      50.644  57.441   5.960  0.00  0.00    -0.082 A 
ATOM     89  H35 RXP d   1      51.177  55.507   4.935  0.00  0.00     0.083 H 
ATOM     90  C26 RXP d   1      49.535  58.227   6.593  0.00  0.00    -0.077 A 
ATOM     91  H34 RXP d   1      51.643  57.858   5.904  0.00  0.00     0.083 H 
ATOM     92  H32 RXP d   1      49.714  59.217   6.997  0.00  0.00     0.084 H 
ENDBRANCH  79  82
ENDBRANCH  58  79
ENDBRANCH  55  58
ENDBRANCH  52  55
ENDBRANCH   1  52
TORSDOF 18
