REMARK  11 active torsions:
REMARK  status: ('A' for Active; 'I' for Inactive)
REMARK    1  A    between atoms: C2_2  and  CM2_3 
REMARK    2  A    between atoms: C9_13  and  C6_9 
REMARK    3  A    between atoms: N10_14  and  C9_13 
REMARK    4  A    between atoms: C14_17  and  N10_14 
REMARK    5  A    between atoms: N10_14  and  CP1_32 
REMARK    6  A    between atoms: C11_15  and  C_20 
REMARK       I    between atoms: C_20  and  N_22 
REMARK    7  A    between atoms: N_22  and  CA_23 
REMARK    8  A    between atoms: CA_23  and  CB_24 
REMARK    9  A    between atoms: CA_23  and  CT_29 
REMARK   10  A    between atoms: CB_24  and  CG_25 
REMARK   11  A    between atoms: CG_25  and  CD_26 
ROOT
ATOM      1  N10 D16 d   1       3.390  10.837  15.909  0.00  0.00    -0.375 N 
ENDROOT
BRANCH   1   2
ATOM      2  C9  D16 d   1       3.766   9.905  17.009  0.00  0.00     0.019 C 
ATOM      3  H8  D16 d   1       4.552   9.239  16.624  0.00  0.00     0.071 H 
ATOM      4  H9  D16 d   1       4.170  10.512  17.833  0.00  0.00     0.071 H 
BRANCH   2   5
ATOM      5  C6  D16 d   1       2.676   9.037  17.579  0.00  0.00    -0.039 A 
ATOM      6  C5  D16 d   1       1.318   9.065  17.090  0.00  0.00    -0.059 A 
ATOM      7  C4A D16 d   1       0.325   8.249  17.681  0.00  0.00     0.047 A 
ATOM      8  H5  D16 d   1       1.057   9.716  16.264  0.00  0.00     0.086 H 
ATOM      9  C4  D16 d   1      -1.023   8.241  17.254  0.00  0.00     0.192 A 
ATOM     10  C8A D16 d   1       0.658   7.382  18.782  0.00  0.00     0.073 A 
ATOM     11  N3  D16 d   1      -1.947   7.459  17.880  0.00  0.00    -0.322 N 
ATOM     12  O4  D16 d   1      -1.423   9.004  16.190  0.00  0.00    -0.171 OA
ATOM     13  C2  D16 d   1      -1.603   6.660  18.926  0.00  0.00     0.102 A 
ATOM     14  H4  D16 d   1      -2.896   7.473  17.564  0.00  0.00     0.169 HD
ATOM     15  N1  D16 d   1      -0.308   6.620  19.364  0.00  0.00    -0.235 NA
ATOM     16  C8  D16 d   1       2.010   7.349  19.255  0.00  0.00    -0.054 A 
ATOM     17  C7  D16 d   1       3.009   8.169  18.655  0.00  0.00    -0.073 A 
ATOM     18  H7  D16 d   1       2.275   6.694  20.077  0.00  0.00     0.087 H 
ATOM     19  H6  D16 d   1       4.029   8.131  19.021  0.00  0.00     0.084 H 
BRANCH  13  20
ATOM     20  CM2 D16 d   1      -2.641   5.847  19.566  0.00  0.00    -0.021 C 
ATOM     21  H1  D16 d   1      -2.197   5.265  20.387  0.00  0.00     0.037 H 
ATOM     22  H2  D16 d   1      -3.078   5.161  18.825  0.00  0.00     0.037 H 
ATOM     23  H3  D16 d   1      -3.427   6.504  19.966  0.00  0.00     0.037 H 
ENDBRANCH  13  20
ENDBRANCH   2   5
ENDBRANCH   1   2
BRANCH   1  24
ATOM     24  C14 D16 d   1       2.574  11.924  16.121  0.00  0.00     0.072 A 
ATOM     25  S13 D16 d   1       1.890  12.342  17.662  0.00  0.00    -0.067 SA
ATOM     26  C11 D16 d   1       1.069  13.704  17.085  0.00  0.00     0.074 A 
ATOM     27  C16 D16 d   1       1.273  13.893  15.740  0.00  0.00    -0.058 A 
ATOM     28  C15 D16 d   1       2.171  12.834  15.159  0.00  0.00    -0.049 A 
ATOM     29  H11 D16 d   1       0.838  14.709  15.165  0.00  0.00     0.086 H 
ATOM     30  H10 D16 d   1       2.467  12.789  14.112  0.00  0.00     0.087 H 
BRANCH  26  31
ATOM     31  C   D16 d   1       0.253  14.555  17.912  0.00  0.00     0.259 C 
ATOM     32  O   D16 d   1       0.136  14.285  19.114  0.00  0.00    -0.267 OA
ATOM     33  N   D16 d   1      -0.349  15.600  17.347  0.00  0.00    -0.342 N 
ATOM     34  H12 D16 d   1      -0.200  15.745  16.369  0.00  0.00     0.163 HD
BRANCH  33  35
ATOM     35  CA  D16 d   1      -1.218  16.559  18.052  0.00  0.00     0.097 C 
ATOM     36  H13 D16 d   1      -1.570  16.092  18.983  0.00  0.00     0.089 H 
BRANCH  35  37
ATOM     37  CB  D16 d   1      -0.564  17.881  18.399  0.00  0.00    -0.028 C 
ATOM     38  H14 D16 d   1      -0.986  18.623  17.705  0.00  0.00     0.037 H 
ATOM     39  H15 D16 d   1       0.509  17.755  18.194  0.00  0.00     0.037 H 
BRANCH  37  40
ATOM     40  CG  D16 d   1      -0.659  18.484  19.762  0.00  0.00     0.018 C 
ATOM     41  H16 D16 d   1      -0.538  17.703  20.527  0.00  0.00     0.049 H 
ATOM     42  H17 D16 d   1      -1.636  18.973  19.888  0.00  0.00     0.049 H 
BRANCH  40  43
ATOM     43  CD  D16 d   1       0.454  19.510  19.890  0.00  0.00     0.172 C 
ATOM     44  OE1 D16 d   1       1.472  19.222  20.524  0.00  0.00    -0.648 OA
ATOM     45  OE2 D16 d   1       0.328  20.620  19.358  0.00  0.00    -0.648 OA
ENDBRANCH  40  43
ENDBRANCH  37  40
ENDBRANCH  35  37
BRANCH  35  46
ATOM     46  CT  D16 d   1      -2.399  16.847  17.136  0.00  0.00     0.196 C 
ATOM     47  O1  D16 d   1      -2.249  16.775  15.898  0.00  0.00    -0.646 OA
ATOM     48  O2  D16 d   1      -3.476  17.136  17.649  0.00  0.00    -0.646 OA
ENDBRANCH  35  46
ENDBRANCH  33  35
ENDBRANCH  26  31
ENDBRANCH   1  24
BRANCH   1  49
ATOM     49  CP1 D16 d   1       3.931  10.545  14.574  0.00  0.00    -0.018 C 
ATOM     50  H18 D16 d   1       3.578  11.305  13.861  0.00  0.00     0.056 H 
ATOM     51  H19 D16 d   1       3.590   9.551  14.249  0.00  0.00     0.056 H 
ATOM     52  H20 D16 d   1       5.030  10.561  14.612  0.00  0.00     0.056 H 
ENDBRANCH   1  49
TORSDOF 11
