REMARK  3 active torsions:
REMARK  status: ('A' for Active; 'I' for Inactive)
REMARK    1  A    between atoms: C1_1  and  O1_2 
REMARK    2  A    between atoms: C8_9  and  O13_10 
REMARK    3  A    between atoms: C7_11  and  O11_12 
ROOT
ATOM      1  C1  SWA d   1      31.085  66.850   6.104  0.00  0.00     0.066 C 
ATOM      2  C3  SWA d   1      31.291  67.003   7.649  0.00  0.00     0.155 C 
ATOM      3  N4  SWA d   1      30.731  65.807   8.307  0.00  0.00    -0.059 N 
ATOM      4  C5  SWA d   1      29.256  65.670   8.136  0.00  0.00     0.084 C 
ATOM      5  C6  SWA d   1      28.952  65.497   6.623  0.00  0.00    -0.040 C 
ATOM      6  C2  SWA d   1      29.554  66.686   5.818  0.00  0.00    -0.037 C 
ATOM      7  C9  SWA d   1      31.284  65.713   9.652  0.00  0.00     0.110 C 
ATOM      8  C8  SWA d   1      32.648  66.448   9.597  0.00  0.00     0.085 C 
ATOM      9  C7  SWA d   1      32.755  67.082   8.161  0.00  0.00     0.092 C 
ATOM     10  H1  SWA d   1      31.614  65.950   5.757  0.00  0.00     0.086 H 
ATOM     11  H3  SWA d   1      30.756  67.907   7.975  0.00  0.00     0.092 H 
ATOM     12  H4  SWA d   1      31.110  65.015   7.813  0.00  0.00     0.280 HD
ATOM     13  H5  SWA d   1      28.753  66.572   8.515  0.00  0.00     0.076 H 
ATOM     14  H6  SWA d   1      28.898  64.790   8.690  0.00  0.00     0.076 H 
ATOM     15  H7  SWA d   1      27.863  65.469   6.471  0.00  0.00     0.035 H 
ATOM     16  H8  SWA d   1      29.396  64.555   6.268  0.00  0.00     0.035 H 
ATOM     17  H9  SWA d   1      29.408  66.501   4.744  0.00  0.00     0.036 H 
ATOM     18  H10 SWA d   1      29.035  67.612   6.105  0.00  0.00     0.036 H 
ATOM     19  H11 SWA d   1      31.427  64.660   9.935  0.00  0.00     0.080 H 
ATOM     20  H12 SWA d   1      30.615  66.200  10.377  0.00  0.00     0.080 H 
ATOM     21  H13 SWA d   1      32.679  67.241  10.359  0.00  0.00     0.089 H 
ATOM     22  H15 SWA d   1      33.105  68.124   8.210  0.00  0.00     0.090 H 
ENDROOT
BRANCH   1  23
ATOM     23  O1  SWA d   1      31.616  67.993   5.412  0.00  0.00    -0.393 OA
ATOM     24  H2  SWA d   1      32.545  68.069   5.595  0.00  0.00     0.210 HD
ENDBRANCH   1  23
BRANCH   9  25
ATOM     25  O11 SWA d   1      33.641  66.314   7.319  0.00  0.00    -0.391 OA
ATOM     26  H16 SWA d   1      34.507  66.294   7.708  0.00  0.00     0.210 HD
ENDBRANCH   9  25
BRANCH   8  27
ATOM     27  O13 SWA d   1      33.715  65.534   9.833  0.00  0.00    -0.391 OA
ATOM     28  H14 SWA d   1      34.544  65.992   9.763  0.00  0.00     0.210 HD
ENDBRANCH   8  27
TORSDOF 3
