REMARK  5 active torsions:
REMARK  status: ('A' for Active; 'I' for Inactive)
REMARK    1  A    between atoms: C2_1  and  O2_7 
REMARK    2  A    between atoms: C3_2  and  O3_8 
REMARK    3  A    between atoms: C4_4  and  O4_9 
REMARK    4  A    between atoms: C5_5  and  C6_6 
REMARK    5  A    between atoms: C6_6  and  O6_11 
ROOT
ATOM      1  C2  DMJ d   1      32.699  66.541   9.305  0.00  0.00     0.086 C 
ATOM      2  C3  DMJ d   1      32.749  66.893   7.756  0.00  0.00     0.088 C 
ATOM      3  C1  DMJ d   1      31.409  66.984   9.957  0.00  0.00     0.108 C 
ATOM      4  C4  DMJ d   1      31.461  66.535   7.013  0.00  0.00     0.092 C 
ATOM      5  C5  DMJ d   1      30.295  67.180   7.679  0.00  0.00     0.149 C 
ATOM      6  N5  DMJ d   1      30.188  66.756   9.110  0.00  0.00    -0.064 N 
ATOM      7  H1  DMJ d   1      33.518  67.093   9.789  0.00  0.00     0.089 H 
ATOM      8  H2  DMJ d   1      32.911  67.977   7.662  0.00  0.00     0.091 H 
ATOM      9  H3  DMJ d   1      31.483  68.060  10.175  0.00  0.00     0.079 H 
ATOM     10  H4  DMJ d   1      31.287  66.427  10.897  0.00  0.00     0.079 H 
ATOM     11  H5  DMJ d   1      31.330  65.443   7.036  0.00  0.00     0.090 H 
ATOM     12  H6  DMJ d   1      30.451  68.268   7.638  0.00  0.00     0.091 H 
ATOM     13  H12 DMJ d   1      29.982  65.769   9.125  0.00  0.00     0.277 HD
ATOM     14  H13 DMJ d   1      29.424  67.265   9.526  0.00  0.00     0.277 HD
ENDROOT
BRANCH   5  15
ATOM     15  C6  DMJ d   1      28.946  66.861   7.032  0.00  0.00     0.046 C 
ATOM     16  H7  DMJ d   1      28.997  65.827   6.660  0.00  0.00     0.077 H 
ATOM     17  H8  DMJ d   1      28.818  67.550   6.184  0.00  0.00     0.077 H 
BRANCH  15  18
ATOM     18  O6  DMJ d   1      27.787  66.963   7.836  0.00  0.00    -0.399 OA
ATOM     19  H14 DMJ d   1      27.704  67.853   8.159  0.00  0.00     0.209 HD
ENDBRANCH  15  18
ENDBRANCH   5  15
BRANCH   4  20
ATOM     20  O4  DMJ d   1      31.528  66.967   5.650  0.00  0.00    -0.391 OA
ATOM     21  H11 DMJ d   1      31.648  67.909   5.623  0.00  0.00     0.210 HD
ENDBRANCH   4  20
BRANCH   2  22
ATOM     22  O3  DMJ d   1      33.827  66.210   7.124  0.00  0.00    -0.390 OA
ATOM     23  H10 DMJ d   1      33.842  66.431   6.200  0.00  0.00     0.210 HD
ENDBRANCH   2  22
BRANCH   1  24
ATOM     24  O2  DMJ d   1      32.920  65.154   9.536  0.00  0.00    -0.391 OA
ATOM     25  H9  DMJ d   1      32.200  64.654   9.170  0.00  0.00     0.210 HD
ENDBRANCH   1  24
TORSDOF 5
