REMARK  12 active torsions:
REMARK  status: ('A' for Active; 'I' for Inactive)
REMARK    1  A    between atoms: C5_1  and  O6_2 
REMARK    2  A    between atoms: O6_2  and  C16_3 
REMARK    3  A    between atoms: C16_3  and  C12_4 
REMARK    4  A    between atoms: C4_5  and  C3_6 
REMARK    5  A    between atoms: C3_6  and  C2_7 
REMARK    6  A    between atoms: C2_7  and  N1_11 
REMARK    7  A    between atoms: C2_7  and  C1_8 
REMARK    8  A    between atoms: N1_11  and  S11_12 
REMARK    9  A    between atoms: S11_12  and  C21_15 
REMARK   10  A    between atoms: C24_18  and  C6_21 
REMARK   11  A    between atoms: C34_24  and  O5_27 
REMARK   12  A    between atoms: O5_27  and  C7_28 
ROOT
ATOM      1  C21 MBS d   1       3.021  48.792  54.299  0.00  0.00     0.079 A 
ATOM      2  C22 MBS d   1       3.262  49.826  55.199  0.00  0.00    -0.059 A 
ATOM      3  C23 MBS d   1       3.087  49.639  56.571  0.00  0.00    -0.071 A 
ATOM      4  C24 MBS d   1       2.667  48.412  57.060  0.00  0.00    -0.026 A 
ATOM      5  C25 MBS d   1       2.455  47.362  56.151  0.00  0.00    -0.071 A 
ATOM      6  C26 MBS d   1       2.597  47.549  54.778  0.00  0.00    -0.059 A 
ATOM      7  H10 MBS d   1       3.590  50.791  54.829  0.00  0.00     0.085 H 
ATOM      8  H11 MBS d   1       3.280  50.456  57.257  0.00  0.00     0.084 H 
ATOM      9  H12 MBS d   1       2.175  46.385  56.526  0.00  0.00     0.084 H 
ATOM     10  H13 MBS d   1       2.381  46.740  54.089  0.00  0.00     0.085 H 
ENDROOT
BRANCH   1  11
ATOM     11  S11 MBS d   1       3.294  49.035  52.611  0.00  0.00     0.259 S 
ATOM     12  O4  MBS d   1       4.589  49.909  52.364  0.00  0.00    -0.201 OA
ATOM     13  O3  MBS d   1       3.403  47.623  51.997  0.00  0.00    -0.201 OA
BRANCH  11  14
ATOM     14  N1  MBS d   1       2.081  49.951  51.840  0.00  0.00    -0.299 N 
ATOM     15  H9  MBS d   1       2.306  50.898  51.611  0.00  0.00     0.173 HD
BRANCH  14  16
ATOM     16  C2  MBS d   1       0.761  49.491  51.487  0.00  0.00     0.113 C 
ATOM     17  H8  MBS d   1       0.779  48.465  51.090  0.00  0.00     0.091 H 
BRANCH  16  18
ATOM     18  C3  MBS d   1       0.203  50.446  50.436  0.00  0.00     0.020 C 
ATOM     19  H6  MBS d   1       0.252  51.436  50.914  0.00  0.00     0.055 H 
ATOM     20  H7  MBS d   1       0.931  50.400  49.612  0.00  0.00     0.055 H 
BRANCH  18  21
ATOM     21  C4  MBS d   1      -1.102  50.429  49.769  0.00  0.00    -0.102 C 
ATOM     22  C12 MBS d   1      -2.165  50.414  49.185  0.00  0.00    -0.081 C 
BRANCH  22  23
ATOM     23  C16 MBS d   1      -3.518  50.360  48.484  0.00  0.00     0.073 C 
ATOM     24  H4  MBS d   1      -4.151  49.633  49.014  0.00  0.00     0.093 H 
ATOM     25  H5  MBS d   1      -3.976  51.358  48.545  0.00  0.00     0.093 H 
BRANCH  23  26
ATOM     26  O6  MBS d   1      -3.458  49.978  47.103  0.00  0.00    -0.384 OA
BRANCH  26  27
ATOM     27  C5  MBS d   1      -4.739  50.094  46.470  0.00  0.00     0.005 C 
ATOM     28  H1  MBS d   1      -4.655  49.794  45.415  0.00  0.00     0.066 H 
ATOM     29  H2  MBS d   1      -5.084  51.137  46.528  0.00  0.00     0.066 H 
ATOM     30  H3  MBS d   1      -5.461  49.440  46.981  0.00  0.00     0.066 H 
ENDBRANCH  26  27
ENDBRANCH  23  26
ENDBRANCH  22  23
ENDBRANCH  18  21
ENDBRANCH  16  18
BRANCH  16  31
ATOM     31  C1  MBS d   1       0.005  49.545  52.786  0.00  0.00     0.198 C 
ATOM     32  O1  MBS d   1      -0.866  48.589  53.021  0.00  0.00    -0.646 OA
ATOM     33  O2  MBS d   1       0.209  50.415  53.633  0.00  0.00    -0.646 OA
ENDBRANCH  16  31
ENDBRANCH  14  16
ENDBRANCH  11  14
ENDBRANCH   1  11
BRANCH   4  34
ATOM     34  C6  MBS d   1       2.569  48.233  58.429  0.00  0.00    -0.026 A 
ATOM     35  C36 MBS d   1       2.651  49.301  59.328  0.00  0.00    -0.070 A 
ATOM     36  C35 MBS d   1       2.626  49.060  60.695  0.00  0.00    -0.050 A 
ATOM     37  H17 MBS d   1       2.734  50.316  58.958  0.00  0.00     0.085 H 
ATOM     38  C34 MBS d   1       2.580  47.735  61.161  0.00  0.00     0.068 A 
ATOM     39  H16 MBS d   1       2.642  49.886  61.397  0.00  0.00     0.087 H 
ATOM     40  C33 MBS d   1       2.530  46.679  60.283  0.00  0.00    -0.050 A 
ATOM     41  C32 MBS d   1       2.556  46.926  58.925  0.00  0.00    -0.070 A 
ATOM     42  H15 MBS d   1       2.471  45.662  60.653  0.00  0.00     0.087 H 
ATOM     43  H14 MBS d   1       2.567  46.093  58.232  0.00  0.00     0.085 H 
BRANCH  38  44
ATOM     44  O5  MBS d   1       2.551  47.474  62.371  0.00  0.00    -0.356 OA
BRANCH  44  45
ATOM     45  C7  MBS d   1       2.947  48.409  63.314  0.00  0.00     0.010 C 
ATOM     46  H18 MBS d   1       2.845  47.980  64.322  0.00  0.00     0.066 H 
ATOM     47  H19 MBS d   1       2.313  49.304  63.231  0.00  0.00     0.066 H 
ATOM     48  H20 MBS d   1       3.997  48.685  63.138  0.00  0.00     0.066 H 
ENDBRANCH  44  45
ENDBRANCH  38  44
ENDBRANCH   4  34
TORSDOF 12
