REMARK  4 active torsions:
REMARK  status: ('A' for Active; 'I' for Inactive)
REMARK    1  A    between atoms: AS_1  and  C1_2 
REMARK    2  A    between atoms: AS_1  and  C7_8 
REMARK    3  A    between atoms: AS_1  and  C13_14 
REMARK    4  A    between atoms: AS_1  and  C19_20 
ROOT
ATOM      1 AS   TTA d   1       6.327  46.127 -10.786  0.00  0.00     0.000 As
ENDROOT
BRANCH   1   2
ATOM      2  C1  TTA d   1       5.569  44.869 -12.019  0.00  0.00    -0.026 A 
ATOM      3  C2  TTA d   1       5.701  43.481 -11.925  0.00  0.00    -0.072 A 
ATOM      4  C3  TTA d   1       5.066  42.685 -12.886  0.00  0.00    -0.082 A 
ATOM      5  H2  TTA d   1       6.281  43.031 -11.127  0.00  0.00     0.084 H 
ATOM      6  C4  TTA d   1       4.308  43.263 -13.866  0.00  0.00    -0.083 A 
ATOM      7  H3  TTA d   1       5.176  41.607 -12.853  0.00  0.00     0.083 H 
ATOM      8  C5  TTA d   1       4.139  44.655 -13.980  0.00  0.00    -0.082 A 
ATOM      9  H4  TTA d   1       3.816  42.620 -14.587  0.00  0.00     0.083 H 
ATOM     10  C6  TTA d   1       4.774  45.528 -13.017  0.00  0.00    -0.072 A 
ATOM     11  H5  TTA d   1       3.539  45.069 -14.782  0.00  0.00     0.083 H 
ATOM     12  H6  TTA d   1       4.658  46.605 -13.047  0.00  0.00     0.084 H 
ENDBRANCH   1   2
BRANCH   1  13
ATOM     13  C7  TTA d   1       4.902  46.872  -9.816  0.00  0.00    -0.026 A 
ATOM     14  C8  TTA d   1       4.970  47.313  -8.448  0.00  0.00    -0.072 A 
ATOM     15  C9  TTA d   1       3.851  47.831  -7.804  0.00  0.00    -0.082 A 
ATOM     16  H8  TTA d   1       5.909  47.240  -7.910  0.00  0.00     0.084 H 
ATOM     17  C10 TTA d   1       2.615  47.891  -8.534  0.00  0.00    -0.083 A 
ATOM     18  H9  TTA d   1       3.910  48.180  -6.779  0.00  0.00     0.083 H 
ATOM     19  C11 TTA d   1       2.543  47.424  -9.910  0.00  0.00    -0.082 A 
ATOM     20  H10 TTA d   1       1.727  48.288  -8.055  0.00  0.00     0.083 H 
ATOM     21  C12 TTA d   1       3.660  46.911 -10.554  0.00  0.00    -0.072 A 
ATOM     22  H11 TTA d   1       1.600  47.478 -10.442  0.00  0.00     0.083 H 
ATOM     23  H12 TTA d   1       3.603  46.552 -11.575  0.00  0.00     0.084 H 
ENDBRANCH   1  13
BRANCH   1  24
ATOM     24  C13 TTA d   1       7.430  47.192 -11.894  0.00  0.00    -0.026 C 
ATOM     25  C14 TTA d   1       8.413  48.108 -11.288  0.00  0.00    -0.072 C 
ATOM     26  C15 TTA d   1       9.346  48.790 -12.212  0.00  0.00    -0.082 C 
ATOM     27  H14 TTA d   1       8.451  48.274 -10.217  0.00  0.00     0.084 H 
ATOM     28  C16 TTA d   1       9.301  48.470 -13.624  0.00  0.00    -0.083 C 
ATOM     29  H15 TTA d   1      10.054  49.520 -11.837  0.00  0.00     0.083 H 
ATOM     30  C17 TTA d   1       8.424  47.512 -14.191  0.00  0.00    -0.082 C 
ATOM     31  H16 TTA d   1       9.979  48.995 -14.287  0.00  0.00     0.083 H 
ATOM     32  C18 TTA d   1       7.524  46.843 -13.323  0.00  0.00    -0.072 C 
ATOM     33  H17 TTA d   1       8.441  47.298 -15.254  0.00  0.00     0.083 H 
ATOM     34  H18 TTA d   1       6.891  46.057 -13.719  0.00  0.00     0.084 H 
ENDBRANCH   1  24
BRANCH   1  35
ATOM     35  C19 TTA d   1       7.486  45.333  -9.472  0.00  0.00    -0.026 A 
ATOM     36  C20 TTA d   1       6.952  45.114  -8.183  0.00  0.00    -0.072 A 
ATOM     37  C21 TTA d   1       7.862  44.534  -7.250  0.00  0.00    -0.082 A 
ATOM     38  H20 TTA d   1       5.931  45.367  -7.923  0.00  0.00     0.084 H 
ATOM     39  C22 TTA d   1       9.126  44.236  -7.595  0.00  0.00    -0.083 A 
ATOM     40  H21 TTA d   1       7.526  44.329  -6.240  0.00  0.00     0.083 H 
ATOM     41  C23 TTA d   1       9.707  44.461  -8.898  0.00  0.00    -0.082 A 
ATOM     42  H22 TTA d   1       9.759  43.792  -6.836  0.00  0.00     0.083 H 
ATOM     43  C24 TTA d   1       8.788  45.061  -9.894  0.00  0.00    -0.072 A 
ATOM     44  H23 TTA d   1      10.736  44.210  -9.130  0.00  0.00     0.083 H 
ATOM     45  H24 TTA d   1       9.113  45.279 -10.905  0.00  0.00     0.084 H 
ENDBRANCH   1  35
TORSDOF 4
