REMARK  0 active torsions:
REMARK  status: ('A' for Active; 'I' for Inactive)
ROOT
ATOM      1 AS   TTO d   1       6.332  46.102 -10.652  0.00  0.00     0.000 As
ATOM      2  C1  TTO d   1       5.469  44.979 -11.923  0.00  0.00    -0.011 A 
ATOM      3  C2  TTO d   1       5.525  43.578 -11.753  0.00  0.00    -0.094 A 
ATOM      4  C3  TTO d   1       4.844  42.855 -12.699  0.00  0.00    -0.086 A 
ATOM      5  C4  TTO d   1       4.186  43.385 -13.761  0.00  0.00    -0.083 A 
ATOM      6  C5  TTO d   1       4.119  44.776 -13.962  0.00  0.00    -0.086 A 
ATOM      7  C6  TTO d   1       4.786  45.625 -12.993  0.00  0.00    -0.094 A 
ATOM      8  H1  TTO d   1       5.977  45.601 -11.195  0.00  0.00     0.053 H 
ATOM      9  H2  TTO d   1       6.065  43.110 -10.938  0.00  0.00     0.077 H 
ATOM     10  H3  TTO d   1       4.830  41.777 -12.590  0.00  0.00     0.082 H 
ATOM     11  H4  TTO d   1       3.702  42.723 -14.469  0.00  0.00     0.083 H 
ATOM     12  H5  TTO d   1       3.589  45.197 -14.809  0.00  0.00     0.082 H 
ATOM     13  H6  TTO d   1       4.765  46.705 -13.080  0.00  0.00     0.077 H 
ENDROOT
TORSDOF 0
