REMARK  11 active torsions:
REMARK  status: ('A' for Active; 'I' for Inactive)
REMARK    1  A    between atoms: C2_2  and  CM2_3 
REMARK    2  A    between atoms: C9_13  and  C6_9 
REMARK    3  A    between atoms: N10_14  and  C9_13 
REMARK    4  A    between atoms: C14_17  and  N10_14 
REMARK    5  A    between atoms: N10_14  and  CP1_32 
REMARK    6  A    between atoms: C11_15  and  C_20 
REMARK       I    between atoms: C_20  and  N_22 
REMARK    7  A    between atoms: N_22  and  CA_23 
REMARK    8  A    between atoms: CA_23  and  CB_24 
REMARK    9  A    between atoms: CA_23  and  CT_29 
REMARK   10  A    between atoms: CB_24  and  CG_25 
REMARK   11  A    between atoms: CG_25  and  CD_26 
ROOT
ATOM      1  N10 D16 d   1      32.368  60.716  48.522  0.00  0.00    -0.375 N 
ENDROOT
BRANCH   1   2
ATOM      2  C9  D16 d   1      33.514  61.132  47.552  0.00  0.00     0.019 C 
ATOM      3  H8  D16 d   1      33.086  61.137  46.539  0.00  0.00     0.071 H 
ATOM      4  H9  D16 d   1      33.809  62.154  47.830  0.00  0.00     0.071 H 
BRANCH   2   5
ATOM      5  C6  D16 d   1      34.819  60.293  47.482  0.00  0.00    -0.039 A 
ATOM      6  C5  D16 d   1      34.974  59.069  48.195  0.00  0.00    -0.058 A 
ATOM      7  C4A D16 d   1      36.134  58.277  48.165  0.00  0.00     0.061 A 
ATOM      8  H5  D16 d   1      34.142  58.727  48.800  0.00  0.00     0.086 H 
ATOM      9  C4  D16 d   1      36.264  57.058  48.889  0.00  0.00     0.259 A 
ATOM     10  C8A D16 d   1      37.213  58.755  47.358  0.00  0.00     0.074 A 
ATOM     11  N3  D16 d   1      37.500  56.368  48.764  0.00  0.00    -0.311 N 
ATOM     12  O4  D16 d   1      35.367  56.616  49.587  0.00  0.00    -0.267 OA
ATOM     13  C2  D16 d   1      38.569  56.836  47.971  0.00  0.00     0.103 A 
ATOM     14  H4  D16 d   1      37.618  55.509  49.262  0.00  0.00     0.170 HD
ATOM     15  N1  D16 d   1      38.394  58.023  47.285  0.00  0.00    -0.235 NA
ATOM     16  C8  D16 d   1      37.134  59.973  46.611  0.00  0.00    -0.053 A 
ATOM     17  C7  D16 d   1      35.921  60.726  46.691  0.00  0.00    -0.073 A 
ATOM     18  H7  D16 d   1      37.966  60.313  46.005  0.00  0.00     0.087 H 
ATOM     19  H6  D16 d   1      35.838  61.652  46.134  0.00  0.00     0.084 H 
BRANCH  13  20
ATOM     20  CM2 D16 d   1      39.852  56.067  47.881  0.00  0.00    -0.021 C 
ATOM     21  H1  D16 d   1      40.551  56.597  47.217  0.00  0.00     0.037 H 
ATOM     22  H2  D16 d   1      39.651  55.064  47.476  0.00  0.00     0.037 H 
ATOM     23  H3  D16 d   1      40.296  55.975  48.883  0.00  0.00     0.037 H 
ENDBRANCH  13  20
ENDBRANCH   2   5
ENDBRANCH   1   2
BRANCH   1  24
ATOM     24  C14 D16 d   1      32.489  60.859  49.964  0.00  0.00     0.072 A 
ATOM     25  S13 D16 d   1      33.871  61.492  50.774  0.00  0.00    -0.067 SA
ATOM     26  C11 D16 d   1      33.158  61.309  52.344  0.00  0.00     0.074 A 
ATOM     27  C16 D16 d   1      31.919  60.779  52.239  0.00  0.00    -0.058 A 
ATOM     28  C15 D16 d   1      31.556  60.531  50.908  0.00  0.00    -0.049 A 
ATOM     29  H11 D16 d   1      31.276  60.569  53.092  0.00  0.00     0.086 H 
ATOM     30  H10 D16 d   1      30.590  60.103  50.642  0.00  0.00     0.087 H 
BRANCH  26  31
ATOM     31  C   D16 d   1      34.006  61.759  53.568  0.00  0.00     0.259 C 
ATOM     32  O   D16 d   1      35.157  62.225  53.343  0.00  0.00    -0.267 OA
ATOM     33  N   D16 d   1      33.451  61.623  54.844  0.00  0.00    -0.342 N 
ATOM     34  H12 D16 d   1      32.528  61.256  54.956  0.00  0.00     0.163 HD
BRANCH  33  35
ATOM     35  CA  D16 d   1      34.246  62.029  56.034  0.00  0.00     0.097 C 
ATOM     36  H13 D16 d   1      35.283  61.708  55.857  0.00  0.00     0.089 H 
BRANCH  35  37
ATOM     37  CB  D16 d   1      34.338  63.520  56.288  0.00  0.00    -0.028 C 
ATOM     38  H14 D16 d   1      35.185  63.872  55.680  0.00  0.00     0.037 H 
ATOM     39  H15 D16 d   1      34.584  63.624  57.355  0.00  0.00     0.037 H 
BRANCH  37  40
ATOM     40  CG  D16 d   1      33.221  64.500  56.033  0.00  0.00     0.018 C 
ATOM     41  H16 D16 d   1      32.279  63.935  55.975  0.00  0.00     0.049 H 
ATOM     42  H17 D16 d   1      33.413  64.993  55.069  0.00  0.00     0.049 H 
BRANCH  40  43
ATOM     43  CD  D16 d   1      33.059  65.573  57.082  0.00  0.00     0.172 C 
ATOM     44  OE1 D16 d   1      33.538  66.696  56.795  0.00  0.00    -0.648 OA
ATOM     45  OE2 D16 d   1      32.462  65.244  58.135  0.00  0.00    -0.648 OA
ENDBRANCH  40  43
ENDBRANCH  37  40
ENDBRANCH  35  37
BRANCH  35  46
ATOM     46  CT  D16 d   1      33.706  61.180  57.164  0.00  0.00     0.196 C 
ATOM     47  O1  D16 d   1      34.540  60.431  57.717  0.00  0.00    -0.646 OA
ATOM     48  O2  D16 d   1      32.478  61.301  57.424  0.00  0.00    -0.646 OA
ENDBRANCH  35  46
ENDBRANCH  33  35
ENDBRANCH  26  31
ENDBRANCH   1  24
BRANCH   1  49
ATOM     49  CP1 D16 d   1      31.148  60.204  47.892  0.00  0.00    -0.018 C 
ATOM     50  H18 D16 d   1      30.415  59.944  48.670  0.00  0.00     0.056 H 
ATOM     51  H19 D16 d   1      31.389  59.308  47.301  0.00  0.00     0.056 H 
ATOM     52  H20 D16 d   1      30.725  60.975  47.232  0.00  0.00     0.056 H 
ENDBRANCH   1  49
TORSDOF 11
