REMARK  13 active torsions:
REMARK  status: ('A' for Active; 'I' for Inactive)
REMARK    1  A    between atoms: C5_1  and  C4_2 
REMARK    2  A    between atoms: C5_1  and  O5_42 
REMARK    3  A    between atoms: C3_4  and  O3_5 
REMARK    4  A    between atoms: C2_6  and  N2_7 
REMARK       I    between atoms: N2_7  and  C7B_30 
REMARK    5  A    between atoms: C1_8  and  N9A_9 
REMARK    6  A    between atoms: C6A_13  and  N6A_14 
REMARK    7  A    between atoms: N6A_14  and  C11_19 
REMARK    8  A    between atoms: C11_19  and  C1_20 
REMARK    9  A    between atoms: C7B_30  and  C6B_32 
REMARK   10  A    between atoms: C4B_34  and  O2M_35 
REMARK   11  A    between atoms: O2M_35  and  C2M_36 
REMARK   12  A    between atoms: C2B_39  and  O1M_40 
REMARK   13  A    between atoms: O1M_40  and  C1M_41 
ROOT
ATOM      1  C4  NMD d   1      23.902  79.923  -2.211  0.00  0.00     0.088 C 
ATOM      2  O4  NMD d   1      23.431  80.634  -3.353  0.00  0.00    -0.354 OA
ATOM      3  C3  NMD d   1      25.129  80.688  -1.737  0.00  0.00     0.086 C 
ATOM      4  C2  NMD d   1      24.738  82.140  -2.034  0.00  0.00     0.082 C 
ATOM      5  C1  NMD d   1      23.861  81.998  -3.291  0.00  0.00     0.134 C 
ATOM      6  H3  NMD d   1      24.219  78.918  -2.527  0.00  0.00     0.090 H 
ATOM      7  H4  NMD d   1      25.272  80.554  -0.655  0.00  0.00     0.090 H 
ATOM      8  H6  NMD d   1      24.134  82.531  -1.202  0.00  0.00     0.083 H 
ATOM      9  H8  NMD d   1      24.502  82.203  -4.161  0.00  0.00     0.122 H 
ENDROOT
BRANCH   5  10
ATOM     10  N9A NMD d   1      22.713  82.900  -3.394  0.00  0.00    -0.294 N 
ATOM     11  C8A NMD d   1      22.058  83.587  -2.402  0.00  0.00     0.071 A 
ATOM     12  N7A NMD d   1      21.054  84.322  -2.827  0.00  0.00    -0.236 NA
ATOM     13  H9  NMD d   1      22.345  83.528  -1.353  0.00  0.00     0.144 H 
ATOM     14  C5A NMD d   1      21.036  84.110  -4.198  0.00  0.00     0.149 A 
ATOM     15  C6A NMD d   1      20.207  84.598  -5.265  0.00  0.00     0.158 A 
ATOM     16  C4A NMD d   1      22.056  83.232  -4.566  0.00  0.00     0.167 A 
ATOM     17  N1A NMD d   1      20.486  84.163  -6.529  0.00  0.00    -0.222 NA
ATOM     18  C2A NMD d   1      21.507  83.310  -6.735  0.00  0.00     0.091 A 
ATOM     19  N3A NMD d   1      22.342  82.795  -5.820  0.00  0.00    -0.222 NA
ATOM     20  H11 NMD d   1      21.674  83.003  -7.761  0.00  0.00     0.146 H 
BRANCH  15  21
ATOM     21  N6A NMD d   1      19.169  85.456  -5.134  0.00  0.00    -0.368 N 
ATOM     22  H10 NMD d   1      18.677  85.716  -6.001  0.00  0.00     0.161 HD
BRANCH  21  23
ATOM     23  C11 NMD d   1      18.667  86.057  -3.894  0.00  0.00     0.019 C 
ATOM     24  H12 NMD d   1      19.036  85.447  -3.056  0.00  0.00     0.071 H 
ATOM     25  H13 NMD d   1      17.568  86.013  -3.924  0.00  0.00     0.071 H 
BRANCH  23  26
ATOM     26  C1  NMD d   1      19.062  87.502  -3.620  0.00  0.00    -0.029 A 
ATOM     27  C9  NMD d   1      18.715  88.145  -2.374  0.00  0.00    -0.018 A 
ATOM     28  C8  NMD d   1      17.988  87.481  -1.333  0.00  0.00    -0.072 A 
ATOM     29  C10 NMD d   1      19.119  89.524  -2.155  0.00  0.00    -0.025 A 
ATOM     30  C7  NMD d   1      17.664  88.146  -0.116  0.00  0.00    -0.082 A 
ATOM     31  H14 NMD d   1      17.678  86.452  -1.475  0.00  0.00     0.084 H 
ATOM     32  C6  NMD d   1      18.064  89.495   0.087  0.00  0.00    -0.082 A 
ATOM     33  H15 NMD d   1      17.112  87.623   0.656  0.00  0.00     0.083 H 
ATOM     34  C5  NMD d   1      18.788  90.178  -0.931  0.00  0.00    -0.072 A 
ATOM     35  H16 NMD d   1      17.819  90.002   1.013  0.00  0.00     0.083 H 
ATOM     36  H18 NMD d   1      19.091  91.207  -0.774  0.00  0.00     0.084 H 
ATOM     37  C4  NMD d   1      19.842  90.222  -3.164  0.00  0.00    -0.072 A 
ATOM     38  C3  NMD d   1      20.176  89.583  -4.388  0.00  0.00    -0.082 A 
ATOM     39  H20 NMD d   1      20.140  91.251  -2.997  0.00  0.00     0.084 H 
ATOM     40  C2  NMD d   1      19.787  88.235  -4.609  0.00  0.00    -0.074 A 
ATOM     41  H19 NMD d   1      20.726  90.122  -5.151  0.00  0.00     0.083 H 
ATOM     42  H17 NMD d   1      20.045  87.754  -5.545  0.00  0.00     0.084 H 
ENDBRANCH  23  26
ENDBRANCH  21  23
ENDBRANCH  15  21
ENDBRANCH   5  10
BRANCH   4  43
ATOM     43  N2  NMD d   1      25.860  83.055  -2.225  0.00  0.00    -0.345 N 
ATOM     44  C7B NMD d   1      26.175  84.124  -1.449  0.00  0.00     0.252 C 
ATOM     45  O7B NMD d   1      25.544  84.393  -0.418  0.00  0.00    -0.268 OA
ATOM     46  H7  NMD d   1      26.457  82.876  -3.007  0.00  0.00     0.163 HD
BRANCH  44  47
ATOM     47  C6B NMD d   1      27.314  84.982  -1.882  0.00  0.00     0.037 A 
ATOM     48  C5B NMD d   1      28.018  84.641  -3.073  0.00  0.00    -0.035 A 
ATOM     49  C4B NMD d   1      29.110  85.427  -3.532  0.00  0.00     0.071 A 
ATOM     50  H21 NMD d   1      27.716  83.767  -3.639  0.00  0.00     0.089 H 
ATOM     51  C3B NMD d   1      29.495  86.576  -2.777  0.00  0.00    -0.019 A 
ATOM     52  C2B NMD d   1      28.802  86.944  -1.573  0.00  0.00     0.071 A 
ATOM     53  H25 NMD d   1      30.326  87.183  -3.119  0.00  0.00     0.092 H 
ATOM     54  C1B NMD d   1      27.708  86.134  -1.132  0.00  0.00    -0.035 A 
ATOM     55  H26 NMD d   1      27.175  86.395  -0.225  0.00  0.00     0.089 H 
BRANCH  49  56
ATOM     56  O2M NMD d   1      29.738  85.034  -4.690  0.00  0.00    -0.356 OA
BRANCH  56  57
ATOM     57  C2M NMD d   1      30.948  84.280  -4.584  0.00  0.00     0.010 C 
ATOM     58  H22 NMD d   1      31.323  84.045  -5.591  0.00  0.00     0.066 H 
ATOM     59  H23 NMD d   1      30.751  83.345  -4.039  0.00  0.00     0.066 H 
ATOM     60  H24 NMD d   1      31.701  84.870  -4.041  0.00  0.00     0.066 H 
ENDBRANCH  56  57
ENDBRANCH  49  56
BRANCH  52  61
ATOM     61  O1M NMD d   1      29.139  88.044  -0.808  0.00  0.00    -0.356 OA
BRANCH  61  62
ATOM     62  C1M NMD d   1      29.495  89.271  -1.459  0.00  0.00     0.010 C 
ATOM     63  H27 NMD d   1      29.731  90.033  -0.702  0.00  0.00     0.066 H 
ATOM     64  H28 NMD d   1      28.652  89.617  -2.076  0.00  0.00     0.066 H 
ATOM     65  H29 NMD d   1      30.374  89.105  -2.099  0.00  0.00     0.066 H 
ENDBRANCH  61  62
ENDBRANCH  52  61
ENDBRANCH  44  47
ENDBRANCH   4  43
BRANCH   1  66
ATOM     66  C5  NMD d   1      22.823  79.735  -1.132  0.00  0.00     0.043 C 
ATOM     67  H1  NMD d   1      21.954  79.224  -1.573  0.00  0.00     0.078 H 
ATOM     68  H2  NMD d   1      22.515  80.720  -0.752  0.00  0.00     0.078 H 
BRANCH  66  69
ATOM     69  O5  NMD d   1      23.332  78.952  -0.053  0.00  0.00    -0.398 OA
ATOM     70  H30 NMD d   1      22.655  78.844   0.605  0.00  0.00     0.209 HD
ENDBRANCH  66  69
ENDBRANCH   1  66
BRANCH   3  71
ATOM     71  O3  NMD d   1      26.313  80.244  -2.396  0.00  0.00    -0.391 OA
ATOM     72  H5  NMD d   1      27.057  80.741  -2.077  0.00  0.00     0.210 HD
ENDBRANCH   3  71
TORSDOF 13
