REMARK  12 active torsions:
REMARK  status: ('A' for Active; 'I' for Inactive)
REMARK    1  A    between atoms: C5_1  and  C4_2 
REMARK    2  A    between atoms: C5_1  and  O5_41 
REMARK    3  A    between atoms: C3_4  and  O3_5 
REMARK    4  A    between atoms: C2_6  and  N2_7 
REMARK       I    between atoms: N2_7  and  C7B_29 
REMARK    5  A    between atoms: C1_8  and  N9A_9 
REMARK    6  A    between atoms: C6A_13  and  N6A_14 
REMARK    7  A    between atoms: N6A_14  and  C1_19 
REMARK    8  A    between atoms: C7B_29  and  C6B_31 
REMARK    9  A    between atoms: C4B_33  and  O2M_34 
REMARK   10  A    between atoms: O2M_34  and  C2M_35 
REMARK   11  A    between atoms: C2B_38  and  O1M_39 
REMARK   12  A    between atoms: O1M_39  and  C1M_40 
ROOT
ATOM      1  C4  TND d   1      23.886  79.597  -2.511  0.00  0.00     0.088 C 
ATOM      2  O4  TND d   1      23.153  80.381  -3.477  0.00  0.00    -0.354 OA
ATOM      3  C3  TND d   1      25.199  80.337  -2.269  0.00  0.00     0.086 C 
ATOM      4  C2  TND d   1      24.777  81.789  -2.473  0.00  0.00     0.082 C 
ATOM      5  C1  TND d   1      23.780  81.680  -3.638  0.00  0.00     0.134 C 
ATOM      6  H3  TND d   1      24.117  78.619  -2.958  0.00  0.00     0.090 H 
ATOM      7  H4  TND d   1      25.531  80.192  -1.230  0.00  0.00     0.090 H 
ATOM      8  H6  TND d   1      24.234  82.121  -1.576  0.00  0.00     0.083 H 
ATOM      9  H8  TND d   1      24.343  81.703  -4.583  0.00  0.00     0.122 H 
ENDROOT
BRANCH   5  10
ATOM     10  N9A TND d   1      22.760  82.742  -3.706  0.00  0.00    -0.294 N 
ATOM     11  C8A TND d   1      22.281  83.539  -2.691  0.00  0.00     0.071 A 
ATOM     12  N7A TND d   1      21.363  84.403  -3.066  0.00  0.00    -0.236 NA
ATOM     13  H9  TND d   1      22.633  83.461  -1.663  0.00  0.00     0.144 H 
ATOM     14  C5A TND d   1      21.210  84.171  -4.426  0.00  0.00     0.149 A 
ATOM     15  C6A TND d   1      20.365  84.765  -5.451  0.00  0.00     0.158 A 
ATOM     16  C4A TND d   1      22.070  83.143  -4.846  0.00  0.00     0.167 A 
ATOM     17  N1A TND d   1      20.480  84.270  -6.733  0.00  0.00    -0.222 NA
ATOM     18  C2A TND d   1      21.363  83.267  -6.985  0.00  0.00     0.091 A 
ATOM     19  N3A TND d   1      22.193  82.647  -6.114  0.00  0.00    -0.222 NA
ATOM     20  H11 TND d   1      21.408  82.921  -8.011  0.00  0.00     0.146 H 
BRANCH  15  21
ATOM     21  N6A TND d   1      19.465  85.774  -5.246  0.00  0.00    -0.364 N 
ATOM     22  H10 TND d   1      18.847  86.013  -6.035  0.00  0.00     0.162 HD
BRANCH  21  23
ATOM     23  C1  TND d   1      19.293  86.555  -4.001  0.00  0.00     0.037 C 
ATOM     24  C9  TND d   1      19.388  88.077  -4.217  0.00  0.00    -0.029 A 
ATOM     25  C8  TND d   1      19.915  88.668  -5.502  0.00  0.00    -0.074 A 
ATOM     26  C10 TND d   1      18.933  88.975  -3.099  0.00  0.00    -0.050 A 
ATOM     27  C7  TND d   1      19.982  90.161  -5.652  0.00  0.00    -0.082 A 
ATOM     28  H13 TND d   1      20.242  88.022  -6.308  0.00  0.00     0.084 H 
ATOM     29  C6  TND d   1      19.529  91.059  -4.533  0.00  0.00    -0.082 A 
ATOM     30  H14 TND d   1      20.359  90.594  -6.572  0.00  0.00     0.083 H 
ATOM     31  C5  TND d   1      19.002  90.474  -3.250  0.00  0.00    -0.076 A 
ATOM     32  H15 TND d   1      19.582  92.135  -4.652  0.00  0.00     0.083 H 
ATOM     33  H18 TND d   1      18.676  91.122  -2.445  0.00  0.00     0.084 H 
ATOM     34  C4  TND d   1      18.398  88.336  -1.806  0.00  0.00    -0.040 C 
ATOM     35  C3  TND d   1      17.498  87.094  -2.102  0.00  0.00    -0.059 C 
ATOM     36  H21 TND d   1      17.805  89.083  -1.259  0.00  0.00     0.040 H 
ATOM     37  H22 TND d   1      19.250  88.019  -1.187  0.00  0.00     0.040 H 
ATOM     38  C2  TND d   1      17.980  86.137  -3.264  0.00  0.00    -0.042 C 
ATOM     39  H19 TND d   1      17.438  86.497  -1.180  0.00  0.00     0.033 H 
ATOM     40  H20 TND d   1      16.496  87.463  -2.366  0.00  0.00     0.033 H 
ATOM     41  H16 TND d   1      18.141  85.138  -2.832  0.00  0.00     0.036 H 
ATOM     42  H17 TND d   1      17.176  86.087  -4.013  0.00  0.00     0.036 H 
ATOM     43  H12 TND d   1      20.130  86.284  -3.340  0.00  0.00     0.080 H 
ENDBRANCH  21  23
ENDBRANCH  15  21
ENDBRANCH   5  10
BRANCH   4  44
ATOM     44  N2  TND d   1      25.855  82.759  -2.671  0.00  0.00    -0.345 N 
ATOM     45  C7B TND d   1      26.249  83.663  -1.722  0.00  0.00     0.252 C 
ATOM     46  O7B TND d   1      25.706  83.706  -0.606  0.00  0.00    -0.268 OA
ATOM     47  H7  TND d   1      26.331  82.761  -3.550  0.00  0.00     0.163 HD
BRANCH  45  48
ATOM     48  C6B TND d   1      27.315  84.652  -2.064  0.00  0.00     0.037 A 
ATOM     49  C5B TND d   1      28.251  84.359  -3.113  0.00  0.00    -0.035 A 
ATOM     50  C4B TND d   1      29.292  85.301  -3.464  0.00  0.00     0.071 A 
ATOM     51  H23 TND d   1      28.177  83.420  -3.649  0.00  0.00     0.089 H 
ATOM     52  C3B TND d   1      29.362  86.539  -2.737  0.00  0.00    -0.019 A 
ATOM     53  C2B TND d   1      28.423  86.853  -1.672  0.00  0.00     0.071 A 
ATOM     54  H27 TND d   1      30.134  87.257  -2.989  0.00  0.00     0.092 H 
ATOM     55  C1B TND d   1      27.406  85.898  -1.346  0.00  0.00    -0.035 A 
ATOM     56  H28 TND d   1      26.699  86.115  -0.553  0.00  0.00     0.089 H 
BRANCH  50  57
ATOM     57  O2M TND d   1      30.195  84.993  -4.483  0.00  0.00    -0.356 OA
BRANCH  57  58
ATOM     58  C2M TND d   1      30.103  83.750  -5.205  0.00  0.00     0.010 C 
ATOM     59  H24 TND d   1      30.902  83.704  -5.960  0.00  0.00     0.066 H 
ATOM     60  H25 TND d   1      29.124  83.687  -5.703  0.00  0.00     0.066 H 
ATOM     61  H26 TND d   1      30.213  82.910  -4.504  0.00  0.00     0.066 H 
ENDBRANCH  57  58
ENDBRANCH  50  57
BRANCH  53  62
ATOM     62  O1M TND d   1      28.435  88.029  -0.931  0.00  0.00    -0.356 OA
BRANCH  62  63
ATOM     63  C1M TND d   1      29.337  89.101  -1.281  0.00  0.00     0.010 C 
ATOM     64  H29 TND d   1      29.198  89.940  -0.583  0.00  0.00     0.066 H 
ATOM     65  H30 TND d   1      29.125  89.439  -2.306  0.00  0.00     0.066 H 
ATOM     66  H31 TND d   1      30.375  88.742  -1.220  0.00  0.00     0.066 H 
ENDBRANCH  62  63
ENDBRANCH  53  62
ENDBRANCH  45  48
ENDBRANCH   4  44
BRANCH   1  67
ATOM     67  C5  TND d   1      23.081  79.327  -1.223  0.00  0.00     0.043 C 
ATOM     68  H1  TND d   1      22.311  78.569  -1.429  0.00  0.00     0.078 H 
ATOM     69  H2  TND d   1      22.599  80.260  -0.895  0.00  0.00     0.078 H 
BRANCH  67  70
ATOM     70  O5  TND d   1      23.947  78.851  -0.182  0.00  0.00    -0.398 OA
ATOM     71  H32 TND d   1      23.437  78.690   0.603  0.00  0.00     0.209 HD
ENDBRANCH  67  70
ENDBRANCH   1  67
BRANCH   3  72
ATOM     72  O3  TND d   1      26.247  79.880  -3.124  0.00  0.00    -0.391 OA
ATOM     73  H5  TND d   1      27.041  80.367  -2.938  0.00  0.00     0.210 HD
ENDBRANCH   3  72
TORSDOF 12
