REMARK WARNING: 32 MAX_TORS EXCEEDED!!!
REMARK  53 active torsions:
REMARK  status: ('A' for Active; 'I' for Inactive)
REMARK    1  A    between atoms: N_1  and  CA_2 
REMARK    2  A    between atoms: CA_2  and  C_3 
REMARK    3  A    between atoms: CA_2  and  CB_5 
REMARK       I    between atoms: C_3  and  N_7 
REMARK    4  A    between atoms: CB_5  and  OG_6 
REMARK    5  A    between atoms: N_7  and  CA_8 
REMARK    6  A    between atoms: CA_8  and  C_9 
REMARK    7  A    between atoms: CA_8  and  CB_11 
REMARK       I    between atoms: C_9  and  N_15 
REMARK    8  A    between atoms: CB_11  and  CG_12 
REMARK    9  A    between atoms: CG_12  and  CD1_13 
REMARK   10  A    between atoms: CG_12  and  CD2_14 
REMARK   11  A    between atoms: N_15  and  CA_16 
REMARK   12  A    between atoms: CA_16  and  C_17 
REMARK   13  A    between atoms: CA_16  and  CB_19 
REMARK       I    between atoms: C_17  and  N_22 
REMARK   14  A    between atoms: CB_19  and  OG1_20 
REMARK   15  A    between atoms: CB_19  and  CG2_21 
REMARK   16  A    between atoms: N_22  and  CA_23 
REMARK   17  A    between atoms: CA_23  and  C_24 
REMARK   18  A    between atoms: CA_23  and  CB_26 
REMARK       I    between atoms: C_24  and  N_30 
REMARK   19  A    between atoms: CB_26  and  CG1_27 
REMARK   20  A    between atoms: CB_26  and  CG2_28 
REMARK   21  A    between atoms: CG1_27  and  CD1_29 
REMARK   22  A    between atoms: N_30  and  CA_31 
REMARK   23  A    between atoms: CA_31  and  C_32 
REMARK   24  A    between atoms: CA_31  and  CB_34 
REMARK       I    between atoms: C_32  and  N_46 
REMARK   25  A    between atoms: CB_34  and  CG_35 
REMARK   26  A    between atoms: CZ_40  and  OH_41 
REMARK   27  A    between atoms: OH_41  and  P_42 
REMARK   28  A    between atoms: N_46  and  CA_47 
REMARK   29  A    between atoms: CA_47  and  C_48 
REMARK   30  A    between atoms: CA_47  and  CB_50 
REMARK       I    between atoms: C_48  and  N_51 
REMARK   31  A    between atoms: N_51  and  CA_52 
REMARK   32  A    between atoms: CA_52  and  C_53 
REMARK   33  A    between atoms: CA_52  and  CB_55 
REMARK       I    between atoms: C_53  and  N_60 
REMARK   34  A    between atoms: CB_55  and  CG_56 
REMARK   35  A    between atoms: CG_56  and  CD_57 
REMARK       I    between atoms: CD_57  and  NE2_59 
REMARK   36  A    between atoms: N_60  and  CA_61 
REMARK   37  A    between atoms: CA_61  and  C_62 
REMARK   38  A    between atoms: CA_61  and  CB_64 
REMARK       I    between atoms: C_62  and  N_67 
REMARK   39  A    between atoms: CB_64  and  CG1_65 
REMARK   40  A    between atoms: CB_64  and  CG2_66 
REMARK   41  A    between atoms: N_67  and  CA_68 
REMARK   42  A    between atoms: CA_68  and  C_69 
REMARK   43  A    between atoms: CA_68  and  CB_71 
REMARK       I    between atoms: C_69  and  N_76 
REMARK   44  A    between atoms: CB_71  and  CG_72 
REMARK   45  A    between atoms: CG_72  and  CD_73 
REMARK       I    between atoms: CD_73  and  NE2_75 
REMARK   46  A    between atoms: N_76  and  CA_77 
REMARK   47  A    between atoms: CA_77  and  C_78 
REMARK   48  A    between atoms: CA_77  and  CB_79 
REMARK   49  A    between atoms: C_78  and  O1_161 
REMARK   50  A    between atoms: CB_79  and  CG_80 
REMARK   51  A    between atoms: CG_80  and  CD_81 
REMARK   52  A    between atoms: CD_81  and  CE_82 
REMARK   53  A    between atoms: CE_82  and  NZ_83 
ROOT
ATOM      1  CA  PTR d   1      17.419  24.729   8.212  0.00  0.00     0.093 C 
ATOM      2  H38 PTR d   1      17.543  23.694   7.861  0.00  0.00     0.088 H 
ENDROOT
BRANCH   1   3
ATOM      3  N   PTR d   1      17.853  24.799   9.605  0.00  0.00    -0.346 N 
ATOM      4  C   ILE d   1      18.807  23.991  10.053  0.00  0.00     0.241 C 
ATOM      5  O   ILE d   1      19.346  23.139   9.350  0.00  0.00    -0.271 OA
ATOM      6  H37 PTR d   1      17.429  25.459  10.225  0.00  0.00     0.163 HD
BRANCH   4   7
ATOM      7  CA  ILE d   1      19.216  24.128  11.516  0.00  0.00     0.092 C 
ATOM      8  H27 ILE d   1      18.513  24.797  12.034  0.00  0.00     0.088 H 
BRANCH   7   9
ATOM      9  N   ILE d   1      19.158  22.802  12.116  0.00  0.00    -0.346 N 
ATOM     10  C   THR d   1      18.198  22.535  12.980  0.00  0.00     0.243 C 
ATOM     11  O   THR d   1      17.433  23.393  13.409  0.00  0.00    -0.271 OA
ATOM     12  H26 ILE d   1      19.835  22.106  11.877  0.00  0.00     0.163 HD
BRANCH  10  13
ATOM     13  CA  THR d   1      18.105  21.125  13.466  0.00  0.00     0.113 C 
ATOM     14  H20 THR d   1      19.007  20.566  13.175  0.00  0.00     0.091 H 
BRANCH  13  15
ATOM     15  N   THR d   1      17.977  21.152  14.909  0.00  0.00    -0.344 N 
ATOM     16  C   LEU d   1      18.839  20.506  15.683  0.00  0.00     0.241 C 
ATOM     17  O   LEU d   1      19.707  19.799  15.240  0.00  0.00    -0.271 OA
ATOM     18  H19 THR d   1      17.228  21.665  15.328  0.00  0.00     0.163 HD
BRANCH  16  19
ATOM     19  CA  LEU d   1      18.555  20.594  17.166  0.00  0.00     0.089 C 
ATOM     20  H9  LEU d   1      19.084  21.453  17.605  0.00  0.00     0.087 H 
BRANCH  19  21
ATOM     21  N   LEU d   1      17.108  20.748  17.333  0.00  0.00    -0.346 N 
ATOM     22  C   SER d   1      16.591  21.845  17.868  0.00  0.00     0.251 C 
ATOM     23  O   SER d   1      17.273  22.809  18.205  0.00  0.00    -0.271 OA
ATOM     24  H8  LEU d   1      16.499  20.012  17.038  0.00  0.00     0.163 HD
BRANCH  22  25
ATOM     25  CA  SER d   1      15.103  21.870  18.048  0.00  0.00     0.195 C 
ATOM     26  H4  SER d   1      14.816  21.123  18.802  0.00  0.00     0.102 H 
BRANCH  25  27
ATOM     27  N   SER d   1      14.741  23.220  18.537  0.00  0.00    -0.064 N 
ATOM     28  H1  SER d   1      13.743  23.273  18.670  0.00  0.00     0.275 HD
ATOM     29  H2  SER d   1      15.027  23.910  17.860  0.00  0.00     0.275 HD
ATOM     30  H3  SER d   1      15.206  23.396  19.414  0.00  0.00     0.275 HD
ENDBRANCH  25  27
BRANCH  25  31
ATOM     31  CB  SER d   1      14.383  21.536  16.735  0.00  0.00     0.051 C 
ATOM     32  H5  SER d   1      13.331  21.301  16.956  0.00  0.00     0.077 H 
ATOM     33  H6  SER d   1      14.866  20.660  16.278  0.00  0.00     0.077 H 
BRANCH  31  34
ATOM     34  OG  SER d   1      14.428  22.617  15.815  0.00  0.00    -0.398 OA
ATOM     35  H7  SER d   1      13.973  22.372  15.018  0.00  0.00     0.209 HD
ENDBRANCH  31  34
ENDBRANCH  25  31
ENDBRANCH  22  25
ENDBRANCH  19  21
BRANCH  19  36
ATOM     36  CB  LEU d   1      18.998  19.308  17.846  0.00  0.00    -0.035 C 
ATOM     37  H10 LEU d   1      20.033  19.085  17.548  0.00  0.00     0.037 H 
ATOM     38  H11 LEU d   1      18.339  18.488  17.523  0.00  0.00     0.037 H 
BRANCH  36  39
ATOM     39  CG  LEU d   1      18.934  19.426  19.375  0.00  0.00    -0.059 C 
ATOM     40  H12 LEU d   1      17.898  19.686  19.636  0.00  0.00     0.038 H 
BRANCH  39  41
ATOM     41  CD1 LEU d   1      19.250  18.105  20.052  0.00  0.00    -0.073 C 
ATOM     42  H13 LEU d   1      19.194  18.230  21.143  0.00  0.00     0.028 H 
ATOM     43  H14 LEU d   1      20.263  17.782  19.771  0.00  0.00     0.028 H 
ATOM     44  H15 LEU d   1      18.521  17.346  19.732  0.00  0.00     0.028 H 
ENDBRANCH  39  41
BRANCH  39  45
ATOM     45  CD2 LEU d   1      19.843  20.570  19.913  0.00  0.00    -0.073 C 
ATOM     46  H16 LEU d   1      19.589  21.511  19.403  0.00  0.00     0.028 H 
ATOM     47  H17 LEU d   1      20.897  20.322  19.721  0.00  0.00     0.028 H 
ATOM     48  H18 LEU d   1      19.685  20.685  20.995  0.00  0.00     0.028 H 
ENDBRANCH  39  45
ENDBRANCH  36  39
ENDBRANCH  19  36
ENDBRANCH  16  19
ENDBRANCH  13  15
BRANCH  13  49
ATOM     49  CB  THR d   1      16.880  20.464  12.881  0.00  0.00     0.060 C 
ATOM     50  H21 THR d   1      15.987  20.716  13.472  0.00  0.00     0.086 H 
BRANCH  49  51
ATOM     51  OG1 THR d   1      17.105  19.053  12.859  0.00  0.00    -0.393 OA
ATOM     52  H22 THR d   1      16.344  18.618  12.493  0.00  0.00     0.210 HD
ENDBRANCH  49  51
BRANCH  49  53
ATOM     53  CG2 THR d   1      16.704  20.892  11.408  0.00  0.00    -0.050 C 
ATOM     54  H23 THR d   1      15.810  20.407  10.989  0.00  0.00     0.031 H 
ATOM     55  H24 THR d   1      17.590  20.590  10.830  0.00  0.00     0.031 H 
ATOM     56  H25 THR d   1      16.587  21.984  11.355  0.00  0.00     0.031 H 
ENDBRANCH  49  53
ENDBRANCH  13  49
ENDBRANCH  10  13
ENDBRANCH   7   9
BRANCH   7  57
ATOM     57  CB  ILE d   1      20.632  24.713  11.624  0.00  0.00    -0.030 C 
ATOM     58  H28 ILE d   1      21.330  24.085  11.051  0.00  0.00     0.043 H 
BRANCH  57  59
ATOM     59  CG1 ILE d   1      21.074  24.755  13.090  0.00  0.00    -0.063 C 
ATOM     60  H29 ILE d   1      22.164  24.613  13.129  0.00  0.00     0.033 H 
ATOM     61  H30 ILE d   1      20.577  23.934  13.627  0.00  0.00     0.033 H 
BRANCH  59  62
ATOM     62  CD1 ILE d   1      20.729  26.081  13.799  0.00  0.00    -0.076 C 
ATOM     63  H34 ILE d   1      21.074  26.039  14.843  0.00  0.00     0.027 H 
ATOM     64  H35 ILE d   1      19.640  26.235  13.779  0.00  0.00     0.027 H 
ATOM     65  H36 ILE d   1      21.227  26.914  13.281  0.00  0.00     0.027 H 
ENDBRANCH  59  62
ENDBRANCH  57  59
BRANCH  57  66
ATOM     66  CG2 ILE d   1      20.639  26.133  11.057  0.00  0.00    -0.071 C 
ATOM     67  H31 ILE d   1      20.322  26.109  10.004  0.00  0.00     0.028 H 
ATOM     68  H32 ILE d   1      21.655  26.550  11.125  0.00  0.00     0.028 H 
ATOM     69  H33 ILE d   1      19.945  26.762  11.634  0.00  0.00     0.028 H 
ENDBRANCH  57  66
ENDBRANCH   7  57
ENDBRANCH   4   7
ENDBRANCH   1   3
BRANCH   1  70
ATOM     70  C   PTR d   1      18.426  25.599   7.457  0.00  0.00     0.241 C 
ATOM     71  O   PTR d   1      18.809  26.665   7.953  0.00  0.00    -0.271 OA
ATOM     72  N   ALA d   1      18.907  25.141   6.303  0.00  0.00    -0.346 N 
ATOM     73  H45 ALA d   1      18.596  24.264   5.937  0.00  0.00     0.163 HD
BRANCH  72  74
ATOM     74  CA  ALA d   1      19.893  25.935   5.581  0.00  0.00     0.086 C 
ATOM     75  H46 ALA d   1      19.831  26.975   5.933  0.00  0.00     0.086 H 
BRANCH  74  76
ATOM     76  C   ALA d   1      19.592  25.907   4.110  0.00  0.00     0.240 C 
ATOM     77  O   ALA d   1      18.810  25.098   3.651  0.00  0.00    -0.271 OA
ATOM     78  N   GLN d   1      20.182  26.832   3.371  0.00  0.00    -0.346 N 
ATOM     79  H50 GLN d   1      20.708  27.560   3.810  0.00  0.00     0.163 HD
BRANCH  78  80
ATOM     80  CA  GLN d   1      20.066  26.792   1.905  0.00  0.00     0.090 C 
ATOM     81  H51 GLN d   1      19.365  25.990   1.630  0.00  0.00     0.087 H 
BRANCH  80  82
ATOM     82  C   GLN d   1      21.453  26.487   1.298  0.00  0.00     0.241 C 
ATOM     83  O   GLN d   1      22.463  26.799   1.918  0.00  0.00    -0.271 OA
ATOM     84  N   VAL d   1      21.503  25.886   0.104  0.00  0.00    -0.346 N 
ATOM     85  H58 VAL d   1      20.645  25.611  -0.330  0.00  0.00     0.163 HD
BRANCH  84  86
ATOM     86  CA  VAL d   1      22.746  25.617  -0.586  0.00  0.00     0.092 C 
ATOM     87  H59 VAL d   1      23.449  25.136   0.110  0.00  0.00     0.088 H 
BRANCH  86  88
ATOM     88  C   VAL d   1      23.359  26.975  -1.047  0.00  0.00     0.241 C 
ATOM     89  O   VAL d   1      22.623  27.893  -1.449  0.00  0.00    -0.271 OA
ATOM     90  N   GLN d   1      24.692  27.095  -0.986  0.00  0.00    -0.346 N 
ATOM     91  H67 GLN d   1      25.241  26.315  -0.685  0.00  0.00     0.163 HD
BRANCH  90  92
ATOM     92  CA  GLN d   1      25.371  28.362  -1.356  0.00  0.00     0.090 C 
ATOM     93  H68 GLN d   1      24.560  29.042  -1.657  0.00  0.00     0.087 H 
BRANCH  92  94
ATOM     94  C   GLN d   1      26.394  28.403  -2.527  0.00  0.00     0.241 C 
ATOM     95  O   GLN d   1      27.240  29.284  -2.553  0.00  0.00    -0.271 OA
ATOM     96  N   LYS d   1      26.319  27.477  -3.477  0.00  0.00    -0.345 N 
ATOM     97  H75 LYS d   1      25.582  26.803  -3.419  0.00  0.00     0.163 HD
BRANCH  96  98
ATOM     98  CA  LYS d   1      27.253  27.383  -4.607  0.00  0.00     0.093 C 
ATOM     99  H76 LYS d   1      27.523  28.393  -4.951  0.00  0.00     0.089 H 
BRANCH  98 100
ATOM    100  C   LYS d   1      26.544  26.619  -5.725  0.00  0.00     0.163 C 
ATOM    101  OXT LYS d   1      26.800  26.765  -6.926  0.00  0.00    -0.648 OA
BRANCH 100 102
ATOM    102  O1  LYS d   1      25.598  25.748  -5.387  0.00  0.00    -0.775 OA
ATOM    103  H88 LYS d   1      25.842  24.882  -5.694  0.00  0.00     0.167 HD
ENDBRANCH 100 102
ENDBRANCH  98 100
BRANCH  98 104
ATOM    104  CB  LYS d   1      28.534  26.619  -4.206  0.00  0.00    -0.037 C 
ATOM    105  H77 LYS d   1      28.237  25.627  -3.835  0.00  0.00     0.036 H 
ATOM    106  H78 LYS d   1      29.026  27.180  -3.398  0.00  0.00     0.036 H 
BRANCH 104 107
ATOM    107  CG  LYS d   1      29.542  26.421  -5.323  0.00  0.00    -0.061 C 
ATOM    108  H79 LYS d   1      29.484  27.281  -6.006  0.00  0.00     0.033 H 
ATOM    109  H80 LYS d   1      29.286  25.501  -5.869  0.00  0.00     0.033 H 
BRANCH 107 110
ATOM    110  CD  LYS d   1      31.006  26.299  -4.798  0.00  0.00    -0.043 C 
ATOM    111  H81 LYS d   1      31.703  26.545  -5.612  0.00  0.00     0.035 H 
ATOM    112  H82 LYS d   1      31.184  25.267  -4.462  0.00  0.00     0.035 H 
BRANCH 110 113
ATOM    113  CE  LYS d   1      31.245  27.260  -3.622  0.00  0.00     0.080 C 
ATOM    114  H83 LYS d   1      30.673  26.896  -2.756  0.00  0.00     0.075 H 
ATOM    115  H84 LYS d   1      30.881  28.257  -3.910  0.00  0.00     0.075 H 
BRANCH 113 116
ATOM    116  NZ  LYS d   1      32.712  27.383  -3.213  0.00  0.00    -0.079 N 
ATOM    117  H85 LYS d   1      32.793  28.026  -2.441  0.00  0.00     0.274 HD
ATOM    118  H86 LYS d   1      33.251  27.726  -3.993  0.00  0.00     0.274 HD
ATOM    119  H87 LYS d   1      33.060  26.479  -2.935  0.00  0.00     0.274 HD
ENDBRANCH 113 116
ENDBRANCH 110 113
ENDBRANCH 107 110
ENDBRANCH 104 107
ENDBRANCH  98 104
ENDBRANCH  96  98
ENDBRANCH  92  94
BRANCH  92 120
ATOM    120  CB  GLN d   1      26.037  28.962  -0.117  0.00  0.00    -0.030 C 
ATOM    121  H69 GLN d   1      26.519  29.907  -0.406  0.00  0.00     0.037 H 
ATOM    122  H70 GLN d   1      26.800  28.256   0.242  0.00  0.00     0.037 H 
BRANCH 120 123
ATOM    123  CG  GLN d   1      25.070  29.247   1.029  0.00  0.00     0.011 C 
ATOM    124  H71 GLN d   1      24.544  28.317   1.290  0.00  0.00     0.047 H 
ATOM    125  H72 GLN d   1      24.340  30.001   0.699  0.00  0.00     0.047 H 
BRANCH 123 126
ATOM    126  CD  GLN d   1      25.788  29.765   2.259  0.00  0.00     0.215 C 
ATOM    127  OE1 GLN d   1      26.959  29.455   2.470  0.00  0.00    -0.274 OA
ATOM    128  NE2 GLN d   1      25.093  30.560   3.071  0.00  0.00    -0.370 N 
ATOM    129  H73 GLN d   1      25.521  30.929   3.896  0.00  0.00     0.159 HD
ATOM    130  H74 GLN d   1      24.144  30.788   2.855  0.00  0.00     0.159 HD
ENDBRANCH 123 126
ENDBRANCH 120 123
ENDBRANCH  92 120
ENDBRANCH  90  92
ENDBRANCH  86  88
BRANCH  86 131
ATOM    131  CB  VAL d   1      22.484  24.648  -1.756  0.00  0.00    -0.033 C 
ATOM    132  H60 VAL d   1      21.750  25.121  -2.425  0.00  0.00     0.042 H 
BRANCH 131 133
ATOM    133  CG1 VAL d   1      23.735  24.362  -2.575  0.00  0.00    -0.071 C 
ATOM    134  H61 VAL d   1      23.488  23.668  -3.392  0.00  0.00     0.028 H 
ATOM    135  H62 VAL d   1      24.501  23.909  -1.928  0.00  0.00     0.028 H 
ATOM    136  H63 VAL d   1      24.120  25.302  -2.997  0.00  0.00     0.028 H 
ENDBRANCH 131 133
BRANCH 131 137
ATOM    137  CG2 VAL d   1      21.868  23.325  -1.218  0.00  0.00    -0.071 C 
ATOM    138  H64 VAL d   1      20.967  23.553  -0.630  0.00  0.00     0.028 H 
ATOM    139  H65 VAL d   1      22.602  22.812  -0.580  0.00  0.00     0.028 H 
ATOM    140  H66 VAL d   1      21.599  22.675  -2.064  0.00  0.00     0.028 H 
ENDBRANCH 131 137
ENDBRANCH  86 131
ENDBRANCH  84  86
ENDBRANCH  80  82
BRANCH  80 141
ATOM    141  CB  GLN d   1      19.545  28.124   1.322  0.00  0.00    -0.030 C 
ATOM    142  H52 GLN d   1      19.184  27.917   0.304  0.00  0.00     0.037 H 
ATOM    143  H53 GLN d   1      20.398  28.817   1.275  0.00  0.00     0.037 H 
BRANCH 141 144
ATOM    144  CG  GLN d   1      18.413  28.842   2.072  0.00  0.00     0.011 C 
ATOM    145  H54 GLN d   1      18.817  29.247   3.012  0.00  0.00     0.047 H 
ATOM    146  H55 GLN d   1      17.623  28.111   2.297  0.00  0.00     0.047 H 
BRANCH 144 147
ATOM    147  CD  GLN d   1      17.797  29.996   1.266  0.00  0.00     0.215 C 
ATOM    148  OE1 GLN d   1      16.576  30.044   1.096  0.00  0.00    -0.274 OA
ATOM    149  NE2 GLN d   1      18.632  30.932   0.805  0.00  0.00    -0.370 N 
ATOM    150  H56 GLN d   1      18.276  31.702   0.275  0.00  0.00     0.159 HD
ATOM    151  H57 GLN d   1      19.612  30.862   0.990  0.00  0.00     0.159 HD
ENDBRANCH 144 147
ENDBRANCH 141 144
ENDBRANCH  80 141
ENDBRANCH  78  80
ENDBRANCH  74  76
BRANCH  74 152
ATOM    152  CB  ALA d   1      21.309  25.416   5.849  0.00  0.00    -0.049 C 
ATOM    153  H47 ALA d   1      22.035  26.029   5.295  0.00  0.00     0.030 H 
ATOM    154  H48 ALA d   1      21.385  24.370   5.518  0.00  0.00     0.030 H 
ATOM    155  H49 ALA d   1      21.524  25.477   6.926  0.00  0.00     0.030 H 
ENDBRANCH  74 152
ENDBRANCH  72  74
ENDBRANCH   1  70
BRANCH   1 156
ATOM    156  CB  PTR d   1      15.914  25.068   8.023  0.00  0.00    -0.014 C 
ATOM    157  H39 PTR d   1      15.775  25.520   7.030  0.00  0.00     0.043 H 
ATOM    158  H40 PTR d   1      15.614  25.788   8.799  0.00  0.00     0.043 H 
BRANCH 156 159
ATOM    159  CG  PTR d   1      15.018  23.827   8.129  0.00  0.00    -0.056 A 
ATOM    160  CD1 PTR d   1      14.480  23.433   9.351  0.00  0.00    -0.074 A 
ATOM    161  CE1 PTR d   1      13.686  22.311   9.460  0.00  0.00    -0.050 A 
ATOM    162  H41 PTR d   1      14.690  24.021  10.237  0.00  0.00     0.084 H 
ATOM    163  CZ  PTR d   1      13.434  21.535   8.358  0.00  0.00     0.082 A 
ATOM    164  H43 PTR d   1      13.260  22.042  10.420  0.00  0.00     0.087 H 
ATOM    165  CE2 PTR d   1      13.968  21.892   7.131  0.00  0.00    -0.050 A 
ATOM    166  CD2 PTR d   1      14.751  23.030   7.025  0.00  0.00    -0.074 A 
ATOM    167  H44 PTR d   1      13.774  21.283   6.256  0.00  0.00     0.087 H 
ATOM    168  H42 PTR d   1      15.163  23.303   6.060  0.00  0.00     0.084 H 
BRANCH 163 169
ATOM    169  OH  PTR d   1      12.727  20.512   8.489  0.00  0.00    -0.240 OA
BRANCH 169 170
ATOM    170  P   PTR d   1      11.129  20.546   8.294  0.00  0.00     0.427 P 
ATOM    171  O1P PTR d   1      10.757  20.867   6.877  0.00  0.00    -0.617 OA
ATOM    172  O2P PTR d   1      10.535  21.649   9.166  0.00  0.00    -0.617 OA
ATOM    173  O3P PTR d   1      10.647  19.122   8.662  0.00  0.00    -0.617 OA
ENDBRANCH 169 170
ENDBRANCH 163 169
ENDBRANCH 156 159
ENDBRANCH   1 156
TORSDOF 53
