REMARK  3 active torsions:
REMARK  status: ('A' for Active; 'I' for Inactive)
REMARK    1  A    between atoms: C2_1  and  C_12 
REMARK    2  A    between atoms: C3_2  and  CA_3 
REMARK    3  A    between atoms: CA_3  and  P1_4 
ROOT
ATOM      1  C2  PMC d   1      69.842 -21.914 112.372  0.00  0.00     0.139 A 
ATOM      2  C3  PMC d   1      69.405 -21.725 111.000  0.00  0.00    -0.010 A 
ATOM      3  C4  PMC d   1      70.383 -21.859 109.972  0.00  0.00    -0.072 A 
ATOM      4  C5  PMC d   1      71.736 -22.165 110.281  0.00  0.00    -0.065 A 
ATOM      5  C6  PMC d   1      72.092 -22.329 111.634  0.00  0.00     0.003 A 
ATOM      6  N1  PMC d   1      71.151 -22.203 112.623  0.00  0.00    -0.254 NA
ATOM      7  H3  PMC d   1      70.090 -21.725 108.937  0.00  0.00     0.084 H 
ATOM      8  H4  PMC d   1      72.475 -22.270 109.495  0.00  0.00     0.085 H 
ATOM      9  H5  PMC d   1      73.119 -22.557 111.895  0.00  0.00     0.114 H 
ENDROOT
BRANCH   2  10
ATOM     10  CA  PMC d   1      67.927 -21.389 110.647  0.00  0.00     0.065 C 
ATOM     11  H1  PMC d   1      67.941 -20.893 109.665  0.00  0.00     0.061 H 
ATOM     12  H2  PMC d   1      67.572 -20.681 111.411  0.00  0.00     0.061 H 
BRANCH  10  13
ATOM     13  P1  PMC d   1      66.665 -22.740 110.544  0.00  0.00     0.263 P 
ATOM     14  O3  PMC d   1      67.253 -24.059 110.916  0.00  0.00    -0.639 OA
ATOM     15  O2  PMC d   1      65.529 -22.427 111.462  0.00  0.00    -0.639 OA
ATOM     16  O1  PMC d   1      66.134 -22.829 109.163  0.00  0.00    -0.639 OA
ENDBRANCH  10  13
ENDBRANCH   2  10
BRANCH   1  17
ATOM     17  C   PMC d   1      68.954 -21.813 113.616  0.00  0.00     0.229 C 
ATOM     18  OC1 PMC d   1      68.849 -22.887 114.399  0.00  0.00    -0.643 OA
ATOM     19  OC2 PMC d   1      68.353 -20.797 113.947  0.00  0.00    -0.643 OA
ENDBRANCH   1  17
TORSDOF 3
