REMARK  4 active torsions:
REMARK  status: ('A' for Active; 'I' for Inactive)
REMARK    1  A    between atoms: C1A_12  and  C1_1 
REMARK    2  A    between atoms: C2A_9  and  S3_10 
REMARK    3  A    between atoms: S3_10  and  C1B_14 
REMARK    4  A    between atoms: C1B_14  and  C_15 
ROOT
ATOM      1  O1  CCO d   1     -80.322 -56.263 164.954  0.00  0.00    -0.184 OA
ATOM      2  C2A CCO d   1     -81.218 -56.537 163.953  0.00  0.00     0.235 A 
ATOM      3  N3  CCO d   1     -82.404 -55.928 164.126  0.00  0.00    -0.194 NA
ATOM      4  C1A CCO d   1     -82.332 -55.223 165.260  0.00  0.00     0.190 A 
ATOM      5  N2  CCO d   1     -81.100 -55.411 165.765  0.00  0.00    -0.105 NA
ENDROOT
BRANCH   4   6
ATOM      6  C1  CCO d   1     -83.409 -54.393 165.857  0.00  0.00     0.016 A 
ATOM      7  C2  CCO d   1     -84.541 -54.007 165.078  0.00  0.00    -0.069 A 
ATOM      8  C3  CCO d   1     -85.574 -53.214 165.650  0.00  0.00    -0.080 A 
ATOM      9  H1  CCO d   1     -84.614 -54.321 164.043  0.00  0.00     0.085 H 
ATOM     10  C4  CCO d   1     -85.477 -52.803 167.011  0.00  0.00    -0.062 A 
ATOM     11  H2  CCO d   1     -86.431 -52.924 165.053  0.00  0.00     0.083 H 
ATOM     12  C5  CCO d   1     -84.347 -53.188 167.790  0.00  0.00     0.035 A 
ATOM     13  H3  CCO d   1     -86.261 -52.199 167.453  0.00  0.00     0.086 H 
ATOM     14  C6  CCO d   1     -83.319 -53.979 167.219  0.00  0.00    -0.048 A 
ATOM     15 CL5  CCO d   1     -84.226 -52.681 169.461  0.00  0.00    -0.084 Cl
ATOM     16  H4  CCO d   1     -82.463 -54.270 167.818  0.00  0.00     0.087 H 
ENDBRANCH   4   6
BRANCH   2  17
ATOM     17  S3  CCO d   1     -80.841 -57.590 162.581  0.00  0.00    -0.072 SA
BRANCH  17  18
ATOM     18  C1B CCO d   1     -79.613 -58.697 163.363  0.00  0.00     0.065 C 
ATOM     19  H5  CCO d   1     -78.843 -58.077 163.846  0.00  0.00     0.066 H 
ATOM     20  H6  CCO d   1     -79.149 -59.312 162.578  0.00  0.00     0.066 H 
BRANCH  18  21
ATOM     21  C   CCO d   1     -80.207 -59.618 164.404  0.00  0.00     0.182 C 
ATOM     22  O2  CCO d   1     -79.408 -60.110 165.250  0.00  0.00    -0.647 OA
ATOM     23  O3  CCO d   1     -81.447 -59.867 164.397  0.00  0.00    -0.647 OA
ENDBRANCH  18  21
ENDBRANCH  17  18
ENDBRANCH   2  17
TORSDOF 4
