REMARK  12 active torsions:
REMARK  status: ('A' for Active; 'I' for Inactive)
REMARK    1  A    between atoms: O3B_8  and  PG_1 
REMARK    2  A    between atoms: PB_5  and  O3B_8 
REMARK    3  A    between atoms: O3A_12  and  PB_5 
REMARK    4  A    between atoms: PA_9  and  O3A_12 
REMARK    5  A    between atoms: PA_9  and  O5_13 
REMARK    6  A    between atoms: O5_13  and  C5_14 
REMARK    7  A    between atoms: C5_14  and  C4_15 
REMARK    8  A    between atoms: C1_21  and  N9_22 
REMARK    9  A    between atoms: C6_26  and  N6_27 
REMARK   10  A    between atoms: C2F_33  and  N2F_38 
REMARK   11  A    between atoms: C4F_35  and  N4F_39 
REMARK   12  A    between atoms: C6F_37  and  N6F_40 
ROOT
ATOM      1  C4  128 d   1      11.301  60.300  12.755  0.00  0.00     0.089 C 
ATOM      2  O4  128 d   1      11.638  59.758  14.039  0.00  0.00    -0.353 OA
ATOM      3  C3  128 d   1      11.372  59.140  11.902  0.00  0.00     0.098 C 
ATOM      4  O3  128 d   1      12.594  59.262  11.203  0.00  0.00    -0.337 OA
ATOM      5  C2  128 d   1      11.585  57.905  12.803  0.00  0.00     0.112 C 
ATOM      6  O2  128 d   1      12.482  56.946  12.199  0.00  0.00    -0.335 OA
ATOM      7  C1  128 d   1      12.122  58.446  14.165  0.00  0.00     0.140 C 
ATOM      8  C1F 128 d   1      13.043  57.851  11.131  0.00  0.00     0.247 A 
ATOM      9  C2F 128 d   1      12.697  57.105   9.928  0.00  0.00     0.147 A 
ATOM     10  C3F 128 d   1      13.628  56.738   9.019  0.00  0.00    -0.018 A 
ATOM     11  C4F 128 d   1      14.957  56.991   9.104  0.00  0.00     0.103 A 
ATOM     12  C5F 128 d   1      15.365  57.680  10.226  0.00  0.00    -0.038 A 
ATOM     13  C6F 128 d   1      14.459  58.131  11.267  0.00  0.00     0.152 A 
ATOM     14  H3  128 d   1      12.100  60.987  12.438  0.00  0.00     0.090 H 
ATOM     15  H4  128 d   1      10.497  59.045  11.242  0.00  0.00     0.091 H 
ATOM     16  H5  128 d   1      10.618  57.408  12.970  0.00  0.00     0.094 H 
ATOM     17  H6  128 d   1      13.212  58.360  14.289  0.00  0.00     0.122 H 
ATOM     18  H11 128 d   1      13.280  56.192   8.143  0.00  0.00     0.090 H 
ATOM     19  H12 128 d   1      16.426  57.898  10.338  0.00  0.00     0.084 H 
ATOM     20  H13 128 d   1      14.578  57.183  11.812  0.00  0.00     0.098 H 
ENDROOT
BRANCH   1  21
ATOM     21  C5  128 d   1       9.957  61.195  12.796  0.00  0.00     0.058 C 
ATOM     22  H1  128 d   1       9.482  61.139  13.787  0.00  0.00     0.079 H 
ATOM     23  H2  128 d   1      10.181  62.245  12.556  0.00  0.00     0.079 H 
BRANCH  21  24
ATOM     24  O5  128 d   1       9.071  60.587  11.746  0.00  0.00    -0.287 OA
BRANCH  24  25
ATOM     25  PA  128 d   1       7.864  61.441  11.015  0.00  0.00     0.417 P 
ATOM     26  O1A 128 d   1       7.076  61.920  12.290  0.00  0.00    -0.624 OA
ATOM     27  O2A 128 d   1       6.954  60.885   9.950  0.00  0.00    -0.624 OA
BRANCH  25  28
ATOM     28  O3A 128 d   1       8.720  62.684  10.506  0.00  0.00    -0.180 OA
BRANCH  28  29
ATOM     29  PB  128 d   1       9.506  64.044  11.199  0.00  0.00     0.428 P 
ATOM     30  O1B 128 d   1      10.301  64.699  10.050  0.00  0.00    -0.624 OA
ATOM     31  O2B 128 d   1       8.309  64.832  11.713  0.00  0.00    -0.624 OA
BRANCH  29  32
ATOM     32  O3B 128 d   1      10.649  63.852  12.341  0.00  0.00    -0.173 OA
BRANCH  32  33
ATOM     33  PG  128 d   1      12.178  64.572  12.762  0.00  0.00     0.431 P 
ATOM     34  O1G 128 d   1      13.105  64.540  11.548  0.00  0.00    -0.616 OA
ATOM     35  O2G 128 d   1      12.740  63.706  13.882  0.00  0.00    -0.616 OA
ATOM     36  O3G 128 d   1      11.613  65.972  13.203  0.00  0.00    -0.616 OA
ENDBRANCH  32  33
ENDBRANCH  29  32
ENDBRANCH  28  29
ENDBRANCH  25  28
ENDBRANCH  24  25
ENDBRANCH  21  24
ENDBRANCH   1  21
BRANCH   7  37
ATOM     37  N9  128 d   1      11.312  57.778  15.377  0.00  0.00    -0.294 N 
ATOM     38  C8  128 d   1      11.757  57.676  16.665  0.00  0.00     0.071 A 
ATOM     39  N7  128 d   1      10.842  57.070  17.433  0.00  0.00    -0.236 NA
ATOM     40  H7  128 d   1      12.722  58.037  17.018  0.00  0.00     0.144 H 
ATOM     41  C5  128 d   1       9.815  56.783  16.629  0.00  0.00     0.149 A 
ATOM     42  C6  128 d   1       8.565  56.139  16.942  0.00  0.00     0.155 A 
ATOM     43  C4  128 d   1      10.084  57.222  15.339  0.00  0.00     0.167 A 
ATOM     44  N1  128 d   1       7.623  55.943  15.935  0.00  0.00    -0.222 NA
ATOM     45  C2  128 d   1       7.939  56.393  14.693  0.00  0.00     0.091 A 
ATOM     46  N3  128 d   1       9.109  57.001  14.406  0.00  0.00    -0.222 NA
ATOM     47  H10 128 d   1       7.218  56.257  13.895  0.00  0.00     0.146 H 
BRANCH  42  48
ATOM     48  N6  128 d   1       8.329  55.717  18.198  0.00  0.00    -0.382 N 
ATOM     49  H8  128 d   1       7.437  55.256  18.427  0.00  0.00     0.157 HD
ATOM     50  H9  128 d   1       9.040  55.855  18.930  0.00  0.00     0.157 HD
ENDBRANCH  42  48
ENDBRANCH   7  37
BRANCH   9  51
ATOM     51  N2F 128 d   1      11.346  56.728   9.649  0.00  0.00    -0.114 N 
ATOM     52  O2F 128 d   1      10.415  56.991  10.363  0.00  0.00    -0.532 OA
ATOM     53  O3F 128 d   1      11.078  56.117   8.639  0.00  0.00    -0.532 OA
ENDBRANCH   9  51
BRANCH  13  54
ATOM     54  N6F 128 d   1      15.050  58.812  12.333  0.00  0.00    -0.141 N 
ATOM     55  O6F 128 d   1      16.250  58.976  12.322  0.00  0.00    -0.536 OA
ATOM     56  O7F 128 d   1      14.464  59.262  13.267  0.00  0.00    -0.536 OA
ENDBRANCH  13  54
BRANCH  11  57
ATOM     57  N4F 128 d   1      15.889  56.644   8.231  0.00  0.00    -0.116 N 
ATOM     58  O4F 128 d   1      17.060  56.908   8.367  0.00  0.00    -0.532 OA
ATOM     59  O5F 128 d   1      15.613  56.057   7.236  0.00  0.00    -0.532 OA
ENDBRANCH  11  57
TORSDOF 12
