REMARK WARNING: 32 MAX_TORS EXCEEDED!!!
REMARK  58 active torsions:
REMARK  status: ('A' for Active; 'I' for Inactive)
REMARK    1  A    between atoms: N_1  and  CA_2 
REMARK    2  A    between atoms: CA_2  and  C_3 
REMARK       I    between atoms: C_3  and  N_5 
REMARK    3  A    between atoms: N_5  and  CA_6 
REMARK    4  A    between atoms: CA_6  and  C_7 
REMARK    5  A    between atoms: CA_6  and  CB_9 
REMARK       I    between atoms: C_7  and  N_11 
REMARK    6  A    between atoms: CB_9  and  OG_10 
REMARK    7  A    between atoms: N_11  and  CA_12 
REMARK    8  A    between atoms: CA_12  and  C_13 
REMARK    9  A    between atoms: CA_12  and  CB_15 
REMARK       I    between atoms: C_13  and  N_18 
REMARK   10  A    between atoms: CB_15  and  OG1_16 
REMARK   11  A    between atoms: CB_15  and  CG2_17 
REMARK   12  A    between atoms: N_18  and  CA_19 
REMARK   13  A    between atoms: CA_19  and  C_20 
REMARK   14  A    between atoms: CA_19  and  CB_22 
REMARK       I    between atoms: C_20  and  N_26 
REMARK   15  A    between atoms: CB_22  and  CG_23 
REMARK   16  A    between atoms: CG_23  and  CD1_24 
REMARK   17  A    between atoms: CG_23  and  CD2_25 
REMARK   18  A    between atoms: CA_27  and  C_28 
REMARK       I    between atoms: C_28  and  N_33 
REMARK   19  A    between atoms: N_33  and  CA_34 
REMARK   20  A    between atoms: CA_34  and  C_35 
REMARK   21  A    between atoms: CA_34  and  CB_37 
REMARK       I    between atoms: C_35  and  N_41 
REMARK   22  A    between atoms: CB_37  and  CG1_38 
REMARK   23  A    between atoms: CB_37  and  CG2_39 
REMARK   24  A    between atoms: CG1_38  and  CD1_40 
REMARK   25  A    between atoms: CA_42  and  C_43 
REMARK       I    between atoms: C_43  and  N_48 
REMARK   26  A    between atoms: N_48  and  CA_49 
REMARK   27  A    between atoms: CA_49  and  C_50 
REMARK       I    between atoms: C_50  and  N_52 
REMARK   28  A    between atoms: N_52  and  CA_53 
REMARK   29  A    between atoms: CA_53  and  C_54 
REMARK   30  A    between atoms: CA_53  and  CB_56 
REMARK       I    between atoms: C_54  and  N_59 
REMARK   31  A    between atoms: CB_56  and  OG1_57 
REMARK   32  A    between atoms: CB_56  and  CG2_58 
REMARK   33  A    between atoms: CA_60  and  C_61 
REMARK       I    between atoms: C_61  and  N_66 
REMARK   34  A    between atoms: CA_67  and  C_68 
REMARK       I    between atoms: C_68  and  N_73 
REMARK   35  A    between atoms: CA_74  and  C_75 
REMARK       I    between atoms: C_75  and  N_80 
REMARK   36  A    between atoms: N_80  and  CA_81 
REMARK   37  A    between atoms: CA_81  and  C_82 
REMARK   38  A    between atoms: CA_81  and  CB_84 
REMARK       I    between atoms: C_82  and  N_88 
REMARK   39  A    between atoms: CB_84  and  CG_85 
REMARK       I    between atoms: CG_85  and  ND2_87 
REMARK   40  A    between atoms: N_88  and  CA_89 
REMARK   41  A    between atoms: CA_89  and  C_90 
REMARK   42  A    between atoms: CA_89  and  CB_92 
REMARK       I    between atoms: C_90  and  N_100 
REMARK   43  A    between atoms: CB_92  and  CG_93 
REMARK   44  A    between atoms: CZ_98  and  OH_99 
REMARK   45  A    between atoms: N_100  and  CA_101 
REMARK   46  A    between atoms: CA_101  and  C_102 
REMARK   47  A    between atoms: CA_101  and  CB_104 
REMARK       I    between atoms: C_102  and  N_108 
REMARK   48  A    between atoms: CB_104  and  CG_105 
REMARK   49  A    between atoms: N_108  and  CA_109 
REMARK   50  A    between atoms: CA_109  and  C_110 
REMARK   51  A    between atoms: CA_109  and  CB_112 
REMARK       I    between atoms: C_110  and  N_114 
REMARK   52  A    between atoms: CB_112  and  OG_113 
REMARK   53  A    between atoms: N_114  and  CA_115 
REMARK   54  A    between atoms: CA_115  and  C_116 
REMARK   55  A    between atoms: CA_115  and  CB_118 
REMARK   56  A    between atoms: CB_118  and  CG_119 
REMARK   57  A    between atoms: CG_119  and  CD1_120 
REMARK   58  A    between atoms: CG_119  and  CD2_121 
ROOT
ATOM      1  C   THR d   1       8.899   5.902   3.878  0.00  0.00     0.245 C 
ATOM      2  O   THR d   1       9.307   5.887   2.718  0.00  0.00    -0.271 OA
ATOM      3  N   PRO d   1       7.814   5.205   4.258  0.00  0.00    -0.337 N 
ATOM      4  CA  PRO d   1       7.040   4.379   3.325  0.00  0.00     0.092 C 
ATOM      5  CB  PRO d   1       6.004   3.694   4.221  0.00  0.00    -0.036 C 
ATOM      6  CG  PRO d   1       5.893   4.570   5.420  0.00  0.00    -0.048 C 
ATOM      7  CD  PRO d   1       7.256   5.168   5.622  0.00  0.00    -0.001 C 
ATOM      8  H64 PRO d   1       7.690   3.635   2.840  0.00  0.00     0.087 H 
ATOM      9  H65 PRO d   1       6.345   2.688   4.507  0.00  0.00     0.036 H 
ATOM     10  H66 PRO d   1       5.035   3.620   3.705  0.00  0.00     0.036 H 
ATOM     11  H67 PRO d   1       5.601   3.978   6.300  0.00  0.00     0.035 H 
ATOM     12  H68 PRO d   1       5.150   5.362   5.247  0.00  0.00     0.035 H 
ATOM     13  H69 PRO d   1       7.184   6.180   6.046  0.00  0.00     0.064 H 
ATOM     14  H70 PRO d   1       7.870   4.537   6.282  0.00  0.00     0.064 H 
ENDROOT
BRANCH   1  15
ATOM     15  CA  THR d   1       9.616   6.725   4.946  0.00  0.00     0.114 C 
ATOM     16  H58 THR d   1       9.367   6.311   5.934  0.00  0.00     0.091 H 
BRANCH  15  17
ATOM     17  N   THR d   1      11.063   6.659   4.778  0.00  0.00    -0.344 N 
ATOM     18  C   GLY d   1      11.743   5.547   5.035  0.00  0.00     0.236 C 
ATOM     19  O   GLY d   1      11.208   4.509   5.426  0.00  0.00    -0.272 OA
ATOM     20  H57 THR d   1      11.555   7.470   4.462  0.00  0.00     0.163 HD
BRANCH  18  21
ATOM     21  CA  GLY d   1      13.243   5.610   4.821  0.00  0.00     0.069 C 
ATOM     22  H55 GLY d   1      13.715   5.980   5.743  0.00  0.00     0.078 H 
ATOM     23  H56 GLY d   1      13.610   4.596   4.603  0.00  0.00     0.078 H 
BRANCH  21  24
ATOM     24  N   GLY d   1      13.615   6.485   3.725  0.00  0.00    -0.351 N 
ATOM     25  C   PRO d   1      14.636   7.327   3.846  0.00  0.00     0.241 C 
ATOM     26  O   PRO d   1      15.314   7.414   4.869  0.00  0.00    -0.271 OA
ATOM     27  H54 GLY d   1      13.098   6.454   2.870  0.00  0.00     0.163 HD
BRANCH  25  28
ATOM     28  CA  PRO d   1      14.940   8.197   2.632  0.00  0.00     0.091 C 
ATOM     29  N   PRO d   1      14.926   7.430   1.381  0.00  0.00    -0.337 N 
ATOM     30  C   ILE d   1      15.832   6.472   1.113  0.00  0.00     0.243 C 
ATOM     31  CD  PRO d   1      13.824   7.841   0.495  0.00  0.00    -0.001 C 
ATOM     32  O   ILE d   1      16.726   6.185   1.908  0.00  0.00    -0.271 OA
ATOM     33  CG  PRO d   1      12.939   8.655   1.397  0.00  0.00    -0.048 C 
ATOM     34  H52 PRO d   1      13.287   6.965   0.102  0.00  0.00     0.064 H 
ATOM     35  H53 PRO d   1      14.198   8.448  -0.343  0.00  0.00     0.064 H 
ATOM     36  CB  PRO d   1      13.837   9.241   2.430  0.00  0.00    -0.036 C 
ATOM     37  H50 PRO d   1      12.441   9.453   0.826  0.00  0.00     0.035 H 
ATOM     38  H51 PRO d   1      12.180   8.013   1.869  0.00  0.00     0.035 H 
ATOM     39  H48 PRO d   1      14.264  10.192   2.078  0.00  0.00     0.036 H 
ATOM     40  H49 PRO d   1      13.288   9.411   3.368  0.00  0.00     0.036 H 
ATOM     41  H47 PRO d   1      15.916   8.683   2.773  0.00  0.00     0.087 H 
BRANCH  30  42
ATOM     42  CA  ILE d   1      15.714   5.740  -0.223  0.00  0.00     0.092 C 
ATOM     43  H37 ILE d   1      14.708   5.913  -0.633  0.00  0.00     0.088 H 
BRANCH  42  44
ATOM     44  N   ILE d   1      16.690   6.241  -1.184  0.00  0.00    -0.346 N 
ATOM     45  C   PRO d   1      16.323   6.678  -2.385  0.00  0.00     0.241 C 
ATOM     46  O   PRO d   1      15.154   6.691  -2.765  0.00  0.00    -0.271 OA
ATOM     47  H36 ILE d   1      17.658   6.256  -0.934  0.00  0.00     0.163 HD
BRANCH  45  48
ATOM     48  CA  PRO d   1      17.447   7.170  -3.292  0.00  0.00     0.091 C 
ATOM     49  N   PRO d   1      18.496   7.869  -2.553  0.00  0.00    -0.337 N 
ATOM     50  C   LEU d   1      18.407   9.172  -2.225  0.00  0.00     0.243 C 
ATOM     51  CD  PRO d   1      19.628   6.975  -2.234  0.00  0.00    -0.001 C 
ATOM     52  O   LEU d   1      17.427   9.850  -2.532  0.00  0.00    -0.271 OA
ATOM     53  CG  PRO d   1      19.261   5.672  -2.903  0.00  0.00    -0.048 C 
ATOM     54  H34 PRO d   1      19.727   6.842  -1.147  0.00  0.00     0.064 H 
ATOM     55  H35 PRO d   1      20.569   7.373  -2.642  0.00  0.00     0.064 H 
ATOM     56  CB  PRO d   1      18.197   5.989  -3.900  0.00  0.00    -0.036 C 
ATOM     57  H32 PRO d   1      20.139   5.244  -3.409  0.00  0.00     0.035 H 
ATOM     58  H33 PRO d   1      18.882   4.957  -2.158  0.00  0.00     0.035 H 
ATOM     59  H30 PRO d   1      18.640   6.266  -4.868  0.00  0.00     0.036 H 
ATOM     60  H31 PRO d   1      17.524   5.130  -4.038  0.00  0.00     0.036 H 
ATOM     61  H29 PRO d   1      17.024   7.817  -4.074  0.00  0.00     0.087 H 
BRANCH  50  62
ATOM     62  CA  LEU d   1      19.570   9.794  -1.451  0.00  0.00     0.090 C 
ATOM     63  H19 LEU d   1      20.232   8.987  -1.104  0.00  0.00     0.087 H 
BRANCH  62  64
ATOM     64  N   LEU d   1      20.342  10.693  -2.302  0.00  0.00    -0.346 N 
ATOM     65  C   THR d   1      20.867  10.287  -3.454  0.00  0.00     0.243 C 
ATOM     66  O   THR d   1      20.737   9.140  -3.882  0.00  0.00    -0.271 OA
ATOM     67  H18 LEU d   1      20.480  11.640  -2.011  0.00  0.00     0.163 HD
BRANCH  65  68
ATOM     68  CA  THR d   1      21.652  11.329  -4.245  0.00  0.00     0.113 C 
ATOM     69  H12 THR d   1      22.183  10.819  -5.062  0.00  0.00     0.091 H 
BRANCH  68  70
ATOM     70  N   THR d   1      20.766  12.323  -4.835  0.00  0.00    -0.344 N 
ATOM     71  C   SER d   1      20.110  13.205  -4.089  0.00  0.00     0.243 C 
ATOM     72  O   SER d   1      20.203  13.245  -2.862  0.00  0.00    -0.271 OA
ATOM     73  H11 THR d   1      20.648  12.342  -5.828  0.00  0.00     0.163 HD
BRANCH  71  74
ATOM     74  CA  SER d   1      19.219  14.189  -4.838  0.00  0.00     0.109 C 
ATOM     75  H7  SER d   1      18.647  14.774  -4.102  0.00  0.00     0.090 H 
BRANCH  74  76
ATOM     76  N   SER d   1      20.018  15.108  -5.639  0.00  0.00    -0.344 N 
ATOM     77  C   GLY d   1      20.583  16.187  -5.106  0.00  0.00     0.243 C 
ATOM     78  O   GLY d   1      20.472  16.484  -3.917  0.00  0.00    -0.272 OA
ATOM     79  H6  SER d   1      20.144  14.922  -6.614  0.00  0.00     0.163 HD
BRANCH  77  80
ATOM     80  CA  GLY d   1      21.389  17.060  -6.048  0.00  0.00     0.152 C 
ATOM     81  H4  GLY d   1      21.637  18.000  -5.533  0.00  0.00     0.090 H 
ATOM     82  H5  GLY d   1      22.316  16.531  -6.313  0.00  0.00     0.090 H 
BRANCH  80  83
ATOM     83  N   GLY d   1      20.649  17.383  -7.300  0.00  0.00    -0.071 N 
ATOM     84  H1  GLY d   1      21.225  17.963  -7.890  0.00  0.00     0.274 HD
ATOM     85  H2  GLY d   1      19.800  17.875  -7.071  0.00  0.00     0.274 HD
ATOM     86  H3  GLY d   1      20.422  16.529  -7.786  0.00  0.00     0.274 HD
ENDBRANCH  80  83
ENDBRANCH  77  80
ENDBRANCH  74  76
BRANCH  74  87
ATOM     87  CB  SER d   1      18.236  13.427  -5.730  0.00  0.00     0.044 C 
ATOM     88  H8  SER d   1      18.738  12.538  -6.140  0.00  0.00     0.077 H 
ATOM     89  H9  SER d   1      17.918  14.082  -6.555  0.00  0.00     0.077 H 
BRANCH  87  90
ATOM     90  OG  SER d   1      17.094  13.017  -4.997  0.00  0.00    -0.398 OA
ATOM     91  H10 SER d   1      16.502  12.548  -5.572  0.00  0.00     0.209 HD
ENDBRANCH  87  90
ENDBRANCH  74  87
ENDBRANCH  71  74
ENDBRANCH  68  70
BRANCH  68  92
ATOM     92  CB  THR d   1      22.695  11.984  -3.320  0.00  0.00     0.060 C 
ATOM     93  H13 THR d   1      22.378  11.844  -2.276  0.00  0.00     0.086 H 
BRANCH  92  94
ATOM     94  OG1 THR d   1      22.782  13.387  -3.595  0.00  0.00    -0.393 OA
ATOM     95  H14 THR d   1      21.935  13.791  -3.447  0.00  0.00     0.210 HD
ENDBRANCH  92  94
BRANCH  92  96
ATOM     96  CG2 THR d   1      24.060  11.342  -3.506  0.00  0.00    -0.050 C 
ATOM     97  H15 THR d   1      24.787  11.825  -2.837  0.00  0.00     0.031 H 
ATOM     98  H16 THR d   1      24.384  11.466  -4.550  0.00  0.00     0.031 H 
ATOM     99  H17 THR d   1      23.997  10.270  -3.266  0.00  0.00     0.031 H 
ENDBRANCH  92  96
ENDBRANCH  68  92
ENDBRANCH  65  68
ENDBRANCH  62  64
BRANCH  62 100
ATOM    100  CB  LEU d   1      19.036  10.550  -0.233  0.00  0.00    -0.035 C 
ATOM    101  H20 LEU d   1      18.526  11.456  -0.591  0.00  0.00     0.037 H 
ATOM    102  H21 LEU d   1      19.894  10.835   0.394  0.00  0.00     0.037 H 
BRANCH 100 103
ATOM    103  CG  LEU d   1      18.053   9.766   0.638  0.00  0.00    -0.059 C 
ATOM    104  H22 LEU d   1      18.000   8.735   0.258  0.00  0.00     0.038 H 
BRANCH 103 105
ATOM    105  CD1 LEU d   1      18.535   9.721   2.080  0.00  0.00    -0.073 C 
ATOM    106  H23 LEU d   1      17.816   9.154   2.689  0.00  0.00     0.028 H 
ATOM    107  H24 LEU d   1      18.619  10.746   2.471  0.00  0.00     0.028 H 
ATOM    108  H25 LEU d   1      19.519   9.231   2.123  0.00  0.00     0.028 H 
ENDBRANCH 103 105
BRANCH 103 109
ATOM    109  CD2 LEU d   1      16.663  10.378   0.557  0.00  0.00    -0.073 C 
ATOM    110  H26 LEU d   1      16.333  10.401  -0.492  0.00  0.00     0.028 H 
ATOM    111  H27 LEU d   1      16.690  11.403   0.956  0.00  0.00     0.028 H 
ATOM    112  H28 LEU d   1      15.961   9.773   1.149  0.00  0.00     0.028 H 
ENDBRANCH 103 109
ENDBRANCH 100 103
ENDBRANCH  62 100
ENDBRANCH  50  62
ENDBRANCH  45  48
ENDBRANCH  42  44
BRANCH  42 113
ATOM    113  CB  ILE d   1      15.894   4.228   0.021  0.00  0.00    -0.030 C 
ATOM    114  H38 ILE d   1      16.820   4.076   0.596  0.00  0.00     0.043 H 
BRANCH 113 115
ATOM    115  CG1 ILE d   1      16.025   3.486  -1.311  0.00  0.00    -0.063 C 
ATOM    116  H39 ILE d   1      16.675   4.075  -1.975  0.00  0.00     0.033 H 
ATOM    117  H40 ILE d   1      15.025   3.398  -1.760  0.00  0.00     0.033 H 
BRANCH 115 118
ATOM    118  CD1 ILE d   1      16.612   2.098  -1.174  0.00  0.00    -0.076 C 
ATOM    119  H44 ILE d   1      16.676   1.627  -2.166  0.00  0.00     0.027 H 
ATOM    120  H45 ILE d   1      15.968   1.490  -0.521  0.00  0.00     0.027 H 
ATOM    121  H46 ILE d   1      17.618   2.167  -0.736  0.00  0.00     0.027 H 
ENDBRANCH 115 118
ENDBRANCH 113 115
BRANCH 113 122
ATOM    122  CG2 ILE d   1      14.731   3.675   0.831  0.00  0.00    -0.071 C 
ATOM    123  H41 ILE d   1      14.655   4.221   1.783  0.00  0.00     0.028 H 
ATOM    124  H42 ILE d   1      14.900   2.607   1.034  0.00  0.00     0.028 H 
ATOM    125  H43 ILE d   1      13.797   3.797   0.262  0.00  0.00     0.028 H 
ENDBRANCH 113 122
ENDBRANCH  42 113
ENDBRANCH  30  42
ENDBRANCH  25  28
ENDBRANCH  21  24
ENDBRANCH  18  21
ENDBRANCH  15  17
BRANCH  15 126
ATOM    126  CB  THR d   1       9.108   8.178   4.881  0.00  0.00     0.060 C 
ATOM    127  H59 THR d   1       8.037   8.188   5.131  0.00  0.00     0.086 H 
BRANCH 126 128
ATOM    128  OG1 THR d   1       9.281   8.700   3.559  0.00  0.00    -0.393 OA
ATOM    129  H60 THR d   1       8.790   8.169   2.943  0.00  0.00     0.210 HD
ENDBRANCH 126 128
BRANCH 126 130
ATOM    130  CG2 THR d   1       9.851   9.055   5.877  0.00  0.00    -0.050 C 
ATOM    131  H61 THR d   1       9.472  10.086   5.812  0.00  0.00     0.031 H 
ATOM    132  H62 THR d   1      10.926   9.045   5.644  0.00  0.00     0.031 H 
ATOM    133  H63 THR d   1       9.693   8.669   6.895  0.00  0.00     0.031 H 
ENDBRANCH 126 130
ENDBRANCH  15 126
ENDBRANCH   1  15
BRANCH   4 134
ATOM    134  C   PRO d   1       6.349   5.216   2.250  0.00  0.00     0.243 C 
ATOM    135  O   PRO d   1       6.298   6.442   2.346  0.00  0.00    -0.271 OA
ATOM    136  N   PRO d   1       5.808   4.561   1.209  0.00  0.00    -0.337 N 
ATOM    137  CA  PRO d   1       5.120   5.254   0.113  0.00  0.00     0.092 C 
ATOM    138  CD  PRO d   1       5.824   3.100   1.015  0.00  0.00    -0.001 C 
ATOM    139  CB  PRO d   1       4.547   4.112  -0.730  0.00  0.00    -0.036 C 
ATOM    140  H71 PRO d   1       5.835   5.851  -0.472  0.00  0.00     0.087 H 
ATOM    141  CG  PRO d   1       5.409   2.938  -0.420  0.00  0.00    -0.048 C 
ATOM    142  H72 PRO d   1       4.598   4.358  -1.801  0.00  0.00     0.036 H 
ATOM    143  H73 PRO d   1       3.503   3.910  -0.450  0.00  0.00     0.036 H 
ATOM    144  H74 PRO d   1       6.293   2.928  -1.075  0.00  0.00     0.035 H 
ATOM    145  H75 PRO d   1       4.844   2.003  -0.552  0.00  0.00     0.035 H 
ATOM    146  H76 PRO d   1       5.110   2.605   1.690  0.00  0.00     0.064 H 
ATOM    147  H77 PRO d   1       6.831   2.691   1.183  0.00  0.00     0.064 H 
BRANCH 137 148
ATOM    148  C   PRO d   1       4.002   6.165   0.611  0.00  0.00     0.243 C 
ATOM    149  O   PRO d   1       3.813   6.331   1.816  0.00  0.00    -0.271 OA
ATOM    150  N   PRO d   1       3.244   6.776  -0.317  0.00  0.00    -0.337 N 
ATOM    151  CA  PRO d   1       2.141   7.681   0.028  0.00  0.00     0.091 C 
ATOM    152  CD  PRO d   1       3.403   6.639  -1.773  0.00  0.00    -0.001 C 
ATOM    153  CB  PRO d   1       1.633   8.176  -1.334  0.00  0.00    -0.036 C 
ATOM    154  H78 PRO d   1       2.510   8.520   0.636  0.00  0.00     0.087 H 
ATOM    155  CG  PRO d   1       2.729   7.871  -2.297  0.00  0.00    -0.048 C 
ATOM    156  H79 PRO d   1       1.438   9.258  -1.302  0.00  0.00     0.036 H 
ATOM    157  H80 PRO d   1       0.712   7.646  -1.618  0.00  0.00     0.036 H 
ATOM    158  H81 PRO d   1       3.442   8.707  -2.343  0.00  0.00     0.035 H 
ATOM    159  H82 PRO d   1       2.317   7.685  -3.300  0.00  0.00     0.035 H 
ATOM    160  H83 PRO d   1       2.908   5.729  -2.142  0.00  0.00     0.064 H 
ATOM    161  H84 PRO d   1       4.466   6.618  -2.055  0.00  0.00     0.064 H 
BRANCH 151 162
ATOM    162  C   PRO d   1       1.021   6.971   0.782  0.00  0.00     0.241 C 
ATOM    163  O   PRO d   1       0.482   5.967   0.314  0.00  0.00    -0.271 OA
ATOM    164  N   ASN d   1       0.668   7.503   1.949  0.00  0.00    -0.346 N 
ATOM    165  H85 ASN d   1       1.142   8.321   2.275  0.00  0.00     0.163 HD
BRANCH 164 166
ATOM    166  CA  ASN d   1      -0.393   6.923   2.764  0.00  0.00     0.097 C 
ATOM    167  H86 ASN d   1      -0.118   5.887   3.012  0.00  0.00     0.088 H 
BRANCH 166 168
ATOM    168  C   ASN d   1      -1.711   6.907   1.996  0.00  0.00     0.241 C 
ATOM    169  O   ASN d   1      -1.942   7.744   1.122  0.00  0.00    -0.271 OA
ATOM    170  N   TYR d   1      -2.573   5.951   2.325  0.00  0.00    -0.346 N 
ATOM    171  H91 TYR d   1      -2.329   5.300   3.044  0.00  0.00     0.163 HD
BRANCH 170 172
ATOM    172  CA  TYR d   1      -3.866   5.828   1.662  0.00  0.00     0.093 C 
ATOM    173  H92 TYR d   1      -3.694   5.734   0.580  0.00  0.00     0.088 H 
BRANCH 172 174
ATOM    174  C   TYR d   1      -4.727   7.062   1.911  0.00  0.00     0.241 C 
ATOM    175  O   TYR d   1      -5.494   7.480   1.043  0.00  0.00    -0.271 OA
ATOM    176  N   ASP d   1      -4.594   7.642   3.099  0.00  0.00    -0.345 N 
ATOM    177 0H10 ASP d   1      -3.952   7.256   3.761  0.00  0.00     0.163 HD
BRANCH 176 178
ATOM    178  CA  ASP d   1      -5.361   8.828   3.461  0.00  0.00     0.098 C 
ATOM    179 1H10 ASP d   1      -6.430   8.608   3.322  0.00  0.00     0.088 H 
BRANCH 178 180
ATOM    180  C   ASP d   1      -4.989  10.009   2.570  0.00  0.00     0.241 C 
ATOM    181  O   ASP d   1      -5.813  10.887   2.309  0.00  0.00    -0.271 OA
ATOM    182  N   SER d   1      -3.745  10.023   2.104  0.00  0.00    -0.344 N 
ATOM    183 4H10 SER d   1      -3.123   9.280   2.352  0.00  0.00     0.163 HD
BRANCH 182 184
ATOM    184  CA  SER d   1      -3.263  11.094   1.240  0.00  0.00     0.109 C 
ATOM    185 5H10 SER d   1      -3.823  12.010   1.479  0.00  0.00     0.090 H 
BRANCH 184 186
ATOM    186  C   SER d   1      -3.491  10.758  -0.233  0.00  0.00     0.243 C 
ATOM    187  O   SER d   1      -3.493  11.644  -1.087  0.00  0.00    -0.271 OA
ATOM    188  N   LEU d   1      -3.682   9.473  -0.525  0.00  0.00    -0.345 N 
ATOM    189 9H10 LEU d   1      -3.671   8.798   0.212  0.00  0.00     0.163 HD
BRANCH 188 190
ATOM    190  CA  LEU d   1      -3.907   9.028  -1.894  0.00  0.00     0.096 C 
ATOM    191 0H11 LEU d   1      -3.158   9.504  -2.544  0.00  0.00     0.089 H 
BRANCH 190 192
ATOM    192  C   LEU d   1      -5.298   9.433  -2.374  0.00  0.00     0.196 C 
ATOM    193  O   LEU d   1      -5.398  10.439  -3.107  0.00  0.00    -0.646 OA
ATOM    194  OXT LEU d   1      -6.273   8.742  -2.012  0.00  0.00    -0.646 OA
ENDBRANCH 190 192
BRANCH 190 195
ATOM    195  CB  LEU d   1      -3.747   7.508  -1.989  0.00  0.00    -0.034 C 
ATOM    196 1H11 LEU d   1      -4.510   7.127  -2.684  0.00  0.00     0.037 H 
ATOM    197 2H11 LEU d   1      -3.918   7.084  -0.989  0.00  0.00     0.037 H 
BRANCH 195 198
ATOM    198  CG  LEU d   1      -2.379   7.031  -2.479  0.00  0.00    -0.059 C 
ATOM    199 3H11 LEU d   1      -1.624   7.311  -1.729  0.00  0.00     0.038 H 
BRANCH 198 200
ATOM    200  CD1 LEU d   1      -2.365   5.518  -2.632  0.00  0.00    -0.073 C 
ATOM    201 4H11 LEU d   1      -1.375   5.194  -2.985  0.00  0.00     0.028 H 
ATOM    202 5H11 LEU d   1      -3.131   5.216  -3.362  0.00  0.00     0.028 H 
ATOM    203 6H11 LEU d   1      -2.579   5.049  -1.660  0.00  0.00     0.028 H 
ENDBRANCH 198 200
BRANCH 198 204
ATOM    204  CD2 LEU d   1      -2.022   7.705  -3.795  0.00  0.00    -0.073 C 
ATOM    205 7H11 LEU d   1      -2.038   8.797  -3.664  0.00  0.00     0.028 H 
ATOM    206 8H11 LEU d   1      -2.754   7.418  -4.564  0.00  0.00     0.028 H 
ATOM    207 9H11 LEU d   1      -1.016   7.388  -4.109  0.00  0.00     0.028 H 
ENDBRANCH 198 204
ENDBRANCH 195 198
ENDBRANCH 190 195
ENDBRANCH 188 190
ENDBRANCH 184 186
BRANCH 184 208
ATOM    208  CB  SER d   1      -1.778  11.352   1.491  0.00  0.00     0.044 C 
ATOM    209 6H10 SER d   1      -1.195  10.932   0.658  0.00  0.00     0.077 H 
ATOM    210 7H10 SER d   1      -1.482  10.862   2.430  0.00  0.00     0.077 H 
BRANCH 208 211
ATOM    211  OG  SER d   1      -1.510  12.740   1.589  0.00  0.00    -0.398 OA
ATOM    212 8H10 SER d   1      -0.582  12.872   1.745  0.00  0.00     0.209 HD
ENDBRANCH 208 211
ENDBRANCH 184 208
ENDBRANCH 182 184
ENDBRANCH 178 180
BRANCH 178 213
ATOM    213  CB  ASP d   1      -5.121   9.186   4.929  0.00  0.00     0.043 C 
ATOM    214 2H10 ASP d   1      -5.126  10.281   5.031  0.00  0.00     0.052 H 
ATOM    215 3H10 ASP d   1      -4.139   8.794   5.232  0.00  0.00     0.052 H 
BRANCH 213 216
ATOM    216  CG  ASP d   1      -6.181   8.606   5.845  0.00  0.00     0.175 C 
ATOM    217  OD1 ASP d   1      -6.255   7.364   5.956  0.00  0.00    -0.648 OA
ATOM    218  OD2 ASP d   1      -6.937   9.394   6.451  0.00  0.00    -0.648 OA
ENDBRANCH 213 216
ENDBRANCH 178 213
ENDBRANCH 176 178
ENDBRANCH 172 174
BRANCH 172 219
ATOM    219  CB  TYR d   1      -4.597   4.577   2.152  0.00  0.00    -0.014 C 
ATOM    220  H93 TYR d   1      -4.806   4.694   3.225  0.00  0.00     0.043 H 
ATOM    221  H94 TYR d   1      -3.940   3.708   1.999  0.00  0.00     0.043 H 
BRANCH 219 222
ATOM    222  CG  TYR d   1      -5.903   4.320   1.436  0.00  0.00    -0.056 A 
ATOM    223  CD1 TYR d   1      -5.929   4.047   0.074  0.00  0.00    -0.074 A 
ATOM    224  CE1 TYR d   1      -7.121   3.811  -0.584  0.00  0.00    -0.051 A 
ATOM    225  H95 TYR d   1      -4.999   4.019  -0.482  0.00  0.00     0.084 H 
ATOM    226  CZ  TYR d   1      -8.307   3.847   0.119  0.00  0.00     0.065 A 
ATOM    227  H97 TYR d   1      -7.124   3.599  -1.647  0.00  0.00     0.087 H 
ATOM    228  CE2 TYR d   1      -8.306   4.115   1.471  0.00  0.00    -0.051 A 
ATOM    229  CD2 TYR d   1      -7.111   4.351   2.122  0.00  0.00    -0.074 A 
ATOM    230  H98 TYR d   1      -9.240   4.141   2.021  0.00  0.00     0.087 H 
ATOM    231  H96 TYR d   1      -7.115   4.564   3.185  0.00  0.00     0.084 H 
BRANCH 226 232
ATOM    232  OH  TYR d   1      -9.496   3.612  -0.532  0.00  0.00    -0.361 OA
ATOM    233  H99 TYR d   1      -9.325   3.445  -1.451  0.00  0.00     0.217 HD
ENDBRANCH 226 232
ENDBRANCH 219 222
ENDBRANCH 172 219
ENDBRANCH 170 172
ENDBRANCH 166 168
BRANCH 166 234
ATOM    234  CB  ASN d   1      -0.556   7.711   4.065  0.00  0.00     0.036 C 
ATOM    235  H87 ASN d   1      -1.095   8.645   3.847  0.00  0.00     0.051 H 
ATOM    236  H88 ASN d   1       0.442   7.948   4.462  0.00  0.00     0.051 H 
BRANCH 234 237
ATOM    237  CG  ASN d   1      -1.328   6.937   5.118  0.00  0.00     0.217 C 
ATOM    238  OD1 ASN d   1      -2.382   7.375   5.577  0.00  0.00    -0.274 OA
ATOM    239  ND2 ASN d   1      -0.803   5.781   5.506  0.00  0.00    -0.370 N 
ATOM    240  H89 ASN d   1      -1.268   5.228   6.197  0.00  0.00     0.159 HD
ATOM    241  H90 ASN d   1       0.057   5.463   5.107  0.00  0.00     0.159 HD
ENDBRANCH 234 237
ENDBRANCH 166 234
ENDBRANCH 164 166
ENDBRANCH 151 162
ENDBRANCH 137 148
ENDBRANCH   4 134
TORSDOF 58
