REMARK  20 active torsions:
REMARK  status: ('A' for Active; 'I' for Inactive)
REMARK    1  A    between atoms: C1_1  and  O1_48 
REMARK    2  A    between atoms: C43_43  and  C3_3 
REMARK    3  A    between atoms: C4_4  and  O12_59 
REMARK    4  A    between atoms: C7_7  and  C14_14 
REMARK    5  A    between atoms: C8_8  and  O2_49 
REMARK    6  A    between atoms: C12_12  and  C13_13 
REMARK    7  A    between atoms: C16_16  and  C30_30 
REMARK    8  A    between atoms: C20_20  and  C31_31 
REMARK    9  A    between atoms: C21_21  and  O10_57 
REMARK   10  A    between atoms: C22_22  and  C32_32 
REMARK   11  A    between atoms: C23_23  and  O9_56 
REMARK   12  A    between atoms: C24_24  and  C33_33 
REMARK   13  A    between atoms: C25_25  and  O7_54 
REMARK   14  A    between atoms: C26_26  and  C34_34 
REMARK   15  A    between atoms: C27_27  and  O6_53 
REMARK   16  A    between atoms: C35_35  and  C36_36 
REMARK   17  A    between atoms: O7_54  and  C35_35 
REMARK   18  A    between atoms: O6_53  and  C37_37 
REMARK   19  A    between atoms: N4_47  and  C38_38 
REMARK   20  A    between atoms: N2_45  and  N3_46 
ROOT
ATOM      1  C1  RFP d   1      48.535  97.571  24.909  0.00  0.00     0.107 A 
ATOM      2  C2  RFP d   1      48.385  96.576  25.931  0.00  0.00     0.084 A 
ATOM      3  C3  RFP d   1      49.457  95.732  26.315  0.00  0.00     0.046 A 
ATOM      4  C4  RFP d   1      50.740  95.963  25.789  0.00  0.00     0.092 A 
ATOM      5  C5  RFP d   1      52.255  97.183  24.089  0.00  0.00     0.064 A 
ATOM      6  C6  RFP d   1      52.329  98.184  23.066  0.00  0.00     0.096 A 
ATOM      7  C7  RFP d   1      51.324  99.013  22.634  0.00  0.00     0.007 A 
ATOM      8  C8  RFP d   1      50.010  98.822  23.251  0.00  0.00     0.088 A 
ATOM      9  C9  RFP d   1      49.837  97.769  24.323  0.00  0.00     0.047 A 
ATOM     10  C10 RFP d   1      50.953  96.931  24.770  0.00  0.00     0.031 A 
ATOM     11  C11 RFP d   1      53.514  96.552  24.129  0.00  0.00     0.225 A 
ATOM     12  C12 RFP d   1      54.396  97.190  23.105  0.00  0.00     0.237 A 
ATOM     13  C15 RFP d   1      46.186  97.136  26.970  0.00  0.00     0.251 C 
ATOM     14  C16 RFP d   1      44.950  96.432  27.462  0.00  0.00     0.002 C 
ATOM     15  C17 RFP d   1      44.290  95.430  26.775  0.00  0.00    -0.092 C 
ATOM     16  C18 RFP d   1      44.591  94.823  25.453  0.00  0.00    -0.049 C 
ATOM     17  C19 RFP d   1      43.975  93.708  25.000  0.00  0.00    -0.057 C 
ATOM     18  C20 RFP d   1      44.608  92.418  24.492  0.00  0.00    -0.032 C 
ATOM     19  C21 RFP d   1      45.584  92.657  23.331  0.00  0.00     0.044 C 
ATOM     20  C22 RFP d   1      46.563  91.517  22.975  0.00  0.00    -0.007 C 
ATOM     21  C23 RFP d   1      47.602  91.868  21.900  0.00  0.00     0.046 C 
ATOM     22  C24 RFP d   1      49.044  92.222  22.338  0.00  0.00    -0.006 C 
ATOM     23  C25 RFP d   1      49.802  92.855  21.145  0.00  0.00     0.059 C 
ATOM     24  C26 RFP d   1      50.807  93.988  21.507  0.00  0.00    -0.003 C 
ATOM     25  C27 RFP d   1      51.788  94.290  20.347  0.00  0.00     0.061 C 
ATOM     26  C28 RFP d   1      52.908  95.313  20.658  0.00  0.00    -0.054 C 
ATOM     27  C29 RFP d   1      53.811  95.149  21.637  0.00  0.00     0.015 C 
ATOM     28  N1  RFP d   1      47.096  96.286  26.473  0.00  0.00    -0.320 N 
ATOM     29  O3  RFP d   1      53.573  98.238  22.501  0.00  0.00    -0.305 OA
ATOM     30  O4  RFP d   1      53.974  95.598  24.821  0.00  0.00    -0.286 OA
ATOM     31  O5  RFP d   1      54.773  96.192  22.056  0.00  0.00    -0.319 OA
ATOM     32  O11 RFP d   1      46.290  98.343  27.047  0.00  0.00    -0.268 OA
ATOM     33  H7  RFP d   1      43.415  95.023  27.281  0.00  0.00     0.077 H 
ATOM     34  H8  RFP d   1      45.667  94.593  25.462  0.00  0.00     0.038 H 
ATOM     35  H9  RFP d   1      44.390  95.606  24.707  0.00  0.00     0.038 H 
ATOM     36  H10 RFP d   1      43.350  94.057  24.165  0.00  0.00     0.034 H 
ATOM     37  H11 RFP d   1      43.330  93.391  25.833  0.00  0.00     0.034 H 
ATOM     38  H12 RFP d   1      43.814  91.751  24.124  0.00  0.00     0.043 H 
ATOM     39  H13 RFP d   1      46.200  93.531  23.588  0.00  0.00     0.084 H 
ATOM     40  H14 RFP d   1      47.117  91.286  23.897  0.00  0.00     0.047 H 
ATOM     41  H15 RFP d   1      47.676  90.978  21.259  0.00  0.00     0.084 H 
ATOM     42  H16 RFP d   1      48.979  92.970  23.142  0.00  0.00     0.047 H 
ATOM     43  H17 RFP d   1      49.048  93.301  20.479  0.00  0.00     0.085 H 
ATOM     44  H18 RFP d   1      51.403  93.668  22.374  0.00  0.00     0.047 H 
ATOM     45  H19 RFP d   1      52.285  93.345  20.083  0.00  0.00     0.090 H 
ATOM     46  H20 RFP d   1      52.966  96.214  20.049  0.00  0.00     0.083 H 
ATOM     47  H21 RFP d   1      53.837  94.191  22.154  0.00  0.00     0.122 H 
ATOM     48  H55 RFP d   1      46.838  95.320  26.483  0.00  0.00     0.169 HD
ENDROOT
BRANCH   3  49
ATOM     49  C43 RFP d   1      49.289  94.561  27.183  0.00  0.00     0.031 C 
ATOM     50  N2  RFP d   1      48.294  94.494  28.016  0.00  0.00    -0.210 NA
ATOM     51  H54 RFP d   1      50.004  93.741  27.129  0.00  0.00     0.118 H 
BRANCH  50  52
ATOM     52  N3  RFP d   1      47.948  93.290  28.636  0.00  0.00    -0.205 NA
ATOM     53  C40 RFP d   1      48.909  92.576  29.465  0.00  0.00     0.022 C 
ATOM     54  C39 RFP d   1      48.361  91.198  29.811  0.00  0.00     0.095 C 
ATOM     55  H48 RFP d   1      49.856  92.466  28.916  0.00  0.00     0.061 H 
ATOM     56  H49 RFP d   1      49.086  93.143  30.391  0.00  0.00     0.061 H 
ATOM     57  N4  RFP d   1      47.003  91.327  30.489  0.00  0.00    -0.073 N 
ATOM     58  H46 RFP d   1      49.060  90.689  30.491  0.00  0.00     0.077 H 
ATOM     59  H47 RFP d   1      48.252  90.608  28.889  0.00  0.00     0.077 H 
ATOM     60  C42 RFP d   1      46.063  92.158  29.654  0.00  0.00     0.095 C 
ATOM     61  H56 RFP d   1      47.139  91.807  31.365  0.00  0.00     0.279 HD
ATOM     62  C41 RFP d   1      46.669  93.510  29.331  0.00  0.00     0.022 C 
ATOM     63  H52 RFP d   1      45.851  91.626  28.715  0.00  0.00     0.077 H 
ATOM     64  H53 RFP d   1      45.126  92.308  30.210  0.00  0.00     0.077 H 
ATOM     65  H50 RFP d   1      46.843  94.071  30.261  0.00  0.00     0.061 H 
ATOM     66  H51 RFP d   1      45.986  94.078  28.682  0.00  0.00     0.061 H 
BRANCH  57  67
ATOM     67  C38 RFP d   1      46.437  89.991  30.793  0.00  0.00     0.066 C 
ATOM     68  H43 RFP d   1      47.153  89.419  31.402  0.00  0.00     0.068 H 
ATOM     69  H44 RFP d   1      46.243  89.453  29.854  0.00  0.00     0.068 H 
ATOM     70  H45 RFP d   1      45.495  90.110  31.349  0.00  0.00     0.068 H 
ENDBRANCH  57  67
ENDBRANCH  50  52
ENDBRANCH   3  49
BRANCH   4  71
ATOM     71  O12 RFP d   1      51.732  95.163  26.318  0.00  0.00    -0.359 OA
ATOM     72  H61 RFP d   1      52.114  94.635  25.627  0.00  0.00     0.217 HD
ENDBRANCH   4  71
BRANCH   1  73
ATOM     73  O1  RFP d   1      47.471  98.266  24.488  0.00  0.00    -0.357 OA
ATOM     74  H57 RFP d   1      46.706  98.004  24.986  0.00  0.00     0.217 HD
ENDBRANCH   1  73
BRANCH   8  75
ATOM     75  O2  RFP d   1      49.006  99.538  22.893  0.00  0.00    -0.359 OA
ATOM     76  H58 RFP d   1      48.320  98.974  22.556  0.00  0.00     0.217 HD
ENDBRANCH   8  75
BRANCH  14  77
ATOM     77  C30 RFP d   1      44.502  96.928  28.818  0.00  0.00    -0.046 C 
ATOM     78  H22 RFP d   1      45.181  97.723  29.160  0.00  0.00     0.033 H 
ATOM     79  H23 RFP d   1      44.520  96.096  29.537  0.00  0.00     0.033 H 
ATOM     80  H24 RFP d   1      43.479  97.326  28.743  0.00  0.00     0.033 H 
ENDBRANCH  14  77
BRANCH   7  81
ATOM     81  C14 RFP d   1      51.493 100.052  21.561  0.00  0.00    -0.046 C 
ATOM     82  H4  RFP d   1      52.537 100.056  21.216  0.00  0.00     0.033 H 
ATOM     83  H5  RFP d   1      51.237 101.042  21.966  0.00  0.00     0.033 H 
ATOM     84  H6  RFP d   1      50.828  99.818  20.716  0.00  0.00     0.033 H 
ENDBRANCH   7  81
BRANCH  12  85
ATOM     85  C13 RFP d   1      55.661  97.778  23.665  0.00  0.00    -0.017 C 
ATOM     86  H1  RFP d   1      56.250  98.225  22.850  0.00  0.00     0.035 H 
ATOM     87  H2  RFP d   1      56.250  96.986  24.151  0.00  0.00     0.035 H 
ATOM     88  H3  RFP d   1      55.409  98.553  24.404  0.00  0.00     0.035 H 
ENDBRANCH  12  85
BRANCH  18  89
ATOM     89  C31 RFP d   1      45.276  91.766  25.727  0.00  0.00    -0.070 C 
ATOM     90  H25 RFP d   1      44.525  91.623  26.518  0.00  0.00     0.028 H 
ATOM     91  H26 RFP d   1      46.079  92.420  26.098  0.00  0.00     0.028 H 
ATOM     92  H27 RFP d   1      45.699  90.791  25.443  0.00  0.00     0.028 H 
ENDBRANCH  18  89
BRANCH  19  93
ATOM     93  O10 RFP d   1      44.756  92.982  22.212  0.00  0.00    -0.395 OA
ATOM     94  H60 RFP d   1      45.302  93.261  21.486  0.00  0.00     0.210 HD
ENDBRANCH  19  93
BRANCH  25  95
ATOM     95  O6  RFP d   1      50.986  94.738  19.186  0.00  0.00    -0.386 OA
BRANCH  95  96
ATOM     96  C37 RFP d   1      51.509  94.202  17.934  0.00  0.00     0.005 C 
ATOM     97  H40 RFP d   1      50.889  94.555  17.097  0.00  0.00     0.066 H 
ATOM     98  H41 RFP d   1      51.487  93.103  17.968  0.00  0.00     0.066 H 
ATOM     99  H42 RFP d   1      52.545  94.544  17.793  0.00  0.00     0.066 H 
ENDBRANCH  95  96
ENDBRANCH  25  95
BRANCH  20 100
ATOM    100  C32 RFP d   1      45.824  90.223  22.532  0.00  0.00    -0.068 C 
ATOM    101  H28 RFP d   1      45.073  89.952  23.289  0.00  0.00     0.028 H 
ATOM    102  H29 RFP d   1      46.550  89.404  22.427  0.00  0.00     0.028 H 
ATOM    103  H30 RFP d   1      45.325  90.397  21.567  0.00  0.00     0.028 H 
ENDBRANCH  20 100
BRANCH  24 104
ATOM    104  C34 RFP d   1      49.995  95.193  21.899  0.00  0.00    -0.068 C 
ATOM    105  H34 RFP d   1      49.317  94.926  22.723  0.00  0.00     0.028 H 
ATOM    106  H35 RFP d   1      49.405  95.535  21.035  0.00  0.00     0.028 H 
ATOM    107  H36 RFP d   1      50.669  95.999  22.225  0.00  0.00     0.028 H 
ENDBRANCH  24 104
BRANCH  21 108
ATOM    108  O9  RFP d   1      47.161  92.980  21.083  0.00  0.00    -0.395 OA
ATOM    109  H59 RFP d   1      46.274  92.819  20.782  0.00  0.00     0.210 HD
ENDBRANCH  21 108
BRANCH  23 110
ATOM    110  O7  RFP d   1      50.469  91.795  20.428  0.00  0.00    -0.315 OA
BRANCH 110 111
ATOM    111  C35 RFP d   1      49.896  91.280  19.314  0.00  0.00     0.255 C 
ATOM    112  O8  RFP d   1      48.856  91.664  18.913  0.00  0.00    -0.266 OA
BRANCH 111 113
ATOM    113  C36 RFP d   1      50.711  90.240  18.695  0.00  0.00     0.004 C 
ATOM    114  H37 RFP d   1      50.200  89.859  17.799  0.00  0.00     0.041 H 
ATOM    115  H38 RFP d   1      50.860  89.417  19.410  0.00  0.00     0.041 H 
ATOM    116  H39 RFP d   1      51.687  90.660  18.410  0.00  0.00     0.041 H 
ENDBRANCH 111 113
ENDBRANCH 110 111
ENDBRANCH  23 110
BRANCH  22 117
ATOM    117  C33 RFP d   1      49.817  91.008  22.892  0.00  0.00    -0.068 C 
ATOM    118  H31 RFP d   1      49.262  90.575  23.737  0.00  0.00     0.028 H 
ATOM    119  H32 RFP d   1      50.811  91.331  23.234  0.00  0.00     0.028 H 
ATOM    120  H33 RFP d   1      49.929  90.252  22.101  0.00  0.00     0.028 H 
ENDBRANCH  22 117
TORSDOF 20
