REMARK  13 active torsions:
REMARK  status: ('A' for Active; 'I' for Inactive)
REMARK    1  A    between atoms: C1_1  and  C2_2 
REMARK    2  A    between atoms: C2_2  and  C5_3 
REMARK    3  A    between atoms: C5_3  and  C15_7 
REMARK    4  A    between atoms: C5_3  and  O7_4 
REMARK    5  A    between atoms: O7_4  and  C8_5 
REMARK    6  A    between atoms: C8_5  and  C11_6 
REMARK    7  A    between atoms: C23_12  and  O28_15 
REMARK    8  A    between atoms: O28_15  and  C29_16 
REMARK    9  A    between atoms: C29_16  and  C32_17 
REMARK   10  A    between atoms: C32_17  and  C35_18 
REMARK   11  A    between atoms: C40_21  and  O45_24 
REMARK   12  A    between atoms: O45_24  and  S46_25 
REMARK   13  A    between atoms: S46_25  and  C47_26 
ROOT
ATOM      1  C1  AZ2 d   1      18.396  16.343  16.484  0.00  0.00    -0.055 A 
ATOM      2  C19 AZ2 d   1      19.345  16.013  15.466  0.00  0.00    -0.074 A 
ATOM      3  C21 AZ2 d   1      18.939  15.939  14.102  0.00  0.00    -0.050 A 
ATOM      4  C23 AZ2 d   1      17.574  16.194  13.736  0.00  0.00     0.068 A 
ATOM      5  C24 AZ2 d   1      16.648  16.520  14.752  0.00  0.00    -0.050 A 
ATOM      6  C26 AZ2 d   1      17.057  16.593  16.113  0.00  0.00    -0.074 A 
ATOM      7  H9  AZ2 d   1      20.377  15.818  15.733  0.00  0.00     0.084 H 
ATOM      8  H10 AZ2 d   1      19.665  15.689  13.336  0.00  0.00     0.087 H 
ATOM      9  H11 AZ2 d   1      15.614  16.717  14.492  0.00  0.00     0.087 H 
ATOM     10  H12 AZ2 d   1      16.329  16.844  16.876  0.00  0.00     0.084 H 
ENDROOT
BRANCH   4  11
ATOM     11  O28 AZ2 d   1      17.239  16.101  12.382  0.00  0.00    -0.351 OA
BRANCH  11  12
ATOM     12  C29 AZ2 d   1      18.237  15.886  11.353  0.00  0.00     0.030 C 
ATOM     13  H13 AZ2 d   1      18.480  14.816  11.283  0.00  0.00     0.075 H 
ATOM     14  H14 AZ2 d   1      19.149  16.455  11.588  0.00  0.00     0.075 H 
BRANCH  12  15
ATOM     15  C32 AZ2 d   1      17.642  16.375  10.030  0.00  0.00    -0.021 C 
ATOM     16  H15 AZ2 d   1      16.598  16.036   9.964  0.00  0.00     0.043 H 
ATOM     17  H16 AZ2 d   1      18.221  15.944   9.200  0.00  0.00     0.043 H 
BRANCH  15  18
ATOM     18  C35 AZ2 d   1      17.674  17.874   9.916  0.00  0.00    -0.056 A 
ATOM     19  C43 AZ2 d   1      16.651  18.663  10.503  0.00  0.00    -0.074 A 
ATOM     20  C41 AZ2 d   1      16.668  20.078  10.408  0.00  0.00    -0.049 A 
ATOM     21  H20 AZ2 d   1      15.841  18.175  11.034  0.00  0.00     0.084 H 
ATOM     22  C40 AZ2 d   1      17.725  20.724   9.716  0.00  0.00     0.089 A 
ATOM     23  H19 AZ2 d   1      15.877  20.663  10.862  0.00  0.00     0.087 H 
ATOM     24  C38 AZ2 d   1      18.758  19.951   9.118  0.00  0.00    -0.049 A 
ATOM     25  C36 AZ2 d   1      18.732  18.531   9.218  0.00  0.00    -0.074 A 
ATOM     26  H18 AZ2 d   1      19.565  20.443   8.586  0.00  0.00     0.087 H 
ATOM     27  H17 AZ2 d   1      19.521  17.945   8.761  0.00  0.00     0.084 H 
BRANCH  22  28
ATOM     28  O45 AZ2 d   1      17.844  22.076   9.555  0.00  0.00    -0.233 OA
BRANCH  28  29
ATOM     29  S46 AZ2 d   1      17.256  22.789   8.224  0.00  0.00     0.266 S 
ATOM     30  O52 AZ2 d   1      15.809  22.598   8.176  0.00  0.00    -0.199 OA
ATOM     31  O51 AZ2 d   1      18.102  22.459   7.109  0.00  0.00    -0.199 OA
BRANCH  29  32
ATOM     32  C47 AZ2 d   1      17.595  24.467   8.702  0.00  0.00     0.038 C 
ATOM     33  H21 AZ2 d   1      17.261  25.149   7.907  0.00  0.00     0.052 H 
ATOM     34  H22 AZ2 d   1      18.676  24.592   8.861  0.00  0.00     0.052 H 
ATOM     35  H23 AZ2 d   1      17.058  24.698   9.634  0.00  0.00     0.052 H 
ENDBRANCH  29  32
ENDBRANCH  28  29
ENDBRANCH  22  28
ENDBRANCH  15  18
ENDBRANCH  12  15
ENDBRANCH  11  12
ENDBRANCH   4  11
BRANCH   1  36
ATOM     36  C2  AZ2 d   1      18.806  16.424  17.937  0.00  0.00    -0.007 C 
ATOM     37  H1  AZ2 d   1      19.638  15.721  18.094  0.00  0.00     0.044 H 
ATOM     38  H2  AZ2 d   1      17.945  16.116  18.549  0.00  0.00     0.044 H 
BRANCH  36  39
ATOM     39  C5  AZ2 d   1      19.263  17.818  18.426  0.00  0.00     0.125 C 
ATOM     40  H3  AZ2 d   1      18.490  18.569  18.206  0.00  0.00     0.101 H 
BRANCH  39  41
ATOM     41  C15 AZ2 d   1      19.470  17.754  19.960  0.00  0.00     0.203 C 
ATOM     42  O18 AZ2 d   1      20.521  17.585  20.541  0.00  0.00    -0.646 OA
ATOM     43  O16 AZ2 d   1      18.323  17.903  20.658  0.00  0.00    -0.646 OA
ENDBRANCH  39  41
BRANCH  39  44
ATOM     44  O7  AZ2 d   1      20.449  18.141  17.693  0.00  0.00    -0.375 OA
BRANCH  44  45
ATOM     45  C8  AZ2 d   1      20.692  19.521  17.529  0.00  0.00     0.017 C 
ATOM     46  H4  AZ2 d   1      20.640  20.034  18.501  0.00  0.00     0.073 H 
ATOM     47  H5  AZ2 d   1      19.951  19.959  16.843  0.00  0.00     0.073 H 
BRANCH  45  48
ATOM     48  C11 AZ2 d   1      22.086  19.646  16.944  0.00  0.00    -0.056 C 
ATOM     49  H6  AZ2 d   1      22.327  20.709  16.795  0.00  0.00     0.030 H 
ATOM     50  H7  AZ2 d   1      22.127  19.122  15.978  0.00  0.00     0.030 H 
ATOM     51  H8  AZ2 d   1      22.815  19.198  17.635  0.00  0.00     0.030 H 
ENDBRANCH  45  48
ENDBRANCH  44  45
ENDBRANCH  39  44
ENDBRANCH  36  39
ENDBRANCH   1  36
TORSDOF 13
