REMARK WARNING: 32 MAX_TORS EXCEEDED!!!
REMARK  56 active torsions:
REMARK  status: ('A' for Active; 'I' for Inactive)
REMARK    1  A    between atoms: N_1  and  CA_2 
REMARK    2  A    between atoms: CA_2  and  C_3 
REMARK    3  A    between atoms: CA_2  and  CB_5 
REMARK       I    between atoms: C_3  and  N_10 
REMARK    4  A    between atoms: CB_5  and  CG_6 
REMARK    5  A    between atoms: CG_6  and  CD_7 
REMARK    6  A    between atoms: CD_7  and  CE_8 
REMARK    7  A    between atoms: CE_8  and  NZ_9 
REMARK    8  A    between atoms: N_10  and  CA_11 
REMARK    9  A    between atoms: CA_11  and  C_12 
REMARK   10  A    between atoms: CA_11  and  CB_14 
REMARK       I    between atoms: C_12  and  N_17 
REMARK   11  A    between atoms: CB_14  and  CG1_15 
REMARK   12  A    between atoms: CB_14  and  CG2_16 
REMARK   13  A    between atoms: N_17  and  CA_18 
REMARK   14  A    between atoms: CA_18  and  C_19 
REMARK   15  A    between atoms: CA_18  and  CB_21 
REMARK       I    between atoms: C_19  and  N_23 
REMARK   16  A    between atoms: CB_21  and  OG_22 
REMARK   17  A    between atoms: N_23  and  CA_24 
REMARK   18  A    between atoms: CA_24  and  C_25 
REMARK   19  A    between atoms: CA_24  and  CB_27 
REMARK       I    between atoms: C_25  and  N_30 
REMARK   20  A    between atoms: CB_27  and  CG1_28 
REMARK   21  A    between atoms: CB_27  and  CG2_29 
REMARK   22  A    between atoms: N_30  and  CA_31 
REMARK   23  A    between atoms: CA_31  and  C_32 
REMARK   24  A    between atoms: CA_31  and  CB_34 
REMARK       I    between atoms: C_32  and  N_37 
REMARK   25  A    between atoms: CB_34  and  CG1_35 
REMARK   26  A    between atoms: CB_34  and  CG2_36 
REMARK   27  A    between atoms: N_37  and  CA_38 
REMARK   28  A    between atoms: CA_38  and  C_39 
REMARK   29  A    between atoms: CA_38  and  CB_41 
REMARK       I    between atoms: C_39  and  N_48 
REMARK   30  A    between atoms: CB_41  and  CG_42 
REMARK   31  A    between atoms: CG_42  and  CD_43 
REMARK   32  A    between atoms: CD_43  and  NE_44 
REMARK       I    between atoms: NE_44  and  CZ_45 
REMARK       I    between atoms: CZ_45  and  NH1_46 
REMARK   33  A    between atoms: N_48  and  CA_49 
REMARK   34  A    between atoms: CA_49  and  CB_50 
REMARK   35  A    between atoms: CA_49  and  C_57 
REMARK   36  A    between atoms: CB_50  and  CG2_51 
REMARK   37  A    between atoms: CB_50  and  OG1_52 
REMARK   38  A    between atoms: OG1_52  and  P_53 
REMARK       I    between atoms: C_57  and  N_59 
REMARK   39  A    between atoms: CA_60  and  C_61 
REMARK       I    between atoms: C_61  and  N_66 
REMARK   40  A    between atoms: CA_67  and  C_68 
REMARK       I    between atoms: C_68  and  N_73 
REMARK   41  A    between atoms: N_73  and  CA_74 
REMARK   42  A    between atoms: CA_74  and  C_75 
REMARK   43  A    between atoms: CA_74  and  CB_77 
REMARK       I    between atoms: C_75  and  N_82 
REMARK   44  A    between atoms: CB_77  and  CG_78 
REMARK   45  A    between atoms: CG_78  and  CD_79 
REMARK   46  A    between atoms: CD_79  and  CE_80 
REMARK   47  A    between atoms: CE_80  and  NZ_81 
REMARK   48  A    between atoms: N_82  and  CA_83 
REMARK   49  A    between atoms: CA_83  and  C_84 
REMARK   50  A    between atoms: CA_83  and  CB_86 
REMARK       I    between atoms: C_84  and  N_88 
REMARK   51  A    between atoms: CB_86  and  OG_87 
REMARK   52  A    between atoms: CA_89  and  C_90 
REMARK       I    between atoms: C_90  and  N_95 
REMARK   53  A    between atoms: N_95  and  CA_96 
REMARK   54  A    between atoms: CA_96  and  C_97 
REMARK   55  A    between atoms: CA_96  and  CB_99 
REMARK   56  A    between atoms: CB_99  and  OG_100 
ROOT
ATOM      1  C   ARG d   1     -48.866   2.334  48.137  0.00  0.00     0.241 C 
ATOM      2  O   ARG d   1     -48.666   3.504  47.807  0.00  0.00    -0.271 OA
ATOM      3  N   TPO d   1     -49.350   1.435  47.272  0.00  0.00    -0.344 N 
ATOM      4  H61 TPO d   1     -49.274   0.467  47.512  0.00  0.00     0.163 HD
ENDROOT
BRANCH   1   5
ATOM      5  CA  ARG d   1     -48.697   1.833  49.609  0.00  0.00     0.089 C 
ATOM      6  H49 ARG d   1     -49.319   0.930  49.693  0.00  0.00     0.087 H 
BRANCH   5   7
ATOM      7  N   ARG d   1     -47.302   1.432  49.945  0.00  0.00    -0.346 N 
ATOM      8  C   VAL d   1     -46.899   0.156  49.998  0.00  0.00     0.241 C 
ATOM      9  O   VAL d   1     -47.648  -0.770  49.666  0.00  0.00    -0.271 OA
ATOM     10  H48 ARG d   1     -46.634   2.150  50.140  0.00  0.00     0.163 HD
BRANCH   8  11
ATOM     11  CA  VAL d   1     -45.449  -0.103  50.553  0.00  0.00     0.092 C 
ATOM     12  H40 VAL d   1     -45.049   0.857  50.912  0.00  0.00     0.088 H 
BRANCH  11  13
ATOM     13  N   VAL d   1     -45.531  -1.041  51.719  0.00  0.00    -0.346 N 
ATOM     14  C   VAL d   1     -45.930  -0.660  52.944  0.00  0.00     0.241 C 
ATOM     15  O   VAL d   1     -46.175   0.529  53.204  0.00  0.00    -0.271 OA
ATOM     16  H39 VAL d   1     -45.276  -1.998  51.578  0.00  0.00     0.163 HD
BRANCH  14  17
ATOM     17  CA  VAL d   1     -46.088  -1.791  54.035  0.00  0.00     0.092 C 
ATOM     18  H31 VAL d   1     -45.264  -2.500  53.868  0.00  0.00     0.088 H 
BRANCH  17  19
ATOM     19  N   VAL d   1     -45.943  -1.244  55.420  0.00  0.00    -0.346 N 
ATOM     20  C   SER d   1     -44.756  -0.860  55.915  0.00  0.00     0.243 C 
ATOM     21  O   SER d   1     -43.695  -1.281  55.450  0.00  0.00    -0.271 OA
ATOM     22  H30 VAL d   1     -46.757  -1.162  55.995  0.00  0.00     0.163 HD
BRANCH  20  23
ATOM     23  CA  SER d   1     -44.779   0.279  56.979  0.00  0.00     0.109 C 
ATOM     24  H26 SER d   1     -45.787   0.311  57.419  0.00  0.00     0.090 H 
BRANCH  23  25
ATOM     25  N   SER d   1     -43.798   0.081  58.083  0.00  0.00    -0.344 N 
ATOM     26  C   VAL d   1     -44.017   0.520  59.334  0.00  0.00     0.241 C 
ATOM     27  O   VAL d   1     -45.068   1.105  59.627  0.00  0.00    -0.271 OA
ATOM     28  H25 SER d   1     -42.943  -0.398  57.885  0.00  0.00     0.163 HD
BRANCH  26  29
ATOM     29  CA  VAL d   1     -42.868   0.343  60.398  0.00  0.00     0.092 C 
ATOM     30  H17 VAL d   1     -41.925   0.333  59.831  0.00  0.00     0.088 H 
BRANCH  29  31
ATOM     31  N   VAL d   1     -42.801   1.495  61.359  0.00  0.00    -0.346 N 
ATOM     32  C   LYS d   1     -42.352   2.713  61.001  0.00  0.00     0.249 C 
ATOM     33  O   LYS d   1     -41.814   2.910  59.910  0.00  0.00    -0.271 OA
ATOM     34  H16 VAL d   1     -43.102   1.352  62.302  0.00  0.00     0.163 HD
BRANCH  32  35
ATOM     35  CA  LYS d   1     -42.556   3.921  61.977  0.00  0.00     0.176 C 
ATOM     36  H4  LYS d   1     -43.044   3.535  62.884  0.00  0.00     0.099 H 
BRANCH  35  37
ATOM     37  N   LYS d   1     -41.243   4.520  62.360  0.00  0.00    -0.067 N 
ATOM     38  H1  LYS d   1     -41.397   5.294  62.987  0.00  0.00     0.275 HD
ATOM     39  H2  LYS d   1     -40.769   4.847  61.533  0.00  0.00     0.275 HD
ATOM     40  H3  LYS d   1     -40.677   3.824  62.819  0.00  0.00     0.275 HD
ENDBRANCH  35  37
BRANCH  35  41
ATOM     41  CB  LYS d   1     -43.456   5.054  61.389  0.00  0.00    -0.030 C 
ATOM     42  H5  LYS d   1     -42.936   5.466  60.511  0.00  0.00     0.036 H 
ATOM     43  H6  LYS d   1     -43.550   5.834  62.159  0.00  0.00     0.036 H 
BRANCH  41  44
ATOM     44  CG  LYS d   1     -44.900   4.666  60.938  0.00  0.00    -0.061 C 
ATOM     45  H7  LYS d   1     -45.584   5.471  61.244  0.00  0.00     0.033 H 
ATOM     46  H8  LYS d   1     -45.181   3.732  61.447  0.00  0.00     0.033 H 
BRANCH  44  47
ATOM     47  CD  LYS d   1     -45.057   4.451  59.410  0.00  0.00    -0.043 C 
ATOM     48  H9  LYS d   1     -44.367   3.654  59.094  0.00  0.00     0.035 H 
ATOM     49  H10 LYS d   1     -44.796   5.387  58.895  0.00  0.00     0.035 H 
BRANCH  47  50
ATOM     50  CE  LYS d   1     -46.494   4.049  59.006  0.00  0.00     0.080 C 
ATOM     51  H11 LYS d   1     -47.202   4.786  59.413  0.00  0.00     0.075 H 
ATOM     52  H12 LYS d   1     -46.720   3.056  59.421  0.00  0.00     0.075 H 
BRANCH  50  53
ATOM     53  NZ  LYS d   1     -46.637   4.002  57.518  0.00  0.00    -0.079 N 
ATOM     54  H13 LYS d   1     -47.580   3.738  57.279  0.00  0.00     0.274 HD
ATOM     55  H14 LYS d   1     -45.993   3.325  57.140  0.00  0.00     0.274 HD
ATOM     56  H15 LYS d   1     -46.434   4.911  57.132  0.00  0.00     0.274 HD
ENDBRANCH  50  53
ENDBRANCH  47  50
ENDBRANCH  44  47
ENDBRANCH  41  44
ENDBRANCH  35  41
ENDBRANCH  32  35
ENDBRANCH  29  31
BRANCH  29  57
ATOM     57  CB  VAL d   1     -42.921  -0.997  61.216  0.00  0.00    -0.033 C 
ATOM     58  H18 VAL d   1     -42.129  -0.914  61.975  0.00  0.00     0.042 H 
BRANCH  57  59
ATOM     59  CG1 VAL d   1     -44.240  -1.270  61.979  0.00  0.00    -0.071 C 
ATOM     60  H19 VAL d   1     -44.163  -2.229  62.512  0.00  0.00     0.028 H 
ATOM     61  H20 VAL d   1     -45.075  -1.314  61.264  0.00  0.00     0.028 H 
ATOM     62  H21 VAL d   1     -44.419  -0.461  62.703  0.00  0.00     0.028 H 
ENDBRANCH  57  59
BRANCH  57  63
ATOM     63  CG2 VAL d   1     -42.603  -2.240  60.356  0.00  0.00    -0.071 C 
ATOM     64  H22 VAL d   1     -41.668  -2.073  59.801  0.00  0.00     0.028 H 
ATOM     65  H23 VAL d   1     -43.424  -2.414  59.645  0.00  0.00     0.028 H 
ATOM     66  H24 VAL d   1     -42.490  -3.118  61.009  0.00  0.00     0.028 H 
ENDBRANCH  57  63
ENDBRANCH  29  57
ENDBRANCH  26  29
ENDBRANCH  23  25
BRANCH  23  67
ATOM     67  CB  SER d   1     -44.487   1.641  56.292  0.00  0.00     0.044 C 
ATOM     68  H27 SER d   1     -43.617   1.530  55.628  0.00  0.00     0.077 H 
ATOM     69  H28 SER d   1     -44.265   2.393  57.063  0.00  0.00     0.077 H 
BRANCH  67  70
ATOM     70  OG  SER d   1     -45.613   2.078  55.521  0.00  0.00    -0.398 OA
ATOM     71  H29 SER d   1     -45.806   1.433  54.851  0.00  0.00     0.209 HD
ENDBRANCH  67  70
ENDBRANCH  23  67
ENDBRANCH  20  23
ENDBRANCH  17  19
BRANCH  17  72
ATOM     72  CB  VAL d   1     -47.425  -2.618  53.961  0.00  0.00    -0.033 C 
ATOM     73  H32 VAL d   1     -47.440  -3.241  54.867  0.00  0.00     0.042 H 
BRANCH  72  74
ATOM     74  CG1 VAL d   1     -48.730  -1.785  53.972  0.00  0.00    -0.071 C 
ATOM     75  H33 VAL d   1     -49.596  -2.460  53.917  0.00  0.00     0.028 H 
ATOM     76  H34 VAL d   1     -48.739  -1.106  53.107  0.00  0.00     0.028 H 
ATOM     77  H35 VAL d   1     -48.782  -1.197  54.900  0.00  0.00     0.028 H 
ENDBRANCH  72  74
BRANCH  72  78
ATOM     78  CG2 VAL d   1     -47.484  -3.574  52.748  0.00  0.00    -0.071 C 
ATOM     79  H36 VAL d   1     -46.567  -4.181  52.714  0.00  0.00     0.028 H 
ATOM     80  H37 VAL d   1     -47.569  -2.987  51.822  0.00  0.00     0.028 H 
ATOM     81  H38 VAL d   1     -48.358  -4.235  52.844  0.00  0.00     0.028 H 
ENDBRANCH  72  78
ENDBRANCH  17  72
ENDBRANCH  14  17
ENDBRANCH  11  13
BRANCH  11  82
ATOM     82  CB  VAL d   1     -44.462  -0.645  49.456  0.00  0.00    -0.033 C 
ATOM     83  H41 VAL d   1     -44.917  -1.565  49.062  0.00  0.00     0.042 H 
BRANCH  82  84
ATOM     84  CG1 VAL d   1     -44.238   0.324  48.271  0.00  0.00    -0.071 C 
ATOM     85  H42 VAL d   1     -43.539  -0.130  47.553  0.00  0.00     0.028 H 
ATOM     86  H43 VAL d   1     -43.818   1.269  48.645  0.00  0.00     0.028 H 
ATOM     87  H44 VAL d   1     -45.198   0.521  47.772  0.00  0.00     0.028 H 
ENDBRANCH  82  84
BRANCH  82  88
ATOM     88  CG2 VAL d   1     -43.043  -0.999  49.972  0.00  0.00    -0.071 C 
ATOM     89  H45 VAL d   1     -43.124  -1.691  50.823  0.00  0.00     0.028 H 
ATOM     90  H46 VAL d   1     -42.530  -0.081  50.294  0.00  0.00     0.028 H 
ATOM     91  H47 VAL d   1     -42.468  -1.476  49.165  0.00  0.00     0.028 H 
ENDBRANCH  82  88
ENDBRANCH  11  82
ENDBRANCH   8  11
ENDBRANCH   5   7
BRANCH   5  92
ATOM     92  CB  ARG d   1     -49.206   2.829  50.687  0.00  0.00    -0.036 C 
ATOM     93  H50 ARG d   1     -48.620   3.754  50.589  0.00  0.00     0.036 H 
ATOM     94  H51 ARG d   1     -49.018   2.378  51.672  0.00  0.00     0.036 H 
BRANCH  92  95
ATOM     95  CG  ARG d   1     -50.713   3.217  50.626  0.00  0.00    -0.048 C 
ATOM     96  H52 ARG d   1     -50.922   3.580  49.609  0.00  0.00     0.035 H 
ATOM     97  H53 ARG d   1     -50.876   4.032  51.347  0.00  0.00     0.035 H 
BRANCH  95  98
ATOM     98  CD  ARG d   1     -51.738   2.097  50.944  0.00  0.00     0.009 C 
ATOM     99  H54 ARG d   1     -52.519   2.507  51.601  0.00  0.00     0.064 H 
ATOM    100  H55 ARG d   1     -51.218   1.277  51.461  0.00  0.00     0.064 H 
BRANCH  98 101
ATOM    101  NE  ARG d   1     -52.383   1.556  49.709  0.00  0.00    -0.227 N 
ATOM    102  CZ  ARG d   1     -52.216   0.325  49.198  0.00  0.00     0.665 C 
ATOM    103  NH1 ARG d   1     -51.486  -0.613  49.735  0.00  0.00    -0.235 N 
ATOM    104  NH2 ARG d   1     -52.794   0.036  48.080  0.00  0.00    -0.235 N 
ATOM    105  H57 ARG d   1     -51.411  -1.533  49.277  0.00  0.00     0.174 HD
ATOM    106  H58 ARG d   1     -50.985  -0.434  50.617  0.00  0.00     0.174 HD
ATOM    107  H59 ARG d   1     -53.383   0.737  47.609  0.00  0.00     0.174 HD
ATOM    108  H60 ARG d   1     -52.666  -0.895  47.660  0.00  0.00     0.174 HD
ATOM    109  H56 ARG d   1     -53.017   2.188  49.200  0.00  0.00     0.177 HD
ENDBRANCH  98 101
ENDBRANCH  95  98
ENDBRANCH  92  95
ENDBRANCH   5  92
ENDBRANCH   1   5
BRANCH   3 110
ATOM    110  CA  TPO d   1     -49.998   1.785  45.968  0.00  0.00     0.114 C 
ATOM    111  H62 TPO d   1     -49.239   2.303  45.364  0.00  0.00     0.091 H 
BRANCH 110 112
ATOM    112  CB  TPO d   1     -50.352   0.451  45.195  0.00  0.00     0.076 C 
ATOM    113  H63 TPO d   1     -49.443   0.195  44.631  0.00  0.00     0.087 H 
BRANCH 112 114
ATOM    114  CG2 TPO d   1     -51.503   0.509  44.181  0.00  0.00    -0.049 C 
ATOM    115  H64 TPO d   1     -51.638  -0.482  43.722  0.00  0.00     0.031 H 
ATOM    116  H65 TPO d   1     -51.266   1.246  43.399  0.00  0.00     0.031 H 
ATOM    117  H66 TPO d   1     -52.430   0.804  44.695  0.00  0.00     0.031 H 
ENDBRANCH 112 114
BRANCH 112 118
ATOM    118  OG1 TPO d   1     -50.662  -0.680  46.063  0.00  0.00    -0.275 OA
BRANCH 118 119
ATOM    119  P   TPO d   1     -49.679  -1.960  46.151  0.00  0.00     0.422 P 
ATOM    120  O1P TPO d   1     -50.244  -3.007  47.128  0.00  0.00    -0.617 OA
ATOM    121  O2P TPO d   1     -49.580  -2.628  44.774  0.00  0.00    -0.617 OA
ATOM    122  O3P TPO d   1     -48.221  -1.518  46.630  0.00  0.00    -0.617 OA
ENDBRANCH 118 119
ENDBRANCH 112 118
ENDBRANCH 110 112
BRANCH 110 123
ATOM    123  C   TPO d   1     -51.196   2.814  46.123  0.00  0.00     0.246 C 
ATOM    124  O   TPO d   1     -52.096   2.523  46.914  0.00  0.00    -0.271 OA
ATOM    125  N   PRO d   1     -51.285   3.994  45.432  0.00  0.00    -0.337 N 
ATOM    126  CA  PRO d   1     -52.352   5.009  45.692  0.00  0.00     0.092 C 
ATOM    127  CD  PRO d   1     -50.201   4.534  44.603  0.00  0.00    -0.001 C 
ATOM    128  CB  PRO d   1     -51.940   6.191  44.783  0.00  0.00    -0.036 C 
ATOM    129  H67 PRO d   1     -52.214   5.350  46.729  0.00  0.00     0.087 H 
ATOM    130  CG  PRO d   1     -50.867   5.663  43.828  0.00  0.00    -0.048 C 
ATOM    131  H68 PRO d   1     -51.534   7.013  45.391  0.00  0.00     0.036 H 
ATOM    132  H69 PRO d   1     -52.809   6.551  44.213  0.00  0.00     0.036 H 
ATOM    133  H70 PRO d   1     -50.139   6.451  43.584  0.00  0.00     0.035 H 
ATOM    134  H71 PRO d   1     -51.322   5.284  42.901  0.00  0.00     0.035 H 
ATOM    135  H72 PRO d   1     -49.810   3.766  43.919  0.00  0.00     0.064 H 
ATOM    136  H73 PRO d   1     -49.382   4.918  45.229  0.00  0.00     0.064 H 
BRANCH 126 137
ATOM    137  C   PRO d   1     -53.854   4.527  45.655  0.00  0.00     0.243 C 
ATOM    138  O   PRO d   1     -54.516   4.707  46.682  0.00  0.00    -0.271 OA
ATOM    139  N   PRO d   1     -54.416   3.857  44.604  0.00  0.00    -0.337 N 
ATOM    140  CA  PRO d   1     -55.683   3.084  44.732  0.00  0.00     0.091 C 
ATOM    141  CD  PRO d   1     -53.843   3.843  43.247  0.00  0.00    -0.001 C 
ATOM    142  CB  PRO d   1     -56.184   3.251  43.273  0.00  0.00    -0.036 C 
ATOM    143  H74 PRO d   1     -56.383   3.582  45.419  0.00  0.00     0.087 H 
ATOM    144  CG  PRO d   1     -54.917   3.150  42.410  0.00  0.00    -0.048 C 
ATOM    145  H75 PRO d   1     -56.667   4.230  43.139  0.00  0.00     0.036 H 
ATOM    146  H76 PRO d   1     -56.895   2.453  43.013  0.00  0.00     0.036 H 
ATOM    147  H77 PRO d   1     -55.057   3.666  41.449  0.00  0.00     0.035 H 
ATOM    148  H78 PRO d   1     -54.652   2.098  42.227  0.00  0.00     0.035 H 
ATOM    149  H79 PRO d   1     -52.901   3.276  43.224  0.00  0.00     0.064 H 
ATOM    150  H80 PRO d   1     -53.663   4.866  42.886  0.00  0.00     0.064 H 
BRANCH 140 151
ATOM    151  C   PRO d   1     -55.432   1.631  45.306  0.00  0.00     0.241 C 
ATOM    152  O   PRO d   1     -54.955   1.463  46.434  0.00  0.00    -0.271 OA
ATOM    153  N   LYS d   1     -55.742   0.574  44.540  0.00  0.00    -0.346 N 
ATOM    154  H81 LYS d   1     -56.325   0.727  43.742  0.00  0.00     0.163 HD
BRANCH 153 155
ATOM    155  CA  LYS d   1     -55.269  -0.815  44.808  0.00  0.00     0.089 C 
ATOM    156  H82 LYS d   1     -54.279  -0.739  45.282  0.00  0.00     0.087 H 
BRANCH 155 157
ATOM    157  C   LYS d   1     -55.058  -1.615  43.467  0.00  0.00     0.241 C 
ATOM    158  O   LYS d   1     -55.365  -1.139  42.368  0.00  0.00    -0.271 OA
ATOM    159  N   SER d   1     -54.594  -2.874  43.561  0.00  0.00    -0.344 N 
ATOM    160  H94 SER d   1     -54.178  -3.172  44.420  0.00  0.00     0.163 HD
BRANCH 159 161
ATOM    161  CA  SER d   1     -54.678  -3.842  42.427  0.00  0.00     0.109 C 
ATOM    162  H95 SER d   1     -54.213  -3.379  41.544  0.00  0.00     0.090 H 
BRANCH 161 163
ATOM    163  C   SER d   1     -56.161  -4.233  42.031  0.00  0.00     0.245 C 
ATOM    164  O   SER d   1     -56.962  -4.463  42.949  0.00  0.00    -0.271 OA
ATOM    165  N   PRO d   1     -56.578  -4.348  40.732  0.00  0.00    -0.337 N 
ATOM    166  CA  PRO d   1     -58.004  -4.638  40.361  0.00  0.00     0.091 C 
ATOM    167  CD  PRO d   1     -55.731  -4.003  39.571  0.00  0.00    -0.001 C 
ATOM    168  CB  PRO d   1     -58.046  -4.046  38.935  0.00  0.00    -0.036 C 
ATOM    169  H99 PRO d   1     -58.658  -4.042  41.015  0.00  0.00     0.087 H 
ATOM    170  CG  PRO d   1     -56.642  -4.269  38.375  0.00  0.00    -0.048 C 
ATOM    171 0H10 PRO d   1     -58.283  -2.972  38.968  0.00  0.00     0.036 H 
ATOM    172 1H10 PRO d   1     -58.795  -4.568  38.321  0.00  0.00     0.036 H 
ATOM    173 2H10 PRO d   1     -56.430  -3.566  37.556  0.00  0.00     0.035 H 
ATOM    174 3H10 PRO d   1     -56.523  -5.301  38.013  0.00  0.00     0.035 H 
ATOM    175 4H10 PRO d   1     -54.836  -4.641  39.533  0.00  0.00     0.064 H 
ATOM    176 5H10 PRO d   1     -55.427  -2.947  39.606  0.00  0.00     0.064 H 
BRANCH 166 177
ATOM    177  C   PRO d   1     -58.526  -6.121  40.484  0.00  0.00     0.241 C 
ATOM    178  O   PRO d   1     -59.205  -6.647  39.600  0.00  0.00    -0.271 OA
ATOM    179  N   SER d   1     -58.278  -6.741  41.642  0.00  0.00    -0.343 N 
ATOM    180 6H10 SER d   1     -57.475  -6.458  42.167  0.00  0.00     0.163 HD
BRANCH 179 181
ATOM    181  CA  SER d   1     -59.127  -7.826  42.192  0.00  0.00     0.116 C 
ATOM    182 7H10 SER d   1     -60.002  -7.986  41.544  0.00  0.00     0.093 H 
BRANCH 181 183
ATOM    183  C   SER d   1     -59.613  -7.326  43.582  0.00  0.00     0.198 C 
ATOM    184  O   SER d   1     -58.993  -7.638  44.626  0.00  0.00    -0.646 OA
ATOM    185  OXT SER d   1     -60.563  -6.511  43.643  0.00  0.00    -0.646 OA
ENDBRANCH 181 183
BRANCH 181 186
ATOM    186  CB  SER d   1     -58.305  -9.135  42.233  0.00  0.00     0.045 C 
ATOM    187 8H10 SER d   1     -57.306  -8.925  42.643  0.00  0.00     0.077 H 
ATOM    188 9H10 SER d   1     -58.206  -9.535  41.213  0.00  0.00     0.077 H 
BRANCH 186 189
ATOM    189  OG  SER d   1     -58.961 -10.098  43.056  0.00  0.00    -0.398 OA
ATOM    190 0H11 SER d   1     -59.046  -9.754  43.938  0.00  0.00     0.209 HD
ENDBRANCH 186 189
ENDBRANCH 181 186
ENDBRANCH 179 181
ENDBRANCH 166 177
ENDBRANCH 161 163
BRANCH 161 191
ATOM    191  CB  SER d   1     -53.854  -5.089  42.824  0.00  0.00     0.044 C 
ATOM    192  H96 SER d   1     -54.356  -5.601  43.658  0.00  0.00     0.077 H 
ATOM    193  H97 SER d   1     -52.850  -4.770  43.141  0.00  0.00     0.077 H 
BRANCH 191 194
ATOM    194  OG  SER d   1     -53.731  -5.995  41.726  0.00  0.00    -0.398 OA
ATOM    195  H98 SER d   1     -53.222  -6.750  41.996  0.00  0.00     0.209 HD
ENDBRANCH 191 194
ENDBRANCH 161 191
ENDBRANCH 159 161
ENDBRANCH 155 157
BRANCH 155 196
ATOM    196  CB  LYS d   1     -56.213  -1.502  45.852  0.00  0.00    -0.038 C 
ATOM    197  H83 LYS d   1     -56.351  -0.799  46.687  0.00  0.00     0.036 H 
ATOM    198  H84 LYS d   1     -55.704  -2.407  46.215  0.00  0.00     0.036 H 
BRANCH 196 199
ATOM    199  CG  LYS d   1     -57.621  -1.924  45.358  0.00  0.00    -0.061 C 
ATOM    200  H85 LYS d   1     -57.508  -2.503  44.430  0.00  0.00     0.033 H 
ATOM    201  H86 LYS d   1     -58.209  -1.016  45.155  0.00  0.00     0.033 H 
BRANCH 199 202
ATOM    202  CD  LYS d   1     -58.387  -2.788  46.390  0.00  0.00    -0.043 C 
ATOM    203  H87 LYS d   1     -58.792  -2.121  47.166  0.00  0.00     0.035 H 
ATOM    204  H88 LYS d   1     -57.676  -3.492  46.846  0.00  0.00     0.035 H 
BRANCH 202 205
ATOM    205  CE  LYS d   1     -59.555  -3.600  45.792  0.00  0.00     0.080 C 
ATOM    206  H89 LYS d   1     -60.133  -2.958  45.111  0.00  0.00     0.075 H 
ATOM    207  H90 LYS d   1     -60.207  -3.953  46.605  0.00  0.00     0.075 H 
BRANCH 205 208
ATOM    208  NZ  LYS d   1     -59.031  -4.772  45.038  0.00  0.00    -0.079 N 
ATOM    209  H91 LYS d   1     -59.801  -5.295  44.652  0.00  0.00     0.274 HD
ATOM    210  H92 LYS d   1     -58.502  -5.363  45.660  0.00  0.00     0.274 HD
ATOM    211  H93 LYS d   1     -58.435  -4.452  44.291  0.00  0.00     0.274 HD
ENDBRANCH 205 208
ENDBRANCH 202 205
ENDBRANCH 199 202
ENDBRANCH 196 199
ENDBRANCH 155 196
ENDBRANCH 153 155
ENDBRANCH 140 151
ENDBRANCH 126 137
ENDBRANCH 110 123
ENDBRANCH   3 110
TORSDOF 56
