REMARK WARNING: 32 MAX_TORS EXCEEDED!!!
REMARK  41 active torsions:
REMARK  status: ('A' for Active; 'I' for Inactive)
REMARK    1  A    between atoms: N_1  and  CA_2 
REMARK    2  A    between atoms: CA_2  and  C_3 
REMARK    3  A    between atoms: CA_2  and  CB_5 
REMARK       I    between atoms: C_3  and  N_10 
REMARK    4  A    between atoms: CB_5  and  CG_6 
REMARK    5  A    between atoms: CG_6  and  CD_7 
REMARK    6  A    between atoms: CD_7  and  CE_8 
REMARK    7  A    between atoms: CE_8  and  NZ_9 
REMARK    8  A    between atoms: N_10  and  CA_11 
REMARK    9  A    between atoms: CA_11  and  C_12 
REMARK       I    between atoms: C_12  and  N_14 
REMARK   10  A    between atoms: N_14  and  CA_15 
REMARK   11  A    between atoms: CA_15  and  C_16 
REMARK   12  A    between atoms: CA_15  and  CB_18 
REMARK       I    between atoms: C_16  and  N_22 
REMARK   13  A    between atoms: CB_18  and  CG_19 
REMARK       I    between atoms: CG_19  and  ND2_21 
REMARK   14  A    between atoms: N_22  and  CA_23 
REMARK   15  A    between atoms: CA_23  and  C_24 
REMARK   16  A    between atoms: CA_23  and  CB_26 
REMARK       I    between atoms: C_24  and  N_34 
REMARK   17  A    between atoms: CB_26  and  CG_27 
REMARK   18  A    between atoms: CZ_32  and  OH_33 
REMARK   19  A    between atoms: N_34  and  CA_35 
REMARK   20  A    between atoms: CA_35  and  C_36 
REMARK   21  A    between atoms: CA_35  and  CB_38 
REMARK       I    between atoms: C_36  and  N_41 
REMARK   22  A    between atoms: CB_38  and  CG1_39 
REMARK   23  A    between atoms: CB_38  and  CG2_40 
REMARK   24  A    between atoms: N_41  and  CA_42 
REMARK   25  A    between atoms: CA_42  and  C_43 
REMARK   26  A    between atoms: CA_42  and  CB_45 
REMARK       I    between atoms: C_43  and  N_48 
REMARK   27  A    between atoms: CB_45  and  CG1_46 
REMARK   28  A    between atoms: CB_45  and  CG2_47 
REMARK   29  A    between atoms: N_48  and  CA_49 
REMARK   30  A    between atoms: CA_49  and  C_50 
REMARK   31  A    between atoms: CA_49  and  CB_52 
REMARK       I    between atoms: C_50  and  N_55 
REMARK   32  A    between atoms: CB_52  and  OG1_53 
REMARK   33  A    between atoms: CB_52  and  CG2_54 
REMARK   34  A    between atoms: N_55  and  CA_56 
REMARK   35  A    between atoms: CA_56  and  C_57 
REMARK   36  A    between atoms: CA_56  and  CB_59 
REMARK       I    between atoms: C_57  and  N_63 
REMARK   37  A    between atoms: CB_59  and  CG_60 
REMARK   38  A    between atoms: N_63  and  CA_64 
REMARK   39  A    between atoms: CA_64  and  C_65 
REMARK   40  A    between atoms: CA_64  and  CB_67 
REMARK   41  A    between atoms: CB_67  and  CG_68 
ROOT
ATOM      1  CA  VAL d   1       8.110   5.912  25.824  0.00  0.00     0.092 C 
ATOM      2  H35 VAL d   1       7.054   6.052  25.549  0.00  0.00     0.088 H 
ENDROOT
BRANCH   1   3
ATOM      3  N   VAL d   1       8.872   5.684  24.630  0.00  0.00    -0.346 N 
ATOM      4  C   TYR d   1       8.295   5.884  23.443  0.00  0.00     0.241 C 
ATOM      5  O   TYR d   1       7.074   6.073  23.407  0.00  0.00    -0.271 OA
ATOM      6  H34 VAL d   1       9.823   5.379  24.686  0.00  0.00     0.163 HD
BRANCH   4   7
ATOM      7  CA  TYR d   1       9.007   5.783  22.098  0.00  0.00     0.093 C 
ATOM      8  H26 TYR d   1       9.856   5.084  22.132  0.00  0.00     0.088 H 
BRANCH   7   9
ATOM      9  N   TYR d   1       7.923   5.275  21.319  0.00  0.00    -0.346 N 
ATOM     10  C   ASN d   1       8.113   4.331  20.441  0.00  0.00     0.241 C 
ATOM     11  O   ASN d   1       9.137   4.108  19.812  0.00  0.00    -0.271 OA
ATOM     12  H25 TYR d   1       7.005   5.649  21.449  0.00  0.00     0.163 HD
BRANCH  10  13
ATOM     13  CA  ASN d   1       6.785   3.606  20.285  0.00  0.00     0.097 C 
ATOM     14  H20 ASN d   1       6.304   3.643  21.274  0.00  0.00     0.088 H 
BRANCH  13  15
ATOM     15  N   ASN d   1       5.781   4.124  19.389  0.00  0.00    -0.346 N 
ATOM     16  C   GLY d   1       6.072   4.854  18.349  0.00  0.00     0.236 C 
ATOM     17  O   GLY d   1       7.200   4.989  17.879  0.00  0.00    -0.272 OA
ATOM     18  H19 ASN d   1       4.821   3.914  19.573  0.00  0.00     0.163 HD
BRANCH  16  19
ATOM     19  CA  GLY d   1       4.780   5.446  17.817  0.00  0.00     0.069 C 
ATOM     20  H17 GLY d   1       4.906   5.696  16.753  0.00  0.00     0.078 H 
ATOM     21  H18 GLY d   1       3.970   4.709  17.927  0.00  0.00     0.078 H 
BRANCH  19  22
ATOM     22  N   GLY d   1       4.434   6.661  18.562  0.00  0.00    -0.351 N 
ATOM     23  C   LYS d   1       4.078   6.713  19.867  0.00  0.00     0.248 C 
ATOM     24  O   LYS d   1       4.026   5.698  20.578  0.00  0.00    -0.271 OA
ATOM     25  H16 GLY d   1       4.464   7.527  18.062  0.00  0.00     0.163 HD
BRANCH  23  26
ATOM     26  CA  LYS d   1       3.714   8.024  20.578  0.00  0.00     0.176 C 
ATOM     27  H4  LYS d   1       2.619   8.131  20.573  0.00  0.00     0.099 H 
BRANCH  26  28
ATOM     28  N   LYS d   1       4.184   8.007  21.961  0.00  0.00    -0.067 N 
ATOM     29  H1  LYS d   1       3.936   8.874  22.411  0.00  0.00     0.275 HD
ATOM     30  H2  LYS d   1       5.186   7.896  21.974  0.00  0.00     0.275 HD
ATOM     31  H3  LYS d   1       3.754   7.239  22.453  0.00  0.00     0.275 HD
ENDBRANCH  26  28
BRANCH  26  32
ATOM     32  CB  LYS d   1       4.327   9.218  19.871  0.00  0.00    -0.030 C 
ATOM     33  H5  LYS d   1       4.707   8.874  18.898  0.00  0.00     0.036 H 
ATOM     34  H6  LYS d   1       5.165   9.578  20.485  0.00  0.00     0.036 H 
BRANCH  32  35
ATOM     35  CG  LYS d   1       3.410  10.380  19.620  0.00  0.00    -0.061 C 
ATOM     36  H7  LYS d   1       2.535  10.036  19.049  0.00  0.00     0.033 H 
ATOM     37  H8  LYS d   1       3.946  11.148  19.043  0.00  0.00     0.033 H 
BRANCH  35  38
ATOM     38  CD  LYS d   1       2.955  10.964  20.908  0.00  0.00    -0.043 C 
ATOM     39  H9  LYS d   1       3.768  11.519  21.398  0.00  0.00     0.035 H 
ATOM     40  H10 LYS d   1       2.584  10.181  21.586  0.00  0.00     0.035 H 
BRANCH  38  41
ATOM     41  CE  LYS d   1       1.857  11.879  20.500  0.00  0.00     0.080 C 
ATOM     42  H11 LYS d   1       1.266  11.388  19.713  0.00  0.00     0.075 H 
ATOM     43  H12 LYS d   1       2.301  12.804  20.102  0.00  0.00     0.075 H 
BRANCH  41  44
ATOM     44  NZ  LYS d   1       0.974  12.224  21.592  0.00  0.00    -0.079 N 
ATOM     45  H13 LYS d   1       0.253  12.844  21.258  0.00  0.00     0.274 HD
ATOM     46  H14 LYS d   1       1.501  12.683  22.318  0.00  0.00     0.274 HD
ATOM     47  H15 LYS d   1       0.553  11.386  21.961  0.00  0.00     0.274 HD
ENDBRANCH  41  44
ENDBRANCH  38  41
ENDBRANCH  35  38
ENDBRANCH  32  35
ENDBRANCH  26  32
ENDBRANCH  23  26
ENDBRANCH  19  22
ENDBRANCH  16  19
ENDBRANCH  13  15
BRANCH  13  48
ATOM     48  CB  ASN d   1       7.181   2.118  20.024  0.00  0.00     0.036 C 
ATOM     49  H21 ASN d   1       7.804   2.050  19.120  0.00  0.00     0.051 H 
ATOM     50  H22 ASN d   1       6.276   1.507  19.893  0.00  0.00     0.051 H 
BRANCH  48  51
ATOM     51  CG  ASN d   1       7.977   1.620  21.248  0.00  0.00     0.217 C 
ATOM     52  OD1 ASN d   1       9.201   1.493  21.247  0.00  0.00    -0.274 OA
ATOM     53  ND2 ASN d   1       7.332   1.389  22.391  0.00  0.00    -0.370 N 
ATOM     54  H23 ASN d   1       7.835   1.066  23.193  0.00  0.00     0.159 HD
ATOM     55  H24 ASN d   1       6.345   1.539  22.447  0.00  0.00     0.159 HD
ENDBRANCH  48  51
ENDBRANCH  13  48
ENDBRANCH  10  13
ENDBRANCH   7   9
BRANCH   7  56
ATOM     56  CB  TYR d   1       9.479   7.119  21.600  0.00  0.00    -0.014 C 
ATOM     57  H27 TYR d   1       9.932   6.933  20.615  0.00  0.00     0.043 H 
ATOM     58  H28 TYR d   1      10.257   7.448  22.305  0.00  0.00     0.043 H 
BRANCH  56  59
ATOM     59  CG  TYR d   1       8.554   8.305  21.416  0.00  0.00    -0.056 A 
ATOM     60  CD1 TYR d   1       8.081   9.002  22.522  0.00  0.00    -0.074 A 
ATOM     61  CE1 TYR d   1       7.396  10.209  22.362  0.00  0.00    -0.051 A 
ATOM     62  H29 TYR d   1       8.245   8.605  23.517  0.00  0.00     0.084 H 
ATOM     63  CZ  TYR d   1       7.199  10.720  21.090  0.00  0.00     0.065 A 
ATOM     64  H31 TYR d   1       7.021  10.742  23.228  0.00  0.00     0.087 H 
ATOM     65  CE2 TYR d   1       7.647  10.018  19.963  0.00  0.00    -0.051 A 
ATOM     66  CD2 TYR d   1       8.317   8.803  20.129  0.00  0.00    -0.074 A 
ATOM     67  H32 TYR d   1       7.475  10.415  18.969  0.00  0.00     0.087 H 
ATOM     68  H30 TYR d   1       8.653   8.246  19.262  0.00  0.00     0.084 H 
BRANCH  63  69
ATOM     69  OH  TYR d   1       6.646  11.979  20.978  0.00  0.00    -0.361 OA
ATOM     70  H33 TYR d   1       5.874  11.937  20.426  0.00  0.00     0.217 HD
ENDBRANCH  63  69
ENDBRANCH  56  59
ENDBRANCH   7  56
ENDBRANCH   4   7
ENDBRANCH   1   3
BRANCH   1  71
ATOM     71  C   VAL d   1       8.609   7.209  26.461  0.00  0.00     0.241 C 
ATOM     72  O   VAL d   1       9.800   7.540  26.298  0.00  0.00    -0.271 OA
ATOM     73  N   VAL d   1       7.753   8.064  27.078  0.00  0.00    -0.346 N 
ATOM     74  H43 VAL d   1       6.762   7.944  27.015  0.00  0.00     0.163 HD
BRANCH  73  75
ATOM     75  CA  VAL d   1       8.335   9.159  27.833  0.00  0.00     0.092 C 
ATOM     76  H44 VAL d   1       9.425   9.103  27.697  0.00  0.00     0.088 H 
BRANCH  75  77
ATOM     77  C   VAL d   1       8.040   8.931  29.281  0.00  0.00     0.241 C 
ATOM     78  O   VAL d   1       8.907   9.281  30.089  0.00  0.00    -0.271 OA
ATOM     79  N   THR d   1       6.915   8.325  29.684  0.00  0.00    -0.344 N 
ATOM     80  H52 THR d   1       6.206   8.068  29.027  0.00  0.00     0.163 HD
BRANCH  79  81
ATOM     81  CA  THR d   1       6.753   8.050  31.115  0.00  0.00     0.113 C 
ATOM     82  H53 THR d   1       7.481   8.652  31.678  0.00  0.00     0.091 H 
BRANCH  81  83
ATOM     83  C   THR d   1       7.035   6.578  31.387  0.00  0.00     0.243 C 
ATOM     84  O   THR d   1       6.536   5.679  30.703  0.00  0.00    -0.271 OA
ATOM     85  N   ASP d   1       7.967   6.325  32.290  0.00  0.00    -0.345 N 
ATOM     86  H59 ASP d   1       8.481   7.083  32.692  0.00  0.00     0.163 HD
BRANCH  85  87
ATOM     87  CA  ASP d   1       8.254   4.972  32.705  0.00  0.00     0.098 C 
ATOM     88  H60 ASP d   1       8.219   4.309  31.828  0.00  0.00     0.088 H 
BRANCH  87  89
ATOM     89  C   ASP d   1       7.205   4.509  33.717  0.00  0.00     0.241 C 
ATOM     90  O   ASP d   1       7.379   4.656  34.932  0.00  0.00    -0.271 OA
ATOM     91  N   HIS d   1       6.195   3.830  33.142  0.00  0.00    -0.344 N 
ATOM     92  H63 HIS d   1       6.319   3.671  32.162  0.00  0.00     0.163 HD
BRANCH  91  93
ATOM     93  CA  HIS d   1       4.941   3.276  33.684  0.00  0.00     0.101 C 
ATOM     94  H64 HIS d   1       4.551   2.501  33.007  0.00  0.00     0.090 H 
BRANCH  93  95
ATOM     95  C   HIS d   1       4.012   4.474  33.730  0.00  0.00     0.197 C 
ATOM     96  O   HIS d   1       3.991   5.203  34.727  0.00  0.00    -0.646 OA
ATOM     97  OXT HIS d   1       3.407   4.727  32.687  0.00  0.00    -0.646 OA
ENDBRANCH  93  95
BRANCH  93  98
ATOM     98  CB  HIS d   1       5.068   2.686  35.087  0.00  0.00     0.003 C 
ATOM     99  H65 HIS d   1       4.148   2.145  35.352  0.00  0.00     0.046 H 
ATOM    100  H66 HIS d   1       5.244   3.489  35.818  0.00  0.00     0.046 H 
BRANCH  98 101
ATOM    101  CG  HIS d   1       6.235   1.739  35.074  0.00  0.00     0.030 A 
ATOM    102  ND1 HIS d   1       7.374   2.012  35.687  0.00  0.00    -0.353 N 
ATOM    103  CE1 HIS d   1       8.201   1.043  35.404  0.00  0.00     0.063 A 
ATOM    104  H67 HIS d   1       7.571   2.833  36.276  0.00  0.00     0.166 HD
ATOM    105  NE2 HIS d   1       7.586   0.175  34.627  0.00  0.00    -0.254 NA
ATOM    106  H69 HIS d   1       9.230   0.965  35.753  0.00  0.00     0.143 H 
ATOM    107  CD2 HIS d   1       6.356   0.558  34.390  0.00  0.00     0.025 A 
ATOM    108  H68 HIS d   1       5.602   0.053  33.787  0.00  0.00     0.117 H 
ENDBRANCH  98 101
ENDBRANCH  93  98
ENDBRANCH  91  93
ENDBRANCH  87  89
BRANCH  87 109
ATOM    109  CB  ASP d   1       9.662   4.919  33.314  0.00  0.00     0.043 C 
ATOM    110  H61 ASP d   1       9.822   3.926  33.759  0.00  0.00     0.052 H 
ATOM    111  H62 ASP d   1       9.743   5.688  34.096  0.00  0.00     0.052 H 
BRANCH 109 112
ATOM    112  CG  ASP d   1      10.734   5.169  32.260  0.00  0.00     0.175 C 
ATOM    113  OD1 ASP d   1      10.663   4.570  31.182  0.00  0.00    -0.648 OA
ATOM    114  OD2 ASP d   1      11.626   5.983  32.510  0.00  0.00    -0.648 OA
ENDBRANCH 109 112
ENDBRANCH  87 109
ENDBRANCH  85  87
ENDBRANCH  81  83
BRANCH  81 115
ATOM    115  CB  THR d   1       5.329   8.462  31.563  0.00  0.00     0.060 C 
ATOM    116  H54 THR d   1       4.581   7.840  31.050  0.00  0.00     0.086 H 
BRANCH 115 117
ATOM    117  OG1 THR d   1       5.220   9.839  31.195  0.00  0.00    -0.393 OA
ATOM    118  H55 THR d   1       5.334   9.925  30.256  0.00  0.00     0.210 HD
ENDBRANCH 115 117
BRANCH 115 119
ATOM    119  CG2 THR d   1       5.088   8.422  33.056  0.00  0.00    -0.050 C 
ATOM    120  H56 THR d   1       4.054   8.730  33.269  0.00  0.00     0.031 H 
ATOM    121  H57 THR d   1       5.786   9.108  33.559  0.00  0.00     0.031 H 
ATOM    122  H58 THR d   1       5.249   7.399  33.426  0.00  0.00     0.031 H 
ENDBRANCH 115 119
ENDBRANCH  81 115
ENDBRANCH  79  81
ENDBRANCH  75  77
BRANCH  75 123
ATOM    123  CB  VAL d   1       7.887  10.652  27.361  0.00  0.00    -0.033 C 
ATOM    124  H45 VAL d   1       8.798  11.157  27.006  0.00  0.00     0.042 H 
BRANCH 123 125
ATOM    125  CG1 VAL d   1       7.020  10.490  26.143  0.00  0.00    -0.071 C 
ATOM    126  H46 VAL d   1       6.694  11.480  25.791  0.00  0.00     0.028 H 
ATOM    127  H47 VAL d   1       6.138   9.884  26.398  0.00  0.00     0.028 H 
ATOM    128  H48 VAL d   1       7.593   9.988  25.349  0.00  0.00     0.028 H 
ENDBRANCH 123 125
BRANCH 123 129
ATOM    129  CG2 VAL d   1       7.395  11.530  28.521  0.00  0.00    -0.071 C 
ATOM    130  H49 VAL d   1       8.149  11.536  29.322  0.00  0.00     0.028 H 
ATOM    131  H50 VAL d   1       6.449  11.126  28.911  0.00  0.00     0.028 H 
ATOM    132  H51 VAL d   1       7.235  12.557  28.161  0.00  0.00     0.028 H 
ENDBRANCH 123 129
ENDBRANCH  75 123
ENDBRANCH  73  75
ENDBRANCH   1  71
BRANCH   1 133
ATOM    133  CB  VAL d   1       8.194   4.626  26.794  0.00  0.00    -0.033 C 
ATOM    134  H36 VAL d   1       7.172   4.415  27.143  0.00  0.00     0.042 H 
BRANCH 133 135
ATOM    135  CG1 VAL d   1       8.663   3.391  26.015  0.00  0.00    -0.071 C 
ATOM    136  H37 VAL d   1       8.713   2.527  26.694  0.00  0.00     0.028 H 
ATOM    137  H38 VAL d   1       9.659   3.582  25.590  0.00  0.00     0.028 H 
ATOM    138  H39 VAL d   1       7.953   3.178  25.203  0.00  0.00     0.028 H 
ENDBRANCH 133 135
BRANCH 133 139
ATOM    139  CG2 VAL d   1       8.999   4.893  27.988  0.00  0.00    -0.071 C 
ATOM    140  H40 VAL d   1       8.612   5.787  28.499  0.00  0.00     0.028 H 
ATOM    141  H41 VAL d   1      10.046   5.062  27.694  0.00  0.00     0.028 H 
ATOM    142  H42 VAL d   1       8.944   4.030  28.668  0.00  0.00     0.028 H 
ENDBRANCH 133 139
ENDBRANCH   1 133
TORSDOF 41
