REMARK  9 active torsions:
REMARK  status: ('A' for Active; 'I' for Inactive)
REMARK    1  A    between atoms: C2_3  and  C1_1 
REMARK    2  A    between atoms: C3_4  and  C2_3 
REMARK    3  A    between atoms: C4_14  and  C3_4 
REMARK    4  A    between atoms: C6_7  and  C5_5 
REMARK    5  A    between atoms: C5_5  and  C4_14 
REMARK    6  A    between atoms: C7_13  and  C6_7 
REMARK    7  A    between atoms: C8_8  and  C9_9 
REMARK    8  A    between atoms: C8_8  and  C7_13 
REMARK    9  A    between atoms: C9_9  and  C10_10 
ROOT
ATOM      1  C5  DSB d   1      19.409  89.319  53.031  0.00  0.00    -0.065 C 
ATOM      2  H5  DSB d   1      20.489  89.518  53.094  0.00  0.00     0.033 H 
ATOM      3  H6  DSB d   1      18.854  90.177  53.436  0.00  0.00     0.033 H 
ENDROOT
BRANCH   1   4
ATOM      4  C6  DSB d   1      19.104  88.130  53.863  0.00  0.00    -0.065 C 
ATOM      5  H7  DSB d   1      18.038  87.884  53.746  0.00  0.00     0.033 H 
ATOM      6  H8  DSB d   1      19.311  88.376  54.915  0.00  0.00     0.033 H 
BRANCH   4   7
ATOM      7  C7  DSB d   1      19.924  86.915  53.481  0.00  0.00    -0.065 C 
ATOM      8  H13 DSB d   1      19.290  86.320  52.807  0.00  0.00     0.033 H 
ATOM      9  H14 DSB d   1      20.092  86.357  54.414  0.00  0.00     0.033 H 
BRANCH   7  10
ATOM     10  C8  DSB d   1      21.268  87.013  52.807  0.00  0.00    -0.056 C 
ATOM     11  H9  DSB d   1      21.766  86.034  52.869  0.00  0.00     0.033 H 
ATOM     12  H10 DSB d   1      21.115  87.281  51.751  0.00  0.00     0.033 H 
BRANCH  10  13
ATOM     13  C9  DSB d   1      22.173  88.067  53.455  0.00  0.00     0.016 C 
ATOM     14  H11 DSB d   1      21.831  88.240  54.486  0.00  0.00     0.049 H 
ATOM     15  H12 DSB d   1      22.094  89.001  52.880  0.00  0.00     0.049 H 
BRANCH  13  16
ATOM     16  C10 DSB d   1      23.627  87.640  53.491  0.00  0.00     0.172 C 
ATOM     17  O11 DSB d   1      23.889  86.415  53.410  0.00  0.00    -0.648 OA
ATOM     18  O12 DSB d   1      24.465  88.548  53.637  0.00  0.00    -0.648 OA
ENDBRANCH  13  16
ENDBRANCH  10  13
ENDBRANCH   7  10
ENDBRANCH   4   7
ENDBRANCH   1   4
BRANCH   1  19
ATOM     19  C4  DSB d   1      19.037  89.156  51.569  0.00  0.00    -0.065 C 
ATOM     20  H15 DSB d   1      19.526  88.244  51.197  0.00  0.00     0.033 H 
ATOM     21  H16 DSB d   1      17.945  89.036  51.511  0.00  0.00     0.033 H 
BRANCH  19  22
ATOM     22  C3  DSB d   1      19.426  90.294  50.657  0.00  0.00    -0.056 C 
ATOM     23  H3  DSB d   1      18.796  90.260  49.756  0.00  0.00     0.033 H 
ATOM     24  H4  DSB d   1      19.260  91.245  51.184  0.00  0.00     0.033 H 
BRANCH  22  25
ATOM     25  C2  DSB d   1      20.872  90.211  50.244  0.00  0.00     0.016 C 
ATOM     26  H1  DSB d   1      21.512  90.544  51.074  0.00  0.00     0.049 H 
ATOM     27  H2  DSB d   1      21.122  89.172  49.982  0.00  0.00     0.049 H 
BRANCH  25  28
ATOM     28  C1  DSB d   1      21.090  91.097  49.053  0.00  0.00     0.172 C 
ATOM     29  O2  DSB d   1      22.183  90.944  48.462  0.00  0.00    -0.648 OA
ATOM     30  O1  DSB d   1      20.180  91.921  48.738  0.00  0.00    -0.648 OA
ENDBRANCH  25  28
ENDBRANCH  22  25
ENDBRANCH  19  22
ENDBRANCH   1  19
TORSDOF 9
