REMARK  7 active torsions:
REMARK  status: ('A' for Active; 'I' for Inactive)
REMARK    1  A    between atoms: S1_1  and  C5_5 
REMARK    2  A    between atoms: S1_1  and  N4_4 
REMARK    3  A    between atoms: C11_11  and  C16_16 
REMARK    4  A    between atoms: N12_12  and  C24_24 
REMARK    5  A    between atoms: C16_16  and  N22_22 
REMARK    6  A    between atoms: C28_28  and  O29_29 
REMARK    7  A    between atoms: O29_29  and  C30_30 
ROOT
ATOM      1  C5  INL d   1      -5.408   1.922  15.885  0.00  0.00     0.121 A 
ATOM      2  C6  INL d   1      -4.099   1.993  15.338  0.00  0.00    -0.045 A 
ATOM      3  C7  INL d   1      -3.932   3.205  14.594  0.00  0.00    -0.025 A 
ATOM      4  C8  INL d   1      -5.161   3.993  14.627  0.00  0.00     0.123 A 
ATOM      5  S9  INL d   1      -6.114   3.192  15.452  0.00  0.00    -0.063 SA
ATOM      6  C10 INL d   1      -2.785   3.762  13.890  0.00  0.00    -0.021 C 
ATOM      7  C11 INL d   1      -2.768   5.098  13.103  0.00  0.00     0.041 C 
ATOM      8  N12 INL d   1      -4.103   5.844  13.170  0.00  0.00    -0.165 NA
ATOM      9  S13 INL d   1      -5.193   5.387  14.085  0.00  0.00     0.255 S 
ATOM     10  O14 INL d   1      -5.053   6.298  15.123  0.00  0.00    -0.205 OA
ATOM     11  O15 INL d   1      -6.406   5.589  13.482  0.00  0.00    -0.205 OA
ATOM     12  H3  INL d   1      -3.330   1.232  15.466  0.00  0.00     0.087 H 
ATOM     13  H4  INL d   1      -2.491   2.993  13.161  0.00  0.00     0.042 H 
ATOM     14  H5  INL d   1      -1.999   3.865  14.652  0.00  0.00     0.042 H 
ATOM     15  H6  INL d   1      -2.365   5.627  13.979  0.00  0.00     0.069 H 
ENDROOT
BRANCH   7  16
ATOM     16  C16 INL d   1      -1.668   5.669  12.260  0.00  0.00     0.100 C 
ATOM     17  H7  INL d   1      -1.859   5.596  11.179  0.00  0.00     0.078 H 
ATOM     18  H8  INL d   1      -0.677   5.250  12.487  0.00  0.00     0.078 H 
BRANCH  16  19
ATOM     19  N22 INL d   1      -1.896   7.160  12.861  0.00  0.00    -0.066 N 
ATOM     20  C21 INL d   1      -1.870   7.186  14.457  0.00  0.00     0.103 C 
ATOM     21  C20 INL d   1      -2.137   8.585  14.993  0.00  0.00     0.042 C 
ATOM     22  H15 INL d   1      -0.881   6.852  14.805  0.00  0.00     0.079 H 
ATOM     23  H16 INL d   1      -2.643   6.503  14.839  0.00  0.00     0.079 H 
ATOM     24  O19 INL d   1      -1.294   9.678  14.334  0.00  0.00    -0.388 OA
ATOM     25  H13 INL d   1      -3.199   8.821  14.828  0.00  0.00     0.076 H 
ATOM     26  H14 INL d   1      -1.924   8.588  16.072  0.00  0.00     0.076 H 
ATOM     27  C18 INL d   1      -1.319   9.640  12.777  0.00  0.00     0.042 C 
ATOM     28  C17 INL d   1      -0.965   8.227  12.238  0.00  0.00     0.103 C 
ATOM     29  H11 INL d   1      -2.326   9.914  12.429  0.00  0.00     0.076 H 
ATOM     30  H12 INL d   1      -0.587  10.364  12.390  0.00  0.00     0.076 H 
ATOM     31  H9  INL d   1      -1.083   8.217  11.145  0.00  0.00     0.079 H 
ATOM     32  H10 INL d   1       0.078   7.992  12.496  0.00  0.00     0.079 H 
ATOM     33  H17 INL d   1      -2.832   7.423  12.594  0.00  0.00     0.280 HD
ENDBRANCH  16  19
ENDBRANCH   7  16
BRANCH   8  34
ATOM     34  C24 INL d   1      -4.591   5.990  11.812  0.00  0.00     0.028 A 
ATOM     35  C23 INL d   1      -5.290   7.176  11.422  0.00  0.00    -0.029 A 
ATOM     36  C28 INL d   1      -5.901   7.380  10.162  0.00  0.00     0.070 A 
ATOM     37  H18 INL d   1      -5.357   7.979  12.147  0.00  0.00     0.090 H 
ATOM     38  C27 INL d   1      -5.671   6.250   9.234  0.00  0.00    -0.051 A 
ATOM     39  C26 INL d   1      -4.980   4.962   9.499  0.00  0.00    -0.079 A 
ATOM     40  H21 INL d   1      -6.057   6.379   8.229  0.00  0.00     0.087 H 
ATOM     41  C25 INL d   1      -4.449   4.906  10.860  0.00  0.00    -0.061 A 
ATOM     42  H20 INL d   1      -4.882   4.163   8.773  0.00  0.00     0.083 H 
ATOM     43  H19 INL d   1      -3.924   4.011  11.172  0.00  0.00     0.086 H 
BRANCH  36  44
ATOM     44  O29 INL d   1      -6.600   8.487   9.815  0.00  0.00    -0.356 OA
BRANCH  44  45
ATOM     45  C30 INL d   1      -6.527   9.961  10.591  0.00  0.00     0.010 C 
ATOM     46  H22 INL d   1      -7.201  10.672  10.091  0.00  0.00     0.066 H 
ATOM     47  H23 INL d   1      -5.497  10.344  10.554  0.00  0.00     0.066 H 
ATOM     48  H24 INL d   1      -6.836   9.839  11.640  0.00  0.00     0.066 H 
ENDBRANCH  44  45
ENDBRANCH  36  44
ENDBRANCH   8  34
BRANCH   1  49
ATOM     49  S1  INL d   1      -5.943   0.690  16.743  0.00  0.00     0.263 S 
ATOM     50  O3  INL d   1      -7.327   0.710  16.795  0.00  0.00    -0.200 OA
ATOM     51  O2  INL d   1      -5.433   0.771  18.039  0.00  0.00    -0.200 OA
BRANCH  49  52
ATOM     52  N4  INL d   1      -5.445  -0.533  16.138  0.00  0.00    -0.324 N 
ATOM     53  H1  INL d   1      -5.677  -1.419  16.539  0.00  0.00     0.169 HD
ATOM     54  H2  INL d   1      -4.870  -0.489  15.321  0.00  0.00     0.169 HD
ENDBRANCH  49  52
ENDBRANCH   1  49
TORSDOF 7
