REMARK  8 active torsions:
REMARK  status: ('A' for Active; 'I' for Inactive)
REMARK    1  A    between atoms: N01_1  and  C08_8 
REMARK    2  A    between atoms: C06_6  and  N07_7 
REMARK    3  A    between atoms: C08_8  and  C09_9 
REMARK    4  A    between atoms: C09_9  and  C10_10 
REMARK    5  A    between atoms: C10_10  and  O11_11 
REMARK    6  A    between atoms: O11_11  and  C12_12 
REMARK    7  A    between atoms: C17_17  and  S18_18 
REMARK    8  A    between atoms: S18_18  and  N19_19 
ROOT
ATOM      1  N01 INM d   1      -3.807   6.124  13.362  0.00  0.00    -0.204 NA
ATOM      2  C02 INM d   1      -3.235   5.004  12.671  0.00  0.00     0.024 C 
ATOM      3  S03 INM d   1      -5.271   5.744  14.080  0.00  0.00     0.251 S 
ATOM      4  O04 INM d   1      -6.479   5.845  12.899  0.00  0.00    -0.205 OA
ATOM      5  O05 INM d   1      -5.633   6.801  15.337  0.00  0.00    -0.205 OA
ATOM      6  C06 INM d   1      -2.913   3.754  13.546  0.00  0.00     0.139 C 
ATOM      7  C13 INM d   1      -4.115   2.193  15.039  0.00  0.00    -0.043 A 
ATOM      8  C14 INM d   1      -4.017   3.323  14.324  0.00  0.00     0.005 A 
ATOM      9  C15 INM d   1      -5.196   4.131  14.612  0.00  0.00     0.125 A 
ATOM     10  S16 INM d   1      -6.029   3.430  15.472  0.00  0.00    -0.063 SA
ATOM     11  C17 INM d   1      -5.380   2.129  15.797  0.00  0.00     0.121 A 
ATOM     12  H1  INM d   1      -2.297   5.339  12.205  0.00  0.00     0.061 H 
ATOM     13  H2  INM d   1      -3.943   4.694  11.888  0.00  0.00     0.061 H 
ATOM     14  H3  INM d   1      -2.104   4.021  14.242  0.00  0.00     0.093 H 
ATOM     15  H16 INM d   1      -3.353   1.416  15.058  0.00  0.00     0.087 H 
ENDROOT
BRANCH   1  16
ATOM     16  C08 INM d   1      -2.862   6.784  14.281  0.00  0.00    -0.005 C 
ATOM     17  H7  INM d   1      -2.008   6.115  14.463  0.00  0.00     0.057 H 
ATOM     18  H8  INM d   1      -3.371   6.995  15.233  0.00  0.00     0.057 H 
BRANCH  16  19
ATOM     19  C09 INM d   1      -2.356   8.093  13.681  0.00  0.00    -0.033 C 
ATOM     20  H9  INM d   1      -3.215   8.755  13.498  0.00  0.00     0.037 H 
ATOM     21  H10 INM d   1      -1.851   7.875  12.728  0.00  0.00     0.037 H 
BRANCH  19  22
ATOM     22  C10 INM d   1      -1.380   8.802  14.600  0.00  0.00     0.020 C 
ATOM     23  H11 INM d   1      -0.511   8.153  14.782  0.00  0.00     0.074 H 
ATOM     24  H12 INM d   1      -1.875   9.028  15.556  0.00  0.00     0.074 H 
BRANCH  22  25
ATOM     25  O11 INM d   1      -0.949  10.009  13.994  0.00  0.00    -0.396 OA
BRANCH  25  26
ATOM     26  C12 INM d   1      -0.022  10.712  14.828  0.00  0.00     0.004 C 
ATOM     27  H13 INM d   1       0.290  11.641  14.328  0.00  0.00     0.066 H 
ATOM     28  H14 INM d   1       0.859  10.080  15.011  0.00  0.00     0.066 H 
ATOM     29  H15 INM d   1      -0.503  10.956  15.787  0.00  0.00     0.066 H 
ENDBRANCH  25  26
ENDBRANCH  22  25
ENDBRANCH  19  22
ENDBRANCH  16  19
ENDBRANCH   1  16
BRANCH   6  30
ATOM     30  N07 INM d   1      -2.424   2.686  12.649  0.00  0.00    -0.070 N 
ATOM     31  H4  INM d   1      -2.208   1.864  13.191  0.00  0.00     0.275 HD
ATOM     32  H5  INM d   1      -1.594   3.002  12.172  0.00  0.00     0.275 HD
ATOM     33  H6  INM d   1      -3.137   2.464  11.972  0.00  0.00     0.275 HD
ENDBRANCH   6  30
BRANCH  11  34
ATOM     34  S18 INM d   1      -5.892   0.959  16.702  0.00  0.00     0.263 S 
ATOM     35  O21 INM d   1      -7.160   1.245  17.171  0.00  0.00    -0.200 OA
ATOM     36  O20 INM d   1      -5.062   0.836  17.805  0.00  0.00    -0.200 OA
BRANCH  34  37
ATOM     37  N19 INM d   1      -5.839  -0.251  15.989  0.00  0.00    -0.324 N 
ATOM     38  H17 INM d   1      -6.133  -1.102  16.425  0.00  0.00     0.169 HD
ATOM     39  H18 INM d   1      -5.507  -0.261  15.046  0.00  0.00     0.169 HD
ENDBRANCH  34  37
ENDBRANCH  11  34
TORSDOF 8
