REMARK  6 active torsions:
REMARK  status: ('A' for Active; 'I' for Inactive)
REMARK    1  A    between atoms: S01_1  and  C04_4 
REMARK    2  A    between atoms: S01_1  and  N03_3 
REMARK    3  A    between atoms: C10_10  and  C15_15 
REMARK    4  A    between atoms: N11_11  and  C23_23 
REMARK    5  A    between atoms: C15_15  and  N21_21 
REMARK    6  A    between atoms: C27_27  and  O28_28 
ROOT
ATOM      1  C04 INQ d   1      -5.708   1.605  16.051  0.00  0.00     0.121 A 
ATOM      2  C05 INQ d   1      -4.421   1.746  15.399  0.00  0.00    -0.045 A 
ATOM      3  C06 INQ d   1      -4.317   2.999  14.728  0.00  0.00    -0.025 A 
ATOM      4  C07 INQ d   1      -5.549   3.779  14.902  0.00  0.00     0.123 A 
ATOM      5  S08 INQ d   1      -6.475   2.909  15.766  0.00  0.00    -0.063 SA
ATOM      6  C09 INQ d   1      -3.234   3.567  13.931  0.00  0.00    -0.021 A 
ATOM      7  C10 INQ d   1      -3.246   4.949  13.195  0.00  0.00     0.041 A 
ATOM      8  N11 INQ d   1      -4.566   5.719  13.399  0.00  0.00    -0.165 NA
ATOM      9  S12 INQ d   1      -5.682   5.179  14.285  0.00  0.00     0.255 S 
ATOM     10  O13 INQ d   1      -5.720   6.147  15.310  0.00  0.00    -0.205 OA
ATOM     11  O14 INQ d   1      -6.928   5.289  13.626  0.00  0.00    -0.205 OA
ATOM     12  H3  INQ d   1      -3.635   0.992  15.419  0.00  0.00     0.087 H 
ATOM     13  H4  INQ d   1      -3.039   2.825  13.143  0.00  0.00     0.042 H 
ATOM     14  H5  INQ d   1      -2.372   3.613  14.612  0.00  0.00     0.042 H 
ATOM     15  H6  INQ d   1      -2.780   5.423  14.071  0.00  0.00     0.069 H 
ENDROOT
BRANCH   7  16
ATOM     16  C15 INQ d   1      -2.168   5.583  12.310  0.00  0.00     0.100 C 
ATOM     17  H7  INQ d   1      -2.433   5.598  11.243  0.00  0.00     0.078 H 
ATOM     18  H8  INQ d   1      -1.176   5.124  12.435  0.00  0.00     0.078 H 
BRANCH  16  19
ATOM     19  N21 INQ d   1      -2.301   7.040  13.030  0.00  0.00    -0.066 N 
ATOM     20  C20 INQ d   1      -1.974   6.903  14.596  0.00  0.00     0.103 C 
ATOM     21  C19 INQ d   1      -2.066   8.232  15.339  0.00  0.00     0.042 C 
ATOM     22  H15 INQ d   1      -0.954   6.508  14.709  0.00  0.00     0.079 H 
ATOM     23  H16 INQ d   1      -2.691   6.200  15.044  0.00  0.00     0.079 H 
ATOM     24  O18 INQ d   1      -1.308   9.387  14.668  0.00  0.00    -0.388 OA
ATOM     25  H13 INQ d   1      -3.127   8.513  15.412  0.00  0.00     0.076 H 
ATOM     26  H14 INQ d   1      -1.654   8.091  16.349  0.00  0.00     0.076 H 
ATOM     27  C17 INQ d   1      -1.576   9.500  13.122  0.00  0.00     0.042 C 
ATOM     28  C16 INQ d   1      -1.374   8.122  12.399  0.00  0.00     0.103 C 
ATOM     29  H11 INQ d   1      -2.610   9.838  12.963  0.00  0.00     0.076 H 
ATOM     30  H12 INQ d   1      -0.879  10.235  12.692  0.00  0.00     0.076 H 
ATOM     31  H9  INQ d   1      -1.619   8.232  11.332  0.00  0.00     0.079 H 
ATOM     32  H10 INQ d   1      -0.325   7.807  12.504  0.00  0.00     0.079 H 
ATOM     33  H17 INQ d   1      -3.255   7.350  12.927  0.00  0.00     0.280 HD
ENDBRANCH  16  19
ENDBRANCH   7  16
BRANCH   8  34
ATOM     34  C23 INQ d   1      -5.120   5.927  12.043  0.00  0.00     0.028 A 
ATOM     35  C22 INQ d   1      -5.715   7.182  11.687  0.00  0.00    -0.029 A 
ATOM     36  C27 INQ d   1      -6.293   7.486  10.408  0.00  0.00     0.067 A 
ATOM     37  H18 INQ d   1      -5.730   7.961  12.441  0.00  0.00     0.090 H 
ATOM     38  C26 INQ d   1      -6.229   6.358   9.447  0.00  0.00    -0.051 A 
ATOM     39  C25 INQ d   1      -5.650   5.003   9.661  0.00  0.00    -0.079 A 
ATOM     40  H21 INQ d   1      -6.657   6.543   8.468  0.00  0.00     0.087 H 
ATOM     41  C24 INQ d   1      -5.093   4.851  11.033  0.00  0.00    -0.061 A 
ATOM     42  H20 INQ d   1      -5.636   4.222   8.909  0.00  0.00     0.083 H 
ATOM     43  H19 INQ d   1      -4.645   3.902  11.304  0.00  0.00     0.086 H 
BRANCH  36  44
ATOM     44  O28 INQ d   1      -6.886   8.878  10.106  0.00  0.00    -0.361 OA
ATOM     45  H22 INQ d   1      -6.209   9.537  10.202  0.00  0.00     0.217 HD
ENDBRANCH  36  44
ENDBRANCH   8  34
BRANCH   1  46
ATOM     46  S01 INQ d   1      -6.153   0.287  16.876  0.00  0.00     0.263 S 
ATOM     47  O29 INQ d   1      -5.509   0.298  18.119  0.00  0.00    -0.200 OA
ATOM     48  O02 INQ d   1      -7.528   0.336  17.062  0.00  0.00    -0.200 OA
BRANCH  46  49
ATOM     49  N03 INQ d   1      -5.796  -0.958  16.164  0.00  0.00    -0.324 N 
ATOM     50  H1  INQ d   1      -6.168  -1.137  15.253  0.00  0.00     0.169 HD
ATOM     51  H2  INQ d   1      -5.183  -1.621  16.593  0.00  0.00     0.169 HD
ENDBRANCH  46  49
ENDBRANCH   1  46
TORSDOF 6
