REMARK  5 active torsions:
REMARK  status: ('A' for Active; 'I' for Inactive)
REMARK    1  A    between atoms: C03_3  and  S11_11 
REMARK    2  A    between atoms: C06_6  and  C07_7 
REMARK       I    between atoms: C07_7  and  N09_9 
REMARK    3  A    between atoms: N09_9  and  C10_10 
REMARK    4  A    between atoms: C10_10  and  C15_15 
REMARK    5  A    between atoms: S11_11  and  NP2_12 
ROOT
ATOM      1  C07 INV d   1      -4.100   5.198  13.786  0.00  0.00     0.251 C 
ATOM      2  O08 INV d   1      -4.914   6.118  13.501  0.00  0.00    -0.268 OA
ATOM      3  N09 INV d   1      -2.712   5.296  13.369  0.00  0.00    -0.353 N 
ATOM      4  H5  INV d   1      -2.085   4.522  13.457  0.00  0.00     0.163 HD
ENDROOT
BRANCH   1   5
ATOM      5  C06 INV d   1      -4.660   4.001  14.577  0.00  0.00     0.032 A 
ATOM      6  C01 INV d   1      -3.788   2.957  14.913  0.00  0.00    -0.066 A 
ATOM      7  C02 INV d   1      -4.225   1.845  15.621  0.00  0.00    -0.059 A 
ATOM      8  H1  INV d   1      -2.748   3.019  14.613  0.00  0.00     0.085 H 
ATOM      9  C03 INV d   1      -5.613   1.756  16.018  0.00  0.00     0.079 A 
ATOM     10  H2  INV d   1      -3.532   1.051  15.874  0.00  0.00     0.085 H 
ATOM     11  C04 INV d   1      -6.477   2.804  15.680  0.00  0.00    -0.059 A 
ATOM     12  C05 INV d   1      -5.999   3.912  14.968  0.00  0.00    -0.066 A 
ATOM     13  H3  INV d   1      -7.520   2.758  15.970  0.00  0.00     0.085 H 
ATOM     14  H4  INV d   1      -6.681   4.716  14.715  0.00  0.00     0.085 H 
BRANCH   9  15
ATOM     15  S11 INV d   1      -6.083   0.274  16.931  0.00  0.00     0.256 S 
ATOM     16  O13 INV d   1      -7.513   0.488  17.122  0.00  0.00    -0.201 OA
ATOM     17  O14 INV d   1      -5.378   0.555  18.212  0.00  0.00    -0.201 OA
BRANCH  15  18
ATOM     18  NP2 INV d   1      -5.621  -1.168  16.160  0.00  0.00    -0.324 N 
ATOM     19  H8  INV d   1      -5.833  -2.050  16.581  0.00  0.00     0.169 HD
ATOM     20  H9  INV d   1      -5.137  -1.135  15.285  0.00  0.00     0.169 HD
ENDBRANCH  15  18
ENDBRANCH   9  15
ENDBRANCH   1   5
BRANCH   3  21
ATOM     21  C10 INV d   1      -2.278   6.559  12.822  0.00  0.00     0.019 C 
ATOM     22  H6  INV d   1      -3.183   7.084  12.483  0.00  0.00     0.071 H 
ATOM     23  H7  INV d   1      -1.643   6.326  11.955  0.00  0.00     0.071 H 
BRANCH  21  24
ATOM     24  C15 INV d   1      -1.564   7.461  13.609  0.00  0.00    -0.040 A 
ATOM     25  C16 INV d   1      -2.064   7.755  14.939  0.00  0.00    -0.072 A 
ATOM     26  C17 INV d   1      -1.329   8.703  15.759  0.00  0.00    -0.045 A 
ATOM     27  H10 INV d   1      -2.964   7.279  15.312  0.00  0.00     0.084 H 
ATOM     28  C18 INV d   1      -0.109   9.343  15.253  0.00  0.00     0.116 A 
ATOM     29  H11 INV d   1      -1.685   8.940  16.755  0.00  0.00     0.088 H 
ATOM     30  C19 INV d   1       0.378   9.030  13.921  0.00  0.00    -0.045 A 
ATOM     31  F21 INV d   1       0.574  10.235  16.039  0.00  0.00    -0.206 F 
ATOM     32  C20 INV d   1      -0.336   8.095  13.089  0.00  0.00    -0.072 A 
ATOM     33  H12 INV d   1       1.282   9.501  13.552  0.00  0.00     0.088 H 
ATOM     34  H13 INV d   1       0.024   7.860  12.094  0.00  0.00     0.084 H 
ENDBRANCH  21  24
ENDBRANCH   3  21
TORSDOF 5
