REMARK  5 active torsions:
REMARK  status: ('A' for Active; 'I' for Inactive)
REMARK    1  A    between atoms: C03_3  and  S11_11 
REMARK    2  A    between atoms: C06_6  and  C07_7 
REMARK       I    between atoms: C07_7  and  N09_9 
REMARK    3  A    between atoms: N09_9  and  C10_10 
REMARK    4  A    between atoms: C10_10  and  C15_15 
REMARK    5  A    between atoms: S11_11  and  NP2_12 
ROOT
ATOM      1  C07 INW d   1      -4.408   5.003  13.489  0.00  0.00     0.251 C 
ATOM      2  O08 INW d   1      -5.254   5.900  13.188  0.00  0.00    -0.268 OA
ATOM      3  N09 INW d   1      -3.002   5.092  13.013  0.00  0.00    -0.353 N 
ATOM      4  H5  INW d   1      -2.395   4.303  13.114  0.00  0.00     0.163 HD
ENDROOT
BRANCH   1   5
ATOM      5  C06 INW d   1      -4.905   3.816  14.350  0.00  0.00     0.032 A 
ATOM      6  C01 INW d   1      -3.968   2.804  14.674  0.00  0.00    -0.066 A 
ATOM      7  C02 INW d   1      -4.327   1.672  15.436  0.00  0.00    -0.059 A 
ATOM      8  H1  INW d   1      -2.946   2.902  14.326  0.00  0.00     0.085 H 
ATOM      9  C03 INW d   1      -5.706   1.544  15.894  0.00  0.00     0.079 A 
ATOM     10  H2  INW d   1      -3.592   0.912  15.676  0.00  0.00     0.085 H 
ATOM     11  C04 INW d   1      -6.627   2.537  15.588  0.00  0.00    -0.059 A 
ATOM     12  C05 INW d   1      -6.227   3.678  14.815  0.00  0.00    -0.066 A 
ATOM     13  H3  INW d   1      -7.651   2.450  15.934  0.00  0.00     0.085 H 
ATOM     14  H4  INW d   1      -6.955   4.447  14.585  0.00  0.00     0.085 H 
BRANCH   9  15
ATOM     15  S11 INW d   1      -6.079   0.092  16.813  0.00  0.00     0.256 S 
ATOM     16  O13 INW d   1      -7.459   0.368  16.998  0.00  0.00    -0.201 OA
ATOM     17  O14 INW d   1      -5.351   0.432  18.072  0.00  0.00    -0.201 OA
BRANCH  15  18
ATOM     18  NP2 INW d   1      -5.626  -1.367  16.073  0.00  0.00    -0.324 N 
ATOM     19  H8  INW d   1      -5.804  -2.237  16.532  0.00  0.00     0.169 HD
ATOM     20  H9  INW d   1      -5.181  -1.356  15.178  0.00  0.00     0.169 HD
ENDBRANCH  15  18
ENDBRANCH   9  15
ENDBRANCH   1   5
BRANCH   3  21
ATOM     21  C10 INW d   1      -2.506   6.293  12.411  0.00  0.00     0.022 C 
ATOM     22  H6  INW d   1      -3.381   6.844  12.035  0.00  0.00     0.071 H 
ATOM     23  H7  INW d   1      -1.874   5.986  11.565  0.00  0.00     0.071 H 
BRANCH  21  24
ATOM     24  C15 INW d   1      -1.755   7.197  13.167  0.00  0.00    -0.002 A 
ATOM     25  C16 INW d   1      -1.952   7.298  14.677  0.00  0.00     0.127 A 
ATOM     26  C17 INW d   1      -1.109   8.291  15.401  0.00  0.00    -0.008 A 
ATOM     27  F22 INW d   1      -2.760   6.611  15.296  0.00  0.00    -0.205 F 
ATOM     28  C18 INW d   1      -0.117   9.145  14.679  0.00  0.00     0.119 A 
ATOM     29  H10 INW d   1      -1.218   8.396  16.474  0.00  0.00     0.093 H 
ATOM     30  C19 INW d   1       0.051   9.021  13.201  0.00  0.00    -0.045 A 
ATOM     31  F21 INW d   1       0.568   9.959  15.307  0.00  0.00    -0.206 F 
ATOM     32  C20 INW d   1      -0.753   8.062  12.442  0.00  0.00    -0.069 A 
ATOM     33  H11 INW d   1       0.773   9.645  12.687  0.00  0.00     0.088 H 
ATOM     34  H12 INW d   1      -0.630   7.974  11.369  0.00  0.00     0.084 H 
ENDBRANCH  21  24
ENDBRANCH   3  21
TORSDOF 5
