REMARK  5 active torsions:
REMARK  status: ('A' for Active; 'I' for Inactive)
REMARK    1  A    between atoms: C03_3  and  S11_11 
REMARK    2  A    between atoms: C06_6  and  C07_7 
REMARK       I    between atoms: C07_7  and  N09_9 
REMARK    3  A    between atoms: N09_9  and  C10_10 
REMARK    4  A    between atoms: C10_10  and  C15_15 
REMARK    5  A    between atoms: S11_11  and  NP2_12 
ROOT
ATOM      1  C07 IOC d   1      -4.448   4.002  13.267  0.00  0.00     0.251 C 
ATOM      2  O08 IOC d   1      -5.333   4.829  12.884  0.00  0.00    -0.268 OA
ATOM      3  N09 IOC d   1      -3.039   4.148  12.844  0.00  0.00    -0.353 N 
ATOM      4  H5  IOC d   1      -2.429   3.356  12.822  0.00  0.00     0.163 HD
ENDROOT
BRANCH   1   5
ATOM      5  C06 IOC d   1      -4.900   2.855  14.179  0.00  0.00     0.032 A 
ATOM      6  C01 IOC d   1      -3.936   1.915  14.597  0.00  0.00    -0.066 A 
ATOM      7  C02 IOC d   1      -4.280   0.831  15.419  0.00  0.00    -0.059 A 
ATOM      8  H1  IOC d   1      -2.907   2.032  14.277  0.00  0.00     0.085 H 
ATOM      9  C03 IOC d   1      -5.659   0.669  15.850  0.00  0.00     0.079 A 
ATOM     10  H2  IOC d   1      -3.523   0.120  15.730  0.00  0.00     0.085 H 
ATOM     11  C04 IOC d   1      -6.601   1.606  15.441  0.00  0.00    -0.059 A 
ATOM     12  C05 IOC d   1      -6.215   2.694  14.607  0.00  0.00    -0.066 A 
ATOM     13  H3  IOC d   1      -7.633   1.508  15.758  0.00  0.00     0.085 H 
ATOM     14  H4  IOC d   1      -6.963   3.414  14.298  0.00  0.00     0.085 H 
BRANCH   9  15
ATOM     15  S11 IOC d   1      -6.032  -0.739  16.865  0.00  0.00     0.256 S 
ATOM     16  O13 IOC d   1      -7.449  -0.528  16.976  0.00  0.00    -0.201 OA
ATOM     17  O14 IOC d   1      -5.392  -0.299  18.136  0.00  0.00    -0.201 OA
BRANCH  15  18
ATOM     18  NP2 IOC d   1      -5.441  -2.226  16.246  0.00  0.00    -0.324 N 
ATOM     19  H8  IOC d   1      -5.602  -3.076  16.748  0.00  0.00     0.169 HD
ATOM     20  H9  IOC d   1      -4.936  -2.243  15.383  0.00  0.00     0.169 HD
ENDBRANCH  15  18
ENDBRANCH   9  15
ENDBRANCH   1   5
BRANCH   3  21
ATOM     21  C10 IOC d   1      -2.563   5.453  12.464  0.00  0.00     0.022 C 
ATOM     22  H6  IOC d   1      -3.445   6.016  12.125  0.00  0.00     0.071 H 
ATOM     23  H7  IOC d   1      -1.879   5.297  11.616  0.00  0.00     0.071 H 
BRANCH  21  24
ATOM     24  C15 IOC d   1      -1.881   6.296  13.372  0.00  0.00     0.001 A 
ATOM     25  C16 IOC d   1      -2.424   6.497  14.742  0.00  0.00     0.166 A 
ATOM     26  C17 IOC d   1      -1.665   7.400  15.649  0.00  0.00     0.193 A 
ATOM     27  F22 IOC d   1      -3.458   5.951  15.127  0.00  0.00    -0.202 F 
ATOM     28  C18 IOC d   1      -0.422   8.069  15.204  0.00  0.00     0.158 A 
ATOM     29  F23 IOC d   1      -2.133   7.609  16.910  0.00  0.00    -0.200 F 
ATOM     30  C19 IOC d   1       0.100   7.850  13.834  0.00  0.00    -0.042 A 
ATOM     31  F21 IOC d   1       0.186   8.815  15.981  0.00  0.00    -0.203 F 
ATOM     32  C20 IOC d   1      -0.611   6.976  12.922  0.00  0.00    -0.069 A 
ATOM     33  H10 IOC d   1       1.012   8.342  13.515  0.00  0.00     0.088 H 
ATOM     34  H11 IOC d   1      -0.232   6.811  11.920  0.00  0.00     0.084 H 
ENDBRANCH  21  24
ENDBRANCH   3  21
TORSDOF 5
