REMARK  5 active torsions:
REMARK  status: ('A' for Active; 'I' for Inactive)
REMARK    1  A    between atoms: C03_3  and  S11_11 
REMARK    2  A    between atoms: C06_6  and  C07_7 
REMARK       I    between atoms: C07_7  and  N09_9 
REMARK    3  A    between atoms: N09_9  and  C10_10 
REMARK    4  A    between atoms: C10_10  and  C15_15 
REMARK    5  A    between atoms: S11_11  and  NP2_12 
ROOT
ATOM      1  C07 NON d   1      -4.006   5.489  13.513  0.00  0.00     0.251 C 
ATOM      2  O08 NON d   1      -4.827   6.347  13.227  0.00  0.00    -0.268 OA
ATOM      3  N09 NON d   1      -2.629   5.678  13.098  0.00  0.00    -0.353 N 
ATOM      4  H5  NON d   1      -1.931   4.986  13.283  0.00  0.00     0.163 HD
ENDROOT
BRANCH   1   5
ATOM      5  C06 NON d   1      -4.578   4.318  14.317  0.00  0.00     0.032 A 
ATOM      6  C01 NON d   1      -3.772   3.267  14.729  0.00  0.00    -0.066 A 
ATOM      7  C02 NON d   1      -4.266   2.206  15.484  0.00  0.00    -0.059 A 
ATOM      8  H1  NON d   1      -2.723   3.272  14.454  0.00  0.00     0.085 H 
ATOM      9  C03 NON d   1      -5.634   2.166  15.859  0.00  0.00     0.079 A 
ATOM     10  H2  NON d   1      -3.601   1.405  15.787  0.00  0.00     0.085 H 
ATOM     11  C04 NON d   1      -6.441   3.222  15.435  0.00  0.00    -0.059 A 
ATOM     12  C05 NON d   1      -5.911   4.276  14.676  0.00  0.00    -0.066 A 
ATOM     13  H3  NON d   1      -7.493   3.228  15.696  0.00  0.00     0.085 H 
ATOM     14  H4  NON d   1      -6.566   5.080  14.362  0.00  0.00     0.085 H 
BRANCH   9  15
ATOM     15  S11 NON d   1      -6.187   0.766  16.850  0.00  0.00     0.256 S 
ATOM     16  O13 NON d   1      -7.589   1.063  16.986  0.00  0.00    -0.201 OA
ATOM     17  O14 NON d   1      -5.518   0.977  18.132  0.00  0.00    -0.201 OA
BRANCH  15  18
ATOM     18  NP2 NON d   1      -5.818  -0.669  16.117  0.00  0.00    -0.324 N 
ATOM     19  H8  NON d   1      -6.066  -1.533  16.555  0.00  0.00     0.169 HD
ATOM     20  H9  NON d   1      -5.346  -0.673  15.235  0.00  0.00     0.169 HD
ENDBRANCH  15  18
ENDBRANCH   9  15
ENDBRANCH   1   5
BRANCH   3  21
ATOM     21  C10 NON d   1      -2.297   6.941  12.387  0.00  0.00     0.019 C 
ATOM     22  H6  NON d   1      -3.245   7.392  12.059  0.00  0.00     0.071 H 
ATOM     23  H7  NON d   1      -1.694   6.674  11.507  0.00  0.00     0.071 H 
BRANCH  21  24
ATOM     24  C15 NON d   1      -1.569   7.952  13.118  0.00  0.00    -0.034 A 
ATOM     25  C16 NON d   1      -0.544   8.765  12.490  0.00  0.00    -0.035 A 
ATOM     26  C17 NON d   1       0.150   9.757  13.303  0.00  0.00     0.158 A 
ATOM     27  H10 NON d   1      -0.300   8.638  11.441  0.00  0.00     0.089 H 
ATOM     28  C18 NON d   1      -0.177   9.921  14.687  0.00  0.00     0.193 A 
ATOM     29  F21 NON d   1       1.102  10.522  12.750  0.00  0.00    -0.203 F 
ATOM     30  C19 NON d   1      -1.188   9.115  15.296  0.00  0.00     0.158 A 
ATOM     31  F22 NON d   1       0.465  10.835  15.426  0.00  0.00    -0.200 F 
ATOM     32  C20 NON d   1      -1.879   8.141  14.530  0.00  0.00    -0.035 A 
ATOM     33  F23 NON d   1      -1.499   9.262  16.590  0.00  0.00    -0.203 F 
ATOM     34  H11 NON d   1      -2.644   7.532  14.998  0.00  0.00     0.089 H 
ENDBRANCH  21  24
ENDBRANCH   3  21
TORSDOF 5
