REMARK  19 active torsions:
REMARK  status: ('A' for Active; 'I' for Inactive)
REMARK    1  A    between atoms: C_1  and  CH3_3 
REMARK       I    between atoms: C_1  and  N_4 
REMARK    2  A    between atoms: N_4  and  CA_5 
REMARK    3  A    between atoms: CA_5  and  C_6 
REMARK    4  A    between atoms: CA_5  and  CB_8 
REMARK       I    between atoms: C_6  and  N_18 
REMARK    5  A    between atoms: CB_8  and  CG_9 
REMARK    6  A    between atoms: N_18  and  CA_19 
REMARK    7  A    between atoms: CA_19  and  C_20 
REMARK    8  A    between atoms: CA_19  and  CB_22 
REMARK       I    between atoms: C_20  and  N_27 
REMARK    9  A    between atoms: CB_22  and  CG_23 
REMARK   10  A    between atoms: CG_23  and  CD_24 
REMARK   11  A    between atoms: N_27  and  CA_28 
REMARK   12  A    between atoms: CA_28  and  C_29 
REMARK   13  A    between atoms: CA_28  and  CB_31 
REMARK       I    between atoms: C_29  and  N_37 
REMARK   14  A    between atoms: CB_31  and  CG_32 
REMARK   15  A    between atoms: N_37  and  CA_38 
REMARK   16  A    between atoms: CA_38  and  C_39 
REMARK   17  A    between atoms: CA_38  and  CB_41 
REMARK   18  A    between atoms: C_39  and  O_40 
REMARK   19  A    between atoms: CB_41  and  CG_42 
ROOT
ATOM      1  CA  GLU d   1      32.487  65.654   9.113  0.00  0.00     0.090 C 
ATOM      2  H15 GLU d   1      31.960  65.285  10.005  0.00  0.00     0.087 H 
ENDROOT
BRANCH   1   3
ATOM      3  N   GLU d   1      33.026  66.973   9.423  0.00  0.00    -0.346 N 
ATOM      4  C   TRP d   1      32.667  67.617  10.526  0.00  0.00     0.241 C 
ATOM      5  O   TRP d   1      31.889  67.141  11.350  0.00  0.00    -0.271 OA
ATOM      6  H14 GLU d   1      33.677  67.399   8.794  0.00  0.00     0.163 HD
BRANCH   4   7
ATOM      7  CA  TRP d   1      33.262  68.995  10.749  0.00  0.00     0.093 C 
ATOM      8  H5  TRP d   1      33.437  69.493   9.784  0.00  0.00     0.088 H 
BRANCH   7   9
ATOM      9  N   TRP d   1      32.284  69.753  11.529  0.00  0.00    -0.348 N 
ATOM     10  C   ACE d   1      31.802  70.931  11.146  0.00  0.00     0.214 C 
ATOM     11  O   ACE d   1      32.191  71.528  10.143  0.00  0.00    -0.274 OA
ATOM     12  H4  TRP d   1      31.962  69.366  12.393  0.00  0.00     0.163 HD
BRANCH  10  13
ATOM     13  CH3 ACE d   1      30.783  71.570  12.060  0.00  0.00    -0.003 C 
ATOM     14  H1  ACE d   1      30.562  70.889  12.895  0.00  0.00     0.040 H 
ATOM     15  H2  ACE d   1      29.860  71.771  11.497  0.00  0.00     0.040 H 
ATOM     16  H3  ACE d   1      31.185  72.515  12.454  0.00  0.00     0.040 H 
ENDBRANCH  10  13
ENDBRANCH   7   9
BRANCH   7  17
ATOM     17  CB  TRP d   1      34.588  68.867  11.499  0.00  0.00    -0.012 C 
ATOM     18  H6  TRP d   1      35.174  68.062  11.032  0.00  0.00     0.044 H 
ATOM     19  H7  TRP d   1      34.371  68.604  12.545  0.00  0.00     0.044 H 
BRANCH  17  20
ATOM     20  CG  TRP d   1      35.410  70.116  11.488  0.00  0.00    -0.028 A 
ATOM     21  CD1 TRP d   1      35.223  71.225  12.256  0.00  0.00    -0.015 A 
ATOM     22  NE1 TRP d   1      36.167  72.177  11.954  0.00  0.00    -0.365 N 
ATOM     23  H8  TRP d   1      34.438  71.341  13.002  0.00  0.00     0.112 H 
ATOM     24  CE2 TRP d   1      36.990  71.694  10.972  0.00  0.00     0.042 A 
ATOM     25  H9  TRP d   1      36.243  73.105  12.395  0.00  0.00     0.165 HD
ATOM     26  CD2 TRP d   1      36.544  70.391  10.655  0.00  0.00    -0.002 A 
ATOM     27  CZ2 TRP d   1      38.085  72.292  10.335  0.00  0.00    -0.056 A 
ATOM     28  CE3 TRP d   1      37.223  69.669   9.664  0.00  0.00    -0.070 A 
ATOM     29  CZ3 TRP d   1      38.312  70.263   9.029  0.00  0.00    -0.082 A 
ATOM     30  H10 TRP d   1      36.907  68.667   9.396  0.00  0.00     0.084 H 
ATOM     31  CH2 TRP d   1      38.729  71.564   9.369  0.00  0.00    -0.081 A 
ATOM     32  H12 TRP d   1      38.846  69.715   8.261  0.00  0.00     0.083 H 
ATOM     33  H13 TRP d   1      39.578  71.999   8.855  0.00  0.00     0.083 H 
ATOM     34  H11 TRP d   1      38.410  73.292  10.596  0.00  0.00     0.086 H 
ENDBRANCH  17  20
ENDBRANCH   7  17
ENDBRANCH   4   7
ENDBRANCH   1   3
BRANCH   1  35
ATOM     35  C   GLU d   1      33.574  64.647   8.754  0.00  0.00     0.241 C 
ATOM     36  O   GLU d   1      34.759  64.972   8.737  0.00  0.00    -0.271 OA
ATOM     37  N   HIS d   1      33.151  63.417   8.483  0.00  0.00    -0.346 N 
ATOM     38  H20 HIS d   1      32.172  63.222   8.541  0.00  0.00     0.163 HD
BRANCH  37  39
ATOM     39  CA  HIS d   1      34.055  62.343   8.106  0.00  0.00     0.094 C 
ATOM     40  H21 HIS d   1      35.074  62.584   8.444  0.00  0.00     0.088 H 
BRANCH  39  41
ATOM     41  C   HIS d   1      34.028  62.181   6.596  0.00  0.00     0.241 C 
ATOM     42  O   HIS d   1      32.954  62.159   5.986  0.00  0.00    -0.271 OA
ATOM     43  N   ASA d   1      35.208  62.092   6.000  0.00  0.00    -0.352 N 
ATOM     44  H27 ASA d   1      36.040  62.170   6.549  0.00  0.00     0.163 HD
BRANCH  43  45
ATOM     45  CA  ASA d   1      35.319  61.884   4.571  0.00  0.00     0.041 C 
ATOM     46  H28 ASA d   1      34.376  62.180   4.088  0.00  0.00     0.076 H 
BRANCH  45  47
ATOM     47  C   ASA d   1      35.573  60.408   4.317  0.00  0.00     0.036 C 
ATOM     48  H29 ASA d   1      35.965  59.939   5.231  0.00  0.00     0.077 H 
ATOM     49  H30 ASA d   1      36.305  60.295   3.503  0.00  0.00     0.077 H 
BRANCH  47  50
ATOM     50  O   ASA d   1      34.346  59.781   3.947  0.00  0.00    -0.399 OA
ATOM     51  H31 ASA d   1      34.009  60.188   3.158  0.00  0.00     0.209 HD
ENDBRANCH  47  50
ENDBRANCH  45  47
BRANCH  45  52
ATOM     52  CB  ASA d   1      36.459  62.723   3.989  0.00  0.00     0.036 C 
ATOM     53  H32 ASA d   1      37.298  62.055   3.746  0.00  0.00     0.052 H 
ATOM     54  H33 ASA d   1      36.780  63.454   4.746  0.00  0.00     0.052 H 
BRANCH  52  55
ATOM     55  CG  ASA d   1      36.054  63.474   2.729  0.00  0.00     0.174 C 
ATOM     56  OD1 ASA d   1      34.905  63.944   2.653  0.00  0.00    -0.648 OA
ATOM     57  OD2 ASA d   1      36.890  63.600   1.811  0.00  0.00    -0.648 OA
ENDBRANCH  52  55
ENDBRANCH  45  52
ENDBRANCH  43  45
ENDBRANCH  39  41
BRANCH  39  58
ATOM     58  CB  HIS d   1      33.605  61.014   8.719  0.00  0.00     0.002 C 
ATOM     59  H22 HIS d   1      34.215  60.210   8.281  0.00  0.00     0.046 H 
ATOM     60  H23 HIS d   1      32.548  60.856   8.458  0.00  0.00     0.046 H 
BRANCH  58  61
ATOM     61  CG  HIS d   1      33.735  60.941  10.208  0.00  0.00     0.030 A 
ATOM     62  ND1 HIS d   1      34.378  61.908  10.952  0.00  0.00    -0.353 N 
ATOM     63  CE1 HIS d   1      34.346  61.568  12.228  0.00  0.00     0.063 A 
ATOM     64  H24 HIS d   1      34.814  62.761  10.573  0.00  0.00     0.166 HD
ATOM     65  NE2 HIS d   1      33.707  60.418  12.339  0.00  0.00    -0.254 NA
ATOM     66  H26 HIS d   1      34.774  62.140  13.050  0.00  0.00     0.143 H 
ATOM     67  CD2 HIS d   1      33.313  60.006  11.089  0.00  0.00     0.025 A 
ATOM     68  H25 HIS d   1      32.763  59.096  10.852  0.00  0.00     0.117 H 
ENDBRANCH  58  61
ENDBRANCH  39  58
ENDBRANCH  37  39
ENDBRANCH   1  35
BRANCH   1  69
ATOM     69  CB  GLU d   1      31.483  65.749   7.956  0.00  0.00    -0.029 C 
ATOM     70  H16 GLU d   1      31.117  64.734   7.741  0.00  0.00     0.037 H 
ATOM     71  H17 GLU d   1      32.016  66.140   7.077  0.00  0.00     0.037 H 
BRANCH  69  72
ATOM     72  CG  GLU d   1      30.270  66.642   8.205  0.00  0.00     0.018 C 
ATOM     73  H18 GLU d   1      30.622  67.658   8.438  0.00  0.00     0.049 H 
ATOM     74  H19 GLU d   1      29.708  66.243   9.062  0.00  0.00     0.049 H 
BRANCH  72  75
ATOM     75  CD  GLU d   1      29.340  66.711   7.002  0.00  0.00     0.172 C 
ATOM     76  OE1 GLU d   1      29.035  65.651   6.409  0.00  0.00    -0.648 OA
ATOM     77  OE2 GLU d   1      28.912  67.829   6.646  0.00  0.00    -0.648 OA
ENDBRANCH  72  75
ENDBRANCH  69  72
ENDBRANCH   1  69
TORSDOF 19
