REMARK  14 active torsions:
REMARK  status: ('A' for Active; 'I' for Inactive)
REMARK    1  A    between atoms: C1_1  and  O1_30 
REMARK    2  A    between atoms: O3_31  and  C3_3 
REMARK    3  A    between atoms: C5_5  and  O5_32 
REMARK    4  A    between atoms: C10_10  and  C19_19 
REMARK    5  A    between atoms: C11_11  and  O11_33 
REMARK    6  A    between atoms: C13_13  and  C18_18 
REMARK    7  A    between atoms: C14_14  and  O14_34 
REMARK    8  A    between atoms: C17_17  and  C20_20 
REMARK    9  A    between atoms: C19_19  and  O19_35 
REMARK   10  A    between atoms: C1'_24  and  O3_31 
REMARK   11  A    between atoms: C2'_25  and  O2'_38 
REMARK   12  A    between atoms: C3'_26  and  O3'_39 
REMARK   13  A    between atoms: C4'_27  and  O4'_40 
REMARK   14  A    between atoms: C5'_28  and  C6'_29 
ROOT
ATOM      1  C1  OBN d   1       6.971  11.837  41.951  0.00  0.00     0.050 C 
ATOM      2  C2  OBN d   1       5.956  11.967  43.068  0.00  0.00    -0.016 C 
ATOM      3  C3  OBN d   1       5.424  10.621  43.544  0.00  0.00     0.046 C 
ATOM      4  C4  OBN d   1       5.039   9.694  42.375  0.00  0.00    -0.011 C 
ATOM      5  C5  OBN d   1       5.952   9.664  41.111  0.00  0.00     0.073 C 
ATOM      6  C6  OBN d   1       5.201   9.017  39.930  0.00  0.00    -0.035 C 
ATOM      7  C7  OBN d   1       3.869   9.732  39.706  0.00  0.00    -0.056 C 
ATOM      8  C8  OBN d   1       4.156  11.136  39.215  0.00  0.00    -0.017 C 
ATOM      9  C9  OBN d   1       4.977  11.961  40.221  0.00  0.00    -0.008 C 
ATOM     10  C10 OBN d   1       6.303  11.167  40.690  0.00  0.00     0.044 C 
ATOM     11  C11 OBN d   1       5.137  13.402  39.633  0.00  0.00     0.041 C 
ATOM     12  C12 OBN d   1       3.819  14.064  39.249  0.00  0.00    -0.031 C 
ATOM     13  C13 OBN d   1       3.065  13.300  38.165  0.00  0.00    -0.003 C 
ATOM     14  C14 OBN d   1       2.900  11.825  38.633  0.00  0.00     0.070 C 
ATOM     15  C15 OBN d   1       1.705  11.933  39.561  0.00  0.00    -0.035 C 
ATOM     16  C16 OBN d   1       0.873  13.138  39.116  0.00  0.00    -0.055 C 
ATOM     17  C17 OBN d   1       1.648  13.870  38.043  0.00  0.00    -0.020 C 
ATOM     18  H1  OBN d   1       7.304  12.846  41.668  0.00  0.00     0.084 H 
ATOM     19  H2  OBN d   1       5.111  12.570  42.706  0.00  0.00     0.040 H 
ATOM     20  H3  OBN d   1       6.433  12.477  43.918  0.00  0.00     0.040 H 
ATOM     21  H4  OBN d   1       4.491  10.832  44.088  0.00  0.00     0.083 H 
ATOM     22  H5  OBN d   1       4.034   9.993  42.042  0.00  0.00     0.041 H 
ATOM     23  H6  OBN d   1       5.003   8.669  42.773  0.00  0.00     0.041 H 
ATOM     24  H7  OBN d   1       5.013   7.957  40.154  0.00  0.00     0.037 H 
ATOM     25  H8  OBN d   1       5.815   9.096  39.020  0.00  0.00     0.037 H 
ATOM     26  H9  OBN d   1       3.308   9.777  40.651  0.00  0.00     0.033 H 
ATOM     27  H10 OBN d   1       3.278   9.189  38.954  0.00  0.00     0.033 H 
ATOM     28  H11 OBN d   1       4.826  11.009  38.352  0.00  0.00     0.045 H 
ATOM     29  H12 OBN d   1       4.369  12.071  41.131  0.00  0.00     0.046 H 
ATOM     30  H13 OBN d   1       5.714  13.280  38.705  0.00  0.00     0.083 H 
ATOM     31  H14 OBN d   1       4.030  15.079  38.881  0.00  0.00     0.038 H 
ATOM     32  H15 OBN d   1       3.182  14.123  40.144  0.00  0.00     0.038 H 
ATOM     33  H16 OBN d   1       2.047  12.077  40.596  0.00  0.00     0.037 H 
ATOM     34  H17 OBN d   1       1.099  11.017  39.499  0.00  0.00     0.037 H 
ATOM     35  H18 OBN d   1       0.697  13.807  39.971  0.00  0.00     0.034 H 
ATOM     36  H19 OBN d   1      -0.092  12.797  38.713  0.00  0.00     0.034 H 
ATOM     37  H20 OBN d   1       1.702  14.933  38.322  0.00  0.00     0.048 H 
ENDROOT
BRANCH   3  38
ATOM     38  O3  OBN d   1       6.290  10.008  44.471  0.00  0.00    -0.353 OA
BRANCH  38  39
ATOM     39  C1' OBN d   1       5.748   8.991  45.353  0.00  0.00     0.159 C 
ATOM     40  C2' OBN d   1       6.918   8.356  46.113  0.00  0.00     0.110 C 
ATOM     41  C3' OBN d   1       7.665   9.474  46.885  0.00  0.00     0.092 C 
ATOM     42  H30 OBN d   1       7.614   7.877  45.409  0.00  0.00     0.094 H 
ATOM     43  C4' OBN d   1       6.746  10.100  47.939  0.00  0.00     0.087 C 
ATOM     44  H31 OBN d   1       7.905  10.257  46.151  0.00  0.00     0.091 H 
ATOM     45  C5' OBN d   1       5.356  10.459  47.376  0.00  0.00     0.065 C 
ATOM     46  H32 OBN d   1       6.640   9.425  48.801  0.00  0.00     0.091 H 
ATOM     47  O5' OBN d   1       4.858   9.494  46.394  0.00  0.00    -0.351 OA
ATOM     48  H33 OBN d   1       5.420  11.448  46.899  0.00  0.00     0.086 H 
ATOM     49  H29 OBN d   1       5.218   8.240  44.748  0.00  0.00     0.133 H 
BRANCH  40  50
ATOM     50  O2' OBN d   1       6.360   7.353  46.995  0.00  0.00    -0.388 OA
ATOM     51  H42 OBN d   1       5.742   7.763  47.588  0.00  0.00     0.210 HD
ENDBRANCH  40  50
BRANCH  41  52
ATOM     52  O3' OBN d   1       8.921   9.067  47.478  0.00  0.00    -0.390 OA
ATOM     53  H43 OBN d   1       9.354   9.825  47.852  0.00  0.00     0.210 HD
ENDBRANCH  41  52
BRANCH  43  54
ATOM     54  O4' OBN d   1       7.372  11.331  48.314  0.00  0.00    -0.390 OA
ATOM     55  H44 OBN d   1       8.235  11.151  48.667  0.00  0.00     0.210 HD
ENDBRANCH  43  54
BRANCH  45  56
ATOM     56  C6' OBN d   1       4.348  10.506  48.518  0.00  0.00    -0.050 C 
ATOM     57  H34 OBN d   1       3.355  10.762  48.120  0.00  0.00     0.031 H 
ATOM     58  H35 OBN d   1       4.657  11.267  49.249  0.00  0.00     0.031 H 
ATOM     59  H36 OBN d   1       4.304   9.523  49.009  0.00  0.00     0.031 H 
ENDBRANCH  45  56
ENDBRANCH  38  39
ENDBRANCH   3  38
BRANCH   1  60
ATOM     60  O1  OBN d   1       8.127  11.092  42.391  0.00  0.00    -0.395 OA
ATOM     61  H37 OBN d   1       7.864  10.209  42.621  0.00  0.00     0.210 HD
ENDBRANCH   1  60
BRANCH   5  62
ATOM     62  O5  OBN d   1       7.116   8.812  41.382  0.00  0.00    -0.389 OA
ATOM     63  H38 OBN d   1       7.611   9.175  42.107  0.00  0.00     0.210 HD
ENDBRANCH   5  62
BRANCH  10  64
ATOM     64  C19 OBN d   1       7.371  11.037  39.568  0.00  0.00     0.029 C 
ATOM     65  H24 OBN d   1       6.854  10.901  38.607  0.00  0.00     0.075 H 
ATOM     66  H25 OBN d   1       7.992  10.154  39.778  0.00  0.00     0.075 H 
BRANCH  64  67
ATOM     67  O19 OBN d   1       8.233  12.191  39.466  0.00  0.00    -0.400 OA
ATOM     68  H41 OBN d   1       8.693  12.315  40.288  0.00  0.00     0.209 HD
ENDBRANCH  64  67
ENDBRANCH  10  64
BRANCH  11  69
ATOM     69  O11 OBN d   1       5.871  14.302  40.454  0.00  0.00    -0.395 OA
ATOM     70  H39 OBN d   1       6.696  13.902  40.701  0.00  0.00     0.210 HD
ENDBRANCH  11  69
BRANCH  14  71
ATOM     71  O14 OBN d   1       2.433  11.051  37.519  0.00  0.00    -0.389 OA
ATOM     72  H40 OBN d   1       3.066  11.101  36.812  0.00  0.00     0.210 HD
ENDBRANCH  14  71
BRANCH  13  73
ATOM     73  C18 OBN d   1       3.859  13.412  36.863  0.00  0.00    -0.066 C 
ATOM     74  H21 OBN d   1       4.864  12.989  37.009  0.00  0.00     0.028 H 
ATOM     75  H22 OBN d   1       3.945  14.470  36.576  0.00  0.00     0.028 H 
ATOM     76  H23 OBN d   1       3.340  12.857  36.068  0.00  0.00     0.028 H 
ENDBRANCH  13  73
BRANCH  17  77
ATOM     77  C20 OBN d   1       0.968  13.847  36.691  0.00  0.00    -0.045 A 
ATOM     78  C21 OBN d   1       0.909  15.020  35.767  0.00  0.00     0.050 A 
ATOM     79  O21 OBN d   1       0.012  14.614  34.691  0.00  0.00    -0.314 OA
ATOM     80  H26 OBN d   1       1.909  15.249  35.370  0.00  0.00     0.082 H 
ATOM     81  H27 OBN d   1       0.511  15.903  36.289  0.00  0.00     0.082 H 
ATOM     82  C23 OBN d   1      -0.301  13.327  34.826  0.00  0.00     0.283 A 
ATOM     83  C22 OBN d   1       0.277  12.856  36.079  0.00  0.00    -0.006 A 
ATOM     84  O23 OBN d   1      -1.019  12.769  33.996  0.00  0.00    -0.260 OA
ATOM     85  H28 OBN d   1       0.168  11.845  36.469  0.00  0.00     0.093 H 
ENDBRANCH  17  77
TORSDOF 14
