REMARK  27 active torsions:
REMARK  status: ('A' for Active; 'I' for Inactive)
REMARK    1  A    between atoms: O1_1  and  C2_2 
REMARK    2  A    between atoms: C2_2  and  C3_3 
REMARK    3  A    between atoms: C3_3  and  O4_4 
REMARK    4  A    between atoms: O4_4  and  C5_5 
REMARK    5  A    between atoms: C5_5  and  C6_6 
REMARK    6  A    between atoms: C6_6  and  O7_7 
REMARK    7  A    between atoms: O7_7  and  C8_8 
REMARK    8  A    between atoms: C8_8  and  C9_9 
REMARK    9  A    between atoms: C9_9  and  O10_10 
REMARK   10  A    between atoms: O10_10  and  C11_11 
REMARK   11  A    between atoms: C11_11  and  C12_12 
REMARK   12  A    between atoms: C12_12  and  O13_13 
REMARK   13  A    between atoms: O13_13  and  C14_14 
REMARK   14  A    between atoms: C14_14  and  C15_15 
REMARK   15  A    between atoms: C15_15  and  O16_16 
REMARK   16  A    between atoms: O16_16  and  C17_17 
REMARK   17  A    between atoms: C17_17  and  C18_18 
REMARK   18  A    between atoms: C18_18  and  O19_19 
REMARK   19  A    between atoms: O19_19  and  C20_20 
REMARK   20  A    between atoms: C20_20  and  C21_21 
REMARK   21  A    between atoms: C21_21  and  O22_22 
REMARK   22  A    between atoms: O22_22  and  C23_23 
REMARK   23  A    between atoms: C23_23  and  C24_24 
REMARK   24  A    between atoms: C24_24  and  O25_25 
REMARK   25  A    between atoms: O25_25  and  C26_26 
REMARK   26  A    between atoms: C26_26  and  C27_27 
REMARK   27  A    between atoms: C27_27  and  O28_28 
ROOT
ATOM      1  C14 PGO d   1      39.219  37.243  71.572  0.00  0.00     0.039 C 
ATOM      2  H18 PGO d   1      39.799  36.865  70.717  0.00  0.00     0.077 H 
ATOM      3  H19 PGO d   1      39.724  36.966  72.509  0.00  0.00     0.077 H 
ENDROOT
BRANCH   1   4
ATOM      4  O13 PGO d   1      37.912  36.672  71.550  0.00  0.00    -0.387 OA
BRANCH   4   5
ATOM      5  C12 PGO d   1      37.941  35.451  70.821  0.00  0.00     0.039 C 
ATOM      6  H16 PGO d   1      38.516  35.588  69.893  0.00  0.00     0.077 H 
ATOM      7  H17 PGO d   1      38.412  34.667  71.432  0.00  0.00     0.077 H 
BRANCH   5   8
ATOM      8  C11 PGO d   1      36.527  35.052  70.486  0.00  0.00     0.039 C 
ATOM      9  H14 PGO d   1      36.013  35.898  70.005  0.00  0.00     0.077 H 
ATOM     10  H15 PGO d   1      36.543  34.194  69.798  0.00  0.00     0.077 H 
BRANCH   8  11
ATOM     11  O10 PGO d   1      35.830  34.690  71.680  0.00  0.00    -0.387 OA
BRANCH  11  12
ATOM     12  C9  PGO d   1      35.291  35.863  72.286  0.00  0.00     0.039 C 
ATOM     13  H12 PGO d   1      35.993  36.238  73.045  0.00  0.00     0.077 H 
ATOM     14  H13 PGO d   1      35.137  36.634  71.517  0.00  0.00     0.077 H 
BRANCH  12  15
ATOM     15  C8  PGO d   1      33.958  35.533  72.947  0.00  0.00     0.039 C 
ATOM     16  H10 PGO d   1      33.437  34.759  72.365  0.00  0.00     0.077 H 
ATOM     17  H11 PGO d   1      34.131  35.168  73.970  0.00  0.00     0.077 H 
BRANCH  15  18
ATOM     18  O7  PGO d   1      33.162  36.727  72.987  0.00  0.00    -0.387 OA
BRANCH  18  19
ATOM     19  C6  PGO d   1      32.982  37.134  74.359  0.00  0.00     0.039 C 
ATOM     20  H8  PGO d   1      31.924  37.021  74.636  0.00  0.00     0.077 H 
ATOM     21  H9  PGO d   1      33.602  36.501  75.011  0.00  0.00     0.077 H 
BRANCH  19  22
ATOM     22  C5  PGO d   1      33.403  38.619  74.535  0.00  0.00     0.039 C 
ATOM     23  H6  PGO d   1      34.077  38.909  73.715  0.00  0.00     0.077 H 
ATOM     24  H7  PGO d   1      32.508  39.259  74.518  0.00  0.00     0.077 H 
BRANCH  22  25
ATOM     25  O4  PGO d   1      34.080  38.776  75.789  0.00  0.00    -0.387 OA
BRANCH  25  26
ATOM     26  C3  PGO d   1      33.265  39.542  76.691  0.00  0.00     0.039 C 
ATOM     27  H4  PGO d   1      33.869  40.348  77.134  0.00  0.00     0.077 H 
ATOM     28  H5  PGO d   1      32.420  39.979  76.138  0.00  0.00     0.077 H 
BRANCH  26  29
ATOM     29  C2  PGO d   1      32.722  38.625  77.821  0.00  0.00     0.036 C 
ATOM     30  H2  PGO d   1      33.516  37.935  78.143  0.00  0.00     0.077 H 
ATOM     31  H3  PGO d   1      32.407  39.245  78.673  0.00  0.00     0.077 H 
BRANCH  29  32
ATOM     32  O1  PGO d   1      31.593  37.864  77.340  0.00  0.00    -0.399 OA
ATOM     33  H1  PGO d   1      31.268  37.307  78.037  0.00  0.00     0.209 HD
ENDBRANCH  29  32
ENDBRANCH  26  29
ENDBRANCH  25  26
ENDBRANCH  22  25
ENDBRANCH  19  22
ENDBRANCH  18  19
ENDBRANCH  15  18
ENDBRANCH  12  15
ENDBRANCH  11  12
ENDBRANCH   8  11
ENDBRANCH   5   8
ENDBRANCH   4   5
ENDBRANCH   1   4
BRANCH   1  34
ATOM     34  C15 PGO d   1      39.110  38.776  71.481  0.00  0.00     0.039 C 
ATOM     35  H20 PGO d   1      38.608  39.047  70.540  0.00  0.00     0.077 H 
ATOM     36  H21 PGO d   1      40.120  39.211  71.496  0.00  0.00     0.077 H 
BRANCH  34  37
ATOM     37  O16 PGO d   1      38.354  39.302  72.587  0.00  0.00    -0.387 OA
BRANCH  37  38
ATOM     38  C17 PGO d   1      37.191  39.960  72.086  0.00  0.00     0.039 C 
ATOM     39  H22 PGO d   1      36.408  39.215  71.885  0.00  0.00     0.077 H 
ATOM     40  H23 PGO d   1      37.443  40.488  71.155  0.00  0.00     0.077 H 
BRANCH  38  41
ATOM     41  C18 PGO d   1      36.681  40.967  73.120  0.00  0.00     0.039 C 
ATOM     42  H24 PGO d   1      36.815  41.987  72.731  0.00  0.00     0.077 H 
ATOM     43  H25 PGO d   1      37.252  40.852  74.053  0.00  0.00     0.077 H 
BRANCH  41  44
ATOM     44  O19 PGO d   1      35.287  40.737  73.384  0.00  0.00    -0.387 OA
BRANCH  44  45
ATOM     45  C20 PGO d   1      34.498  41.164  72.256  0.00  0.00     0.039 C 
ATOM     46  H26 PGO d   1      33.539  40.624  72.258  0.00  0.00     0.077 H 
ATOM     47  H27 PGO d   1      35.042  40.942  71.326  0.00  0.00     0.077 H 
BRANCH  45  48
ATOM     48  C21 PGO d   1      34.229  42.682  72.339  0.00  0.00     0.039 C 
ATOM     49  H28 PGO d   1      34.041  43.074  71.329  0.00  0.00     0.077 H 
ATOM     50  H29 PGO d   1      35.107  43.184  72.770  0.00  0.00     0.077 H 
BRANCH  48  51
ATOM     51  O22 PGO d   1      33.079  42.935  73.170  0.00  0.00    -0.387 OA
BRANCH  51  52
ATOM     52  C23 PGO d   1      33.481  43.630  74.365  0.00  0.00     0.039 C 
ATOM     53  H30 PGO d   1      34.539  43.415  74.575  0.00  0.00     0.077 H 
ATOM     54  H31 PGO d   1      32.864  43.292  75.210  0.00  0.00     0.077 H 
BRANCH  52  55
ATOM     55  C24 PGO d   1      33.295  45.146  74.169  0.00  0.00     0.039 C 
ATOM     56  H32 PGO d   1      33.579  45.671  75.093  0.00  0.00     0.077 H 
ATOM     57  H33 PGO d   1      32.241  45.357  73.936  0.00  0.00     0.077 H 
BRANCH  55  58
ATOM     58  O25 PGO d   1      34.131  45.608  73.077  0.00  0.00    -0.387 OA
BRANCH  58  59
ATOM     59  C26 PGO d   1      33.324  46.278  72.070  0.00  0.00     0.039 C 
ATOM     60  H34 PGO d   1      33.547  47.355  72.089  0.00  0.00     0.077 H 
ATOM     61  H35 PGO d   1      32.260  46.120  72.298  0.00  0.00     0.077 H 
BRANCH  59  62
ATOM     62  C27 PGO d   1      33.627  45.722  70.655  0.00  0.00     0.036 C 
ATOM     63  H36 PGO d   1      34.627  45.265  70.648  0.00  0.00     0.077 H 
ATOM     64  H37 PGO d   1      33.594  46.544  69.924  0.00  0.00     0.077 H 
BRANCH  62  65
ATOM     65  O28 PGO d   1      32.646  44.731  70.304  0.00  0.00    -0.399 OA
ATOM     66  H38 PGO d   1      32.675  44.021  70.935  0.00  0.00     0.209 HD
ENDBRANCH  62  65
ENDBRANCH  59  62
ENDBRANCH  58  59
ENDBRANCH  55  58
ENDBRANCH  52  55
ENDBRANCH  51  52
ENDBRANCH  48  51
ENDBRANCH  45  48
ENDBRANCH  44  45
ENDBRANCH  41  44
ENDBRANCH  38  41
ENDBRANCH  37  38
ENDBRANCH  34  37
ENDBRANCH   1  34
TORSDOF 27
