REMARK  21 active torsions:
REMARK  status: ('A' for Active; 'I' for Inactive)
REMARK    1  A    between atoms: C_11  and  C2_2 
REMARK       I    between atoms: N_13  and  C_11 
REMARK    2  A    between atoms: CA_14  and  N_13 
REMARK    3  A    between atoms: CA_14  and  CB_17 
REMARK    4  A    between atoms: C_15  and  CA_14 
REMARK       I    between atoms: N3_31  and  C_15 
REMARK    5  A    between atoms: CB_17  and  CG2_19 
REMARK    6  A    between atoms: CB_17  and  CG1_18 
REMARK    7  A    between atoms: C1_20  and  C2_21 
REMARK    8  A    between atoms: N1_32  and  C1_20 
REMARK    9  A    between atoms: C2_21  and  C3_22 
REMARK   10  A    between atoms: C2_21  and  O2_30 
REMARK   11  A    between atoms: C3_22  and  C4_23 
REMARK   12  A    between atoms: C3_22  and  N3_31 
REMARK   13  A    between atoms: C4_23  and  C1'_24 
REMARK   14  A    between atoms: C2_33  and  C_38 
REMARK   15  A    between atoms: S_52  and  C4_35 
REMARK       I    between atoms: C_38  and  N_40 
REMARK   16  A    between atoms: N_40  and  C1'_41 
REMARK   17  A    between atoms: C1'_41  and  C2'_42 
REMARK   18  A    between atoms: C1'_41  and  C3'_43 
REMARK   19  A    between atoms: C1'_41  and  C4'_44 
REMARK   20  A    between atoms: C_51  and  C3_47 
REMARK   21  A    between atoms: S_52  and  C_51 
ROOT
ATOM      1  C2  0PO d   1      53.476  23.861   3.800  0.00  0.00     0.078 C 
ATOM      2  H18 0PO d   1      53.886  23.044   4.413  0.00  0.00     0.088 H 
ENDROOT
BRANCH   1   3
ATOM      3  C1  0PO d   1      53.585  23.442   2.356  0.00  0.00     0.110 C 
ATOM      4  H16 0PO d   1      54.569  23.732   1.958  0.00  0.00     0.080 H 
ATOM      5  H17 0PO d   1      52.793  23.928   1.767  0.00  0.00     0.080 H 
BRANCH   3   6
ATOM      6  N1  0PO d   1      53.434  22.009   2.287  0.00  0.00    -0.056 N 
ATOM      7  C2  0PO d   1      52.969  21.589   0.934  0.00  0.00     0.181 C 
ATOM      8  C3  0PO d   1      52.812  20.088   0.910  0.00  0.00    -0.018 C 
ATOM      9  H30 0PO d   1      53.756  21.859   0.215  0.00  0.00     0.100 H 
ATOM     10  C4  0PO d   1      53.830  19.219   1.650  0.00  0.00    -0.005 C 
ATOM     11  H31 0PO d   1      52.833  19.779  -0.146  0.00  0.00     0.038 H 
ATOM     12  H32 0PO d   1      51.825  19.861   1.338  0.00  0.00     0.038 H 
ATOM     13  C5  0PO d   1      54.089  19.760   3.015  0.00  0.00    -0.031 C 
ATOM     14  H33 0PO d   1      54.789  19.243   1.111  0.00  0.00     0.056 H 
ATOM     15  C6  0PO d   1      54.556  21.193   2.813  0.00  0.00     0.086 C 
ATOM     16  H34 0PO d   1      54.869  19.171   3.519  0.00  0.00     0.037 H 
ATOM     17  H35 0PO d   1      53.168  19.739   3.616  0.00  0.00     0.037 H 
ATOM     18  H36 0PO d   1      54.892  21.608   3.775  0.00  0.00     0.076 H 
ATOM     19  H37 0PO d   1      55.389  21.209   2.095  0.00  0.00     0.076 H 
ATOM     20  H29 0PO d   1      52.667  21.802   2.908  0.00  0.00     0.281 HD
BRANCH   7  21
ATOM     21  C   0PO d   1      51.699  22.285   0.486  0.00  0.00     0.249 C 
ATOM     22  O   0PO d   1      50.762  22.369   1.324  0.00  0.00    -0.271 OA
ATOM     23  N   0PO d   1      51.794  22.703  -0.847  0.00  0.00    -0.351 N 
ATOM     24  H38 0PO d   1      52.649  22.517  -1.331  0.00  0.00     0.163 HD
BRANCH  23  25
ATOM     25  C1' 0PO d   1      50.768  23.370  -1.561  0.00  0.00     0.022 C 
BRANCH  25  26
ATOM     26  C2' 0PO d   1      51.296  23.725  -2.943  0.00  0.00    -0.054 C 
ATOM     27  H39 0PO d   1      50.512  24.244  -3.513  0.00  0.00     0.030 H 
ATOM     28  H40 0PO d   1      51.586  22.805  -3.472  0.00  0.00     0.030 H 
ATOM     29  H41 0PO d   1      52.173  24.382  -2.843  0.00  0.00     0.030 H 
ENDBRANCH  25  26
BRANCH  25  30
ATOM     30  C3' 0PO d   1      50.378  24.628  -0.837  0.00  0.00    -0.054 C 
ATOM     31  H42 0PO d   1      49.581  25.141  -1.396  0.00  0.00     0.030 H 
ATOM     32  H43 0PO d   1      51.253  25.290  -0.755  0.00  0.00     0.030 H 
ATOM     33  H44 0PO d   1      50.014  24.374   0.170  0.00  0.00     0.030 H 
ENDBRANCH  25  30
BRANCH  25  34
ATOM     34  C4' 0PO d   1      49.539  22.476  -1.771  0.00  0.00    -0.054 C 
ATOM     35  H45 0PO d   1      48.771  23.033  -2.328  0.00  0.00     0.030 H 
ATOM     36  H46 0PO d   1      49.135  22.172  -0.794  0.00  0.00     0.030 H 
ATOM     37  H47 0PO d   1      49.829  21.582  -2.342  0.00  0.00     0.030 H 
ENDBRANCH  25  34
ENDBRANCH  23  25
ENDBRANCH   7  21
BRANCH  10  38
ATOM     38  S   0PO d   1      53.165  17.535   1.534  0.00  0.00    -0.160 SA
BRANCH  38  39
ATOM     39  C   0PO d   1      52.196  17.437  -0.023  0.00  0.00     0.002 C 
ATOM     40  H52 0PO d   1      51.132  17.259   0.191  0.00  0.00     0.056 H 
ATOM     41  H53 0PO d   1      52.303  18.363  -0.607  0.00  0.00     0.056 H 
BRANCH  39  42
ATOM     42  C3  0PO d   1      52.785  16.289  -0.747  0.00  0.00    -0.031 A 
ATOM     43  C2  0PO d   1      54.166  16.348  -1.032  0.00  0.00     0.009 A 
ATOM     44  N1  0PO d   1      54.803  15.285  -1.579  0.00  0.00    -0.273 NA
ATOM     45  H48 0PO d   1      54.722  17.252  -0.811  0.00  0.00     0.115 H 
ATOM     46  C6  0PO d   1      54.121  14.172  -1.859  0.00  0.00     0.002 A 
ATOM     47  C5  0PO d   1      52.749  14.046  -1.565  0.00  0.00    -0.066 A 
ATOM     48  H51 0PO d   1      54.638  13.341  -2.326  0.00  0.00     0.114 H 
ATOM     49  C4  0PO d   1      52.064  15.129  -0.997  0.00  0.00    -0.073 A 
ATOM     50  H50 0PO d   1      52.227  13.119  -1.776  0.00  0.00     0.085 H 
ATOM     51  H49 0PO d   1      51.008  15.063  -0.761  0.00  0.00     0.084 H 
ENDBRANCH  39  42
ENDBRANCH  38  39
ENDBRANCH  10  38
ENDBRANCH   3   6
ENDBRANCH   1   3
BRANCH   1  52
ATOM     52  C3  0PO d   1      52.077  24.124   4.310  0.00  0.00     0.042 C 
ATOM     53  H19 0PO d   1      51.448  23.281   3.989  0.00  0.00     0.077 H 
BRANCH  52  54
ATOM     54  C4  0PO d   1      51.416  25.416   3.784  0.00  0.00    -0.020 C 
ATOM     55  H20 0PO d   1      51.266  25.321   2.698  0.00  0.00     0.043 H 
ATOM     56  H21 0PO d   1      52.084  26.265   3.989  0.00  0.00     0.043 H 
BRANCH  54  57
ATOM     57  C1' 0PO d   1      50.083  25.676   4.439  0.00  0.00    -0.056 A 
ATOM     58  C2' 0PO d   1      48.984  24.875   4.135  0.00  0.00    -0.077 A 
ATOM     59  C3' 0PO d   1      47.728  25.078   4.725  0.00  0.00    -0.082 A 
ATOM     60  H22 0PO d   1      49.104  24.069   3.420  0.00  0.00     0.084 H 
ATOM     61  C4' 0PO d   1      47.573  26.064   5.697  0.00  0.00    -0.083 A 
ATOM     62  H23 0PO d   1      46.882  24.470   4.426  0.00  0.00     0.083 H 
ATOM     63  C5' 0PO d   1      48.647  26.911   5.971  0.00  0.00    -0.082 A 
ATOM     64  H24 0PO d   1      46.635  26.171   6.230  0.00  0.00     0.083 H 
ATOM     65  C6' 0PO d   1      49.893  26.702   5.364  0.00  0.00    -0.077 A 
ATOM     66  H25 0PO d   1      48.517  27.738   6.659  0.00  0.00     0.083 H 
ATOM     67  H26 0PO d   1      50.724  27.350   5.618  0.00  0.00     0.084 H 
ENDBRANCH  54  57
ENDBRANCH  52  54
BRANCH  52  68
ATOM     68  N3  0PO d   1      52.099  24.156   5.772  0.00  0.00    -0.352 N 
ATOM     69  C   0PO d   1      51.549  23.162   6.461  0.00  0.00     0.241 C 
ATOM     70  O   0PO d   1      50.944  22.248   5.909  0.00  0.00    -0.271 OA
ATOM     71  H28 0PO d   1      52.526  24.923   6.251  0.00  0.00     0.163 HD
BRANCH  69  72
ATOM     72  CA  0PO d   1      51.611  23.277   7.960  0.00  0.00     0.092 C 
ATOM     73  H8  0PO d   1      52.449  23.946   8.207  0.00  0.00     0.088 H 
BRANCH  72  74
ATOM     74  N   0PO d   1      50.385  23.952   8.354  0.00  0.00    -0.342 N 
ATOM     75  C   0PO d   1      50.306  25.111   9.052  0.00  0.00     0.271 C 
ATOM     76  O1  0PO d   1      51.343  25.706   9.447  0.00  0.00    -0.266 OA
ATOM     77  H7  0PO d   1      49.523  23.523   8.086  0.00  0.00     0.163 HD
BRANCH  75  78
ATOM     78  C2  0PO d   1      48.963  25.591   9.245  0.00  0.00     0.125 A 
ATOM     79  N1  0PO d   1      47.878  24.858   8.901  0.00  0.00    -0.243 NA
ATOM     80  C10 0PO d   1      46.599  25.246   8.967  0.00  0.00     0.068 A 
ATOM     81  C8  0PO d   1      45.572  24.401   8.586  0.00  0.00    -0.054 A 
ATOM     82  C9  0PO d   1      46.317  26.495   9.414  0.00  0.00    -0.007 A 
ATOM     83  C7  0PO d   1      44.240  24.815   8.726  0.00  0.00    -0.081 A 
ATOM     84  H6  0PO d   1      45.797  23.421   8.180  0.00  0.00     0.087 H 
ATOM     85  C6  0PO d   1      43.939  26.077   9.166  0.00  0.00    -0.082 A 
ATOM     86  H5  0PO d   1      43.438  24.128   8.483  0.00  0.00     0.083 H 
ATOM     87  C5  0PO d   1      44.976  26.917   9.512  0.00  0.00    -0.071 A 
ATOM     88  H4  0PO d   1      42.909  26.407   9.240  0.00  0.00     0.083 H 
ATOM     89  H3  0PO d   1      44.756  27.918   9.865  0.00  0.00     0.084 H 
ATOM     90  C4  0PO d   1      47.371  27.324   9.794  0.00  0.00    -0.068 A 
ATOM     91  C3  0PO d   1      48.690  26.880   9.682  0.00  0.00    -0.049 A 
ATOM     92  H2  0PO d   1      47.166  28.317  10.178  0.00  0.00     0.085 H 
ATOM     93  H1  0PO d   1      49.506  27.546   9.938  0.00  0.00     0.087 H 
ENDBRANCH  75  78
ENDBRANCH  72  74
BRANCH  72  94
ATOM     94  CB  0PO d   1      51.901  21.964   8.691  0.00  0.00    -0.033 C 
ATOM     95  H9  0PO d   1      51.029  21.302   8.581  0.00  0.00     0.042 H 
BRANCH  94  96
ATOM     96  CG2 0PO d   1      52.119  22.239  10.190  0.00  0.00    -0.071 C 
ATOM     97  H13 0PO d   1      51.233  22.742  10.603  0.00  0.00     0.028 H 
ATOM     98  H14 0PO d   1      53.001  22.884  10.320  0.00  0.00     0.028 H 
ATOM     99  H15 0PO d   1      52.279  21.287  10.718  0.00  0.00     0.028 H 
ENDBRANCH  94  96
BRANCH  94 100
ATOM    100  CG1 0PO d   1      53.110  21.267   8.086  0.00  0.00    -0.071 C 
ATOM    101  H10 0PO d   1      53.300  20.328   8.626  0.00  0.00     0.028 H 
ATOM    102  H11 0PO d   1      53.990  21.922   8.169  0.00  0.00     0.028 H 
ATOM    103  H12 0PO d   1      52.914  21.048   7.026  0.00  0.00     0.028 H 
ENDBRANCH  94 100
ENDBRANCH  72  94
ENDBRANCH  69  72
ENDBRANCH  52  68
ENDBRANCH   1  52
BRANCH   1 104
ATOM    104  O2  0PO d   1      54.314  25.013   3.961  0.00  0.00    -0.392 OA
ATOM    105  H27 0PO d   1      53.946  25.741   3.474  0.00  0.00     0.210 HD
ENDBRANCH   1 104
TORSDOF 21
