REMARK  19 active torsions:
REMARK  status: ('A' for Active; 'I' for Inactive)
REMARK    1  A    between atoms: C1_1  and  C2_2 
REMARK       I    between atoms: N_14  and  C1_1 
REMARK    2  A    between atoms: C2_2  and  O1'_12 
REMARK    3  A    between atoms: O1'_12  and  C1'_3 
REMARK    4  A    between atoms: C2'_4  and  CM2_9 
REMARK    5  A    between atoms: C6'_8  and  CM6_10 
REMARK    6  A    between atoms: C_23  and  CM_13 
REMARK    7  A    between atoms: CM_13  and  N1_25 
REMARK    8  A    between atoms: N_14  and  CA_15 
REMARK    9  A    between atoms: CA_15  and  CB_16 
REMARK   10  A    between atoms: CA_15  and  C_23 
REMARK   11  A    between atoms: CB_16  and  CG_17 
REMARK   12  A    between atoms: C_23  and  O_24 
REMARK   13  A    between atoms: C2_26  and  C_31 
REMARK   14  A    between atoms: C4_28  and  S_44 
REMARK       I    between atoms: C_31  and  N_33 
REMARK   15  A    between atoms: N_33  and  C1'_34 
REMARK   16  A    between atoms: C1'_34  and  C2'_35 
REMARK   17  A    between atoms: C1'_34  and  C3'_36 
REMARK   18  A    between atoms: C1'_34  and  C4'_37 
REMARK   19  A    between atoms: S_44  and  C4_41 
ROOT
ATOM      1  CM  0DO d   1      53.528  23.702   2.373  0.00  0.00     0.110 C 
ATOM      2  H12 0DO d   1      54.556  23.970   2.087  0.00  0.00     0.080 H 
ATOM      3  H13 0DO d   1      52.816  24.262   1.749  0.00  0.00     0.080 H 
ENDROOT
BRANCH   1   4
ATOM      4  C   0DO d   1      53.291  23.988   3.841  0.00  0.00     0.078 C 
ATOM      5  H23 0DO d   1      53.725  23.148   4.403  0.00  0.00     0.088 H 
BRANCH   4   6
ATOM      6  CA  0DO d   1      51.855  24.122   4.345  0.00  0.00     0.042 C 
ATOM      7  H15 0DO d   1      51.272  23.347   3.826  0.00  0.00     0.077 H 
BRANCH   6   8
ATOM      8  N   0DO d   1      51.832  23.814   5.772  0.00  0.00    -0.352 N 
ATOM      9  C1  0DO d   1      51.143  22.698   6.146  0.00  0.00     0.242 C 
ATOM     10  O1  0DO d   1      50.564  21.953   5.352  0.00  0.00    -0.271 OA
ATOM     11  H14 0DO d   1      52.298  24.392   6.442  0.00  0.00     0.163 HD
BRANCH   9  12
ATOM     12  C2  0DO d   1      51.118  22.353   7.627  0.00  0.00     0.099 C 
ATOM     13  H1  0DO d   1      51.429  21.308   7.773  0.00  0.00     0.089 H 
ATOM     14  H2  0DO d   1      50.103  22.493   8.027  0.00  0.00     0.089 H 
BRANCH  12  15
ATOM     15  O1' 0DO d   1      52.031  23.232   8.297  0.00  0.00    -0.341 OA
BRANCH  15  16
ATOM     16  C1' 0DO d   1      51.808  23.445   9.592  0.00  0.00     0.081 A 
ATOM     17  C2' 0DO d   1      51.083  24.555  10.058  0.00  0.00    -0.028 A 
ATOM     18  C3' 0DO d   1      50.917  24.795  11.423  0.00  0.00    -0.074 A 
ATOM     19  C4' 0DO d   1      51.521  23.948  12.354  0.00  0.00    -0.082 A 
ATOM     20  H3  0DO d   1      50.321  25.636  11.759  0.00  0.00     0.084 H 
ATOM     21  C5' 0DO d   1      52.296  22.882  11.885  0.00  0.00    -0.074 A 
ATOM     22  H4  0DO d   1      51.392  24.113  13.418  0.00  0.00     0.083 H 
ATOM     23  C6' 0DO d   1      52.447  22.612  10.519  0.00  0.00    -0.028 A 
ATOM     24  H5  0DO d   1      52.797  22.243  12.603  0.00  0.00     0.084 H 
BRANCH  17  25
ATOM     25  CM2 0DO d   1      50.432  25.523   9.140  0.00  0.00    -0.049 C 
ATOM     26  H6  0DO d   1      50.632  25.232   8.098  0.00  0.00     0.033 H 
ATOM     27  H7  0DO d   1      50.835  26.530   9.323  0.00  0.00     0.033 H 
ATOM     28  H8  0DO d   1      49.347  25.525   9.319  0.00  0.00     0.033 H 
ENDBRANCH  17  25
BRANCH  23  29
ATOM     29  CM6 0DO d   1      53.298  21.438  10.039  0.00  0.00    -0.049 C 
ATOM     30  H9  0DO d   1      53.286  21.402   8.940  0.00  0.00     0.033 H 
ATOM     31  H10 0DO d   1      52.889  20.500  10.441  0.00  0.00     0.033 H 
ATOM     32  H11 0DO d   1      54.332  21.567  10.390  0.00  0.00     0.033 H 
ENDBRANCH  23  29
ENDBRANCH  15  16
ENDBRANCH  12  15
ENDBRANCH   9  12
ENDBRANCH   6   8
BRANCH   6  33
ATOM     33  CB  0DO d   1      51.129  25.453   4.072  0.00  0.00    -0.020 C 
ATOM     34  H16 0DO d   1      51.091  25.606   2.983  0.00  0.00     0.043 H 
ATOM     35  H17 0DO d   1      51.711  26.263   4.536  0.00  0.00     0.043 H 
BRANCH  33  36
ATOM     36  CG  0DO d   1      49.700  25.522   4.614  0.00  0.00    -0.056 A 
ATOM     37  CD1 0DO d   1      48.598  25.042   3.891  0.00  0.00    -0.077 A 
ATOM     38  CE1 0DO d   1      47.295  25.126   4.399  0.00  0.00    -0.082 A 
ATOM     39  H18 0DO d   1      48.758  24.596   2.916  0.00  0.00     0.084 H 
ATOM     40  CZ  0DO d   1      47.052  25.694   5.649  0.00  0.00    -0.083 A 
ATOM     41  H20 0DO d   1      46.466  24.745   3.813  0.00  0.00     0.083 H 
ATOM     42  CE2 0DO d   1      48.126  26.207   6.373  0.00  0.00    -0.082 A 
ATOM     43  H22 0DO d   1      46.046  25.736   6.050  0.00  0.00     0.083 H 
ATOM     44  CD2 0DO d   1      49.425  26.091   5.861  0.00  0.00    -0.077 A 
ATOM     45  H21 0DO d   1      47.958  26.693   7.327  0.00  0.00     0.083 H 
ATOM     46  H19 0DO d   1      50.252  26.458   6.457  0.00  0.00     0.084 H 
ENDBRANCH  33  36
ENDBRANCH   6  33
ENDBRANCH   4   6
BRANCH   4  47
ATOM     47  O   0DO d   1      54.046  25.140   4.117  0.00  0.00    -0.392 OA
ATOM     48  H24 0DO d   1      54.931  25.023   3.791  0.00  0.00     0.210 HD
ENDBRANCH   4  47
ENDBRANCH   1   4
BRANCH   1  49
ATOM     49  N1  0DO d   1      53.320  22.303   2.236  0.00  0.00    -0.056 N 
ATOM     50  C2  0DO d   1      52.800  21.846   0.915  0.00  0.00     0.181 C 
ATOM     51  C3  0DO d   1      52.721  20.351   0.932  0.00  0.00    -0.013 C 
ATOM     52  H26 0DO d   1      53.553  22.137   0.168  0.00  0.00     0.100 H 
ATOM     53  C4  0DO d   1      53.873  19.637   1.538  0.00  0.00     0.053 C 
ATOM     54  H27 0DO d   1      52.625  20.009  -0.109  0.00  0.00     0.038 H 
ATOM     55  H28 0DO d   1      51.819  20.070   1.495  0.00  0.00     0.038 H 
ATOM     56  C5  0DO d   1      54.040  20.114   2.908  0.00  0.00    -0.026 C 
ATOM     57  H29 0DO d   1      54.799  19.837   0.978  0.00  0.00     0.064 H 
ATOM     58  C6  0DO d   1      54.486  21.548   2.708  0.00  0.00     0.086 C 
ATOM     59  H30 0DO d   1      54.806  19.531   3.441  0.00  0.00     0.037 H 
ATOM     60  H31 0DO d   1      53.091  20.067   3.463  0.00  0.00     0.037 H 
ATOM     61  H32 0DO d   1      54.846  21.967   3.659  0.00  0.00     0.076 H 
ATOM     62  H33 0DO d   1      55.291  21.591   1.960  0.00  0.00     0.076 H 
ATOM     63  H25 0DO d   1      52.580  22.085   2.885  0.00  0.00     0.281 HD
BRANCH  50  64
ATOM     64  C   0DO d   1      51.494  22.425   0.439  0.00  0.00     0.249 C 
ATOM     65  O   0DO d   1      50.470  22.293   1.175  0.00  0.00    -0.271 OA
ATOM     66  N   0DO d   1      51.659  22.931  -0.841  0.00  0.00    -0.351 N 
ATOM     67  H34 0DO d   1      52.547  22.829  -1.289  0.00  0.00     0.163 HD
BRANCH  66  68
ATOM     68  C1' 0DO d   1      50.621  23.583  -1.533  0.00  0.00     0.022 C 
BRANCH  68  69
ATOM     69  C2' 0DO d   1      51.097  24.074  -2.921  0.00  0.00    -0.054 C 
ATOM     70  H35 0DO d   1      50.266  24.578  -3.436  0.00  0.00     0.030 H 
ATOM     71  H36 0DO d   1      51.432  23.214  -3.519  0.00  0.00     0.030 H 
ATOM     72  H37 0DO d   1      51.931  24.779  -2.794  0.00  0.00     0.030 H 
ENDBRANCH  68  69
BRANCH  68  73
ATOM     73  C3' 0DO d   1      50.175  24.821  -0.752  0.00  0.00    -0.054 C 
ATOM     74  H38 0DO d   1      49.364  25.326  -1.297  0.00  0.00     0.030 H 
ATOM     75  H39 0DO d   1      51.025  25.509  -0.639  0.00  0.00     0.030 H 
ATOM     76  H40 0DO d   1      49.815  24.517   0.242  0.00  0.00     0.030 H 
ENDBRANCH  68  73
BRANCH  68  77
ATOM     77  C4' 0DO d   1      49.435  22.629  -1.724  0.00  0.00    -0.054 C 
ATOM     78  H41 0DO d   1      48.630  23.148  -2.265  0.00  0.00     0.030 H 
ATOM     79  H42 0DO d   1      49.065  22.303  -0.741  0.00  0.00     0.030 H 
ATOM     80  H43 0DO d   1      49.760  21.752  -2.303  0.00  0.00     0.030 H 
ENDBRANCH  68  77
ENDBRANCH  66  68
ENDBRANCH  50  64
BRANCH  53  81
ATOM     81  S   0DO d   1      53.447  17.919   1.387  0.00  0.00     0.179 S 
ATOM     82  O1S 0DO d   1      52.263  17.581   2.075  0.00  0.00    -0.222 OA
ATOM     83  O2S 0DO d   1      54.250  17.196   2.284  0.00  0.00    -0.222 OA
BRANCH  81  84
ATOM     84  C4  0DO d   1      53.089  17.269  -0.138  0.00  0.00     0.062 A 
ATOM     85  C3  0DO d   1      53.881  17.560  -1.228  0.00  0.00    -0.045 A 
ATOM     86  C2  0DO d   1      53.564  17.015  -2.490  0.00  0.00     0.003 A 
ATOM     87  H45 0DO d   1      54.745  18.206  -1.116  0.00  0.00     0.087 H 
ATOM     88  N1  0DO d   1      52.481  16.221  -2.620  0.00  0.00    -0.273 NA
ATOM     89  H44 0DO d   1      54.187  17.233  -3.350  0.00  0.00     0.114 H 
ATOM     90  C6  0DO d   1      51.711  15.925  -1.584  0.00  0.00     0.003 A 
ATOM     91  C5  0DO d   1      51.987  16.439  -0.317  0.00  0.00    -0.045 A 
ATOM     92  H47 0DO d   1      50.855  15.275  -1.722  0.00  0.00     0.114 H 
ATOM     93  H46 0DO d   1      51.347  16.193   0.523  0.00  0.00     0.087 H 
ENDBRANCH  81  84
ENDBRANCH  53  81
ENDBRANCH   1  49
TORSDOF 19
