REMARK WARNING: 32 MAX_TORS EXCEEDED!!!
REMARK  71 active torsions:
REMARK  status: ('A' for Active; 'I' for Inactive)
REMARK    1  A    between atoms: CA_2  and  N_1 
REMARK    2  A    between atoms: CA_2  and  CB_5 
REMARK    3  A    between atoms: C_3  and  CA_2 
REMARK       I    between atoms: N_24  and  C_3 
REMARK    4  A    between atoms: CB_5  and  CG_6 
REMARK    5  A    between atoms: CZ_11  and  OH_12 
REMARK    6  A    between atoms: CA_25  and  N_24 
REMARK    7  A    between atoms: CA_25  and  CB_28 
REMARK    8  A    between atoms: C_26  and  CA_25 
REMARK       I    between atoms: N_48  and  C_26 
REMARK    9  A    between atoms: CB_28  and  CG_29 
REMARK   10  A    between atoms: CG_29  and  CD_30 
REMARK   11  A    between atoms: CD_30  and  NE_31 
REMARK       I    between atoms: NE_31  and  CZ_32 
REMARK       I    between atoms: CZ_32  and  NH1_33 
REMARK   12  A    between atoms: CA_49  and  N_48 
REMARK   13  A    between atoms: C_50  and  CA_49 
REMARK       I    between atoms: N_55  and  C_50 
REMARK   14  A    between atoms: CA_56  and  N_55 
REMARK   15  A    between atoms: CA_56  and  CB_59 
REMARK   16  A    between atoms: C_57  and  CA_56 
REMARK       I    between atoms: N_79  and  C_57 
REMARK   17  A    between atoms: CB_59  and  CG_60 
REMARK   18  A    between atoms: CA_80  and  N_79 
REMARK   19  A    between atoms: CA_80  and  CB_83 
REMARK   20  A    between atoms: C_81  and  CA_80 
REMARK       I    between atoms: N_101  and  C_81 
REMARK   21  A    between atoms: CB_83  and  CG_84 
REMARK   22  A    between atoms: CG_84  and  CD_85 
REMARK   23  A    between atoms: CD_85  and  CE_86 
REMARK   24  A    between atoms: CE_86  and  NZ_87 
REMARK   25  A    between atoms: CA_102  and  N_101 
REMARK   26  A    between atoms: CA_102  and  CB_105 
REMARK   27  A    between atoms: C_103  and  CA_102 
REMARK       I    between atoms: N_119  and  C_103 
REMARK   28  A    between atoms: CB_105  and  CG_106 
REMARK   29  A    between atoms: CA_120  and  N_119 
REMARK   30  A    between atoms: CA_120  and  CB_123 
REMARK   31  A    between atoms: C_121  and  CA_120 
REMARK       I    between atoms: N_143  and  C_121 
REMARK   32  A    between atoms: CB_123  and  CG_124 
REMARK   33  A    between atoms: CA_144  and  N_143 
REMARK   34  A    between atoms: CA_144  and  CB_147 
REMARK   35  A    between atoms: C_145  and  CA_144 
REMARK       I    between atoms: N_159  and  C_145 
REMARK   36  A    between atoms: CB_147  and  CG2_149 
REMARK   37  A    between atoms: CB_147  and  CG1_148 
REMARK   38  A    between atoms: CA_160  and  N_159 
REMARK   39  A    between atoms: CA_160  and  CB_163 
REMARK   40  A    between atoms: C_161  and  CA_160 
REMARK       I    between atoms: N_180  and  C_161 
REMARK   41  A    between atoms: CB_163  and  CG_164 
REMARK   42  A    between atoms: CZ_169  and  OH_170 
REMARK   43  A    between atoms: CA_181  and  N_180 
REMARK   44  A    between atoms: CA_181  and  CB_184 
REMARK   45  A    between atoms: C_182  and  CA_181 
REMARK       I    between atoms: N_201  and  C_182 
REMARK   46  A    between atoms: CB_184  and  CG_185 
REMARK   47  A    between atoms: CZ_190  and  OH_191 
REMARK   48  A    between atoms: CA_202  and  N_201 
REMARK   49  A    between atoms: CA_202  and  CB_205 
REMARK   50  A    between atoms: C_203  and  CA_202 
REMARK       I    between atoms: N_215  and  C_203 
REMARK   51  A    between atoms: CB_205  and  CG2_207 
REMARK   52  A    between atoms: CB_205  and  OG1_206 
REMARK   53  A    between atoms: CA_216  and  N_215 
REMARK   54  A    between atoms: C_227  and  CA_226 
REMARK       I    between atoms: N_235  and  C_227 
REMARK   55  A    between atoms: C_237  and  CA_236 
REMARK       I    between atoms: N_249  and  C_237 
REMARK   56  A    between atoms: CA_250  and  N_249 
REMARK   57  A    between atoms: CA_250  and  CB_253 
REMARK   58  A    between atoms: C_251  and  CA_250 
REMARK       I    between atoms: N_261  and  C_251 
REMARK   59  A    between atoms: CB_253  and  CG_254 
REMARK   60  A    between atoms: CA_262  and  N_261 
REMARK   61  A    between atoms: CA_262  and  CB_265 
REMARK   62  A    between atoms: C_263  and  CA_262 
REMARK       I    between atoms: N_275  and  C_263 
REMARK   63  A    between atoms: CB_265  and  CG2_267 
REMARK   64  A    between atoms: CB_265  and  OG1_266 
REMARK   65  A    between atoms: C_277  and  CA_276 
REMARK       I    between atoms: C_277  and  N_289 
REMARK   66  A    between atoms: N_289  and  CA_290 
REMARK   67  A    between atoms: CA_290  and  CB_293 
REMARK   68  A    between atoms: CA_290  and  C_291 
REMARK   69  A    between atoms: C_291  and  O1_310 
REMARK   70  A    between atoms: CB_293  and  CG_294 
REMARK   71  A    between atoms: CZ_299  and  OH_300 
ROOT
ATOM      1  CA  VAL d   1       0.359  -8.642   6.693  0.00  0.00     0.092 C 
ATOM      2  H69 VAL d   1       1.162  -7.893   6.629  0.00  0.00     0.088 H 
ENDROOT
BRANCH   1   3
ATOM      3  N   VAL d   1       0.960  -9.620   7.655  0.00  0.00    -0.346 N 
ATOM      4  H68 VAL d   1       1.921  -9.461   7.882  0.00  0.00     0.163 HD
ATOM      5  C   TRP d   1       0.389 -10.690   8.263  0.00  0.00     0.241 C 
ATOM      6  O   TRP d   1       1.223 -11.452   8.753  0.00  0.00    -0.271 OA
BRANCH   5   7
ATOM      7  CA  TRP d   1      -1.112 -11.084   8.533  0.00  0.00     0.093 C 
ATOM      8  H59 TRP d   1      -1.120 -12.178   8.423  0.00  0.00     0.088 H 
BRANCH   7   9
ATOM      9  N   TRP d   1      -1.479 -10.776   9.947  0.00  0.00    -0.346 N 
ATOM     10  H58 TRP d   1      -1.290  -9.864  10.311  0.00  0.00     0.163 HD
ATOM     11  C   HIS d   1      -2.058 -11.693  10.746  0.00  0.00     0.241 C 
ATOM     12  O   HIS d   1      -1.893 -12.898  10.529  0.00  0.00    -0.271 OA
BRANCH  11  13
ATOM     13  CA  HIS d   1      -3.105 -11.248  11.833  0.00  0.00     0.094 C 
ATOM     14  H52 HIS d   1      -4.011 -11.120  11.222  0.00  0.00     0.088 H 
BRANCH  13  15
ATOM     15  N   HIS d   1      -3.485 -12.330  12.795  0.00  0.00    -0.346 N 
ATOM     16  H51 HIS d   1      -4.431 -12.650  12.754  0.00  0.00     0.163 HD
ATOM     17  C   LYS d   1      -2.686 -12.923  13.716  0.00  0.00     0.241 C 
ATOM     18  O   LYS d   1      -3.148 -13.931  14.251  0.00  0.00    -0.271 OA
BRANCH  17  19
ATOM     19  CA  LYS d   1      -1.262 -12.444  14.158  0.00  0.00     0.089 C 
ATOM     20  H39 LYS d   1      -0.956 -11.738  13.372  0.00  0.00     0.087 H 
BRANCH  19  21
ATOM     21  N   LYS d   1      -1.161 -11.677  15.433  0.00  0.00    -0.346 N 
ATOM     22  H38 LYS d   1      -0.560 -10.879  15.472  0.00  0.00     0.163 HD
ATOM     23  C   TRP d   1      -1.855 -12.027  16.533  0.00  0.00     0.241 C 
ATOM     24  O   TRP d   1      -3.086 -11.998  16.594  0.00  0.00    -0.271 OA
BRANCH  23  25
ATOM     25  CA  TRP d   1      -1.044 -12.582  17.721  0.00  0.00     0.093 C 
ATOM     26  H29 TRP d   1      -0.015 -12.475  17.348  0.00  0.00     0.088 H 
BRANCH  25  27
ATOM     27  N   TRP d   1      -1.028 -11.565  18.816  0.00  0.00    -0.346 N 
ATOM     28  H28 TRP d   1      -0.311 -10.872  18.748  0.00  0.00     0.163 HD
ATOM     29  C   GLY d   1      -1.847 -11.451  19.885  0.00  0.00     0.236 C 
ATOM     30  O   GLY d   1      -1.560 -10.562  20.689  0.00  0.00    -0.272 OA
BRANCH  29  31
ATOM     31  CA  GLY d   1      -3.086 -12.314  20.187  0.00  0.00     0.069 C 
ATOM     32  H26 GLY d   1      -3.678 -11.860  20.995  0.00  0.00     0.078 H 
ATOM     33  H27 GLY d   1      -3.710 -12.412  19.286  0.00  0.00     0.078 H 
BRANCH  31  34
ATOM     34  N   GLY d   1      -2.583 -13.630  20.603  0.00  0.00    -0.351 N 
ATOM     35  H25 GLY d   1      -1.648 -13.860  20.332  0.00  0.00     0.163 HD
ATOM     36  C   ARG d   1      -3.245 -14.547  21.304  0.00  0.00     0.240 C 
ATOM     37  O   ARG d   1      -4.284 -14.321  21.935  0.00  0.00    -0.271 OA
BRANCH  36  38
ATOM     38  CA  ARG d   1      -2.566 -15.967  21.214  0.00  0.00     0.089 C 
ATOM     39  H13 ARG d   1      -1.751 -15.822  20.489  0.00  0.00     0.087 H 
BRANCH  38  40
ATOM     40  N   ARG d   1      -1.888 -16.548  22.413  0.00  0.00    -0.346 N 
ATOM     41  H12 ARG d   1      -1.228 -17.287  22.276  0.00  0.00     0.163 HD
ATOM     42  C   TYR d   1      -2.123 -16.125  23.662  0.00  0.00     0.249 C 
ATOM     43  O   TYR d   1      -1.687 -15.027  24.022  0.00  0.00    -0.271 OA
BRANCH  42  44
ATOM     44  CA  TYR d   1      -2.969 -17.006  24.634  0.00  0.00     0.179 C 
ATOM     45  H4  TYR d   1      -2.337 -17.241  25.503  0.00  0.00     0.099 H 
BRANCH  44  46
ATOM     46  N   TYR d   1      -4.106 -16.173  25.078  0.00  0.00    -0.066 N 
ATOM     47  H1  TYR d   1      -4.684 -16.703  25.711  0.00  0.00     0.275 HD
ATOM     48  H2  TYR d   1      -4.652 -15.896  24.277  0.00  0.00     0.275 HD
ATOM     49  H3  TYR d   1      -3.758 -15.352  25.548  0.00  0.00     0.275 HD
ENDBRANCH  44  46
BRANCH  44  50
ATOM     50  CB  TYR d   1      -3.496 -18.367  24.071  0.00  0.00    -0.006 C 
ATOM     51  H5  TYR d   1      -2.639 -18.862  23.591  0.00  0.00     0.043 H 
ATOM     52  H6  TYR d   1      -4.251 -18.121  23.310  0.00  0.00     0.043 H 
BRANCH  50  53
ATOM     53  CG  TYR d   1      -4.136 -19.406  25.007  0.00  0.00    -0.056 A 
ATOM     54  CD1 TYR d   1      -3.365 -20.006  26.003  0.00  0.00    -0.074 A 
ATOM     55  CE1 TYR d   1      -3.866 -21.094  26.721  0.00  0.00    -0.051 A 
ATOM     56  H7  TYR d   1      -2.373 -19.626  26.220  0.00  0.00     0.084 H 
ATOM     57  CZ  TYR d   1      -5.145 -21.578  26.446  0.00  0.00     0.065 A 
ATOM     58  H9  TYR d   1      -3.262 -21.561  27.490  0.00  0.00     0.087 H 
ATOM     59  CE2 TYR d   1      -5.925 -20.975  25.469  0.00  0.00    -0.051 A 
ATOM     60  CD2 TYR d   1      -5.428 -19.887  24.748  0.00  0.00    -0.074 A 
ATOM     61  H10 TYR d   1      -6.922 -21.349  25.265  0.00  0.00     0.087 H 
ATOM     62  H8  TYR d   1      -6.040 -19.415  23.989  0.00  0.00     0.084 H 
BRANCH  57  63
ATOM     63  OH  TYR d   1      -5.620 -22.673  27.128  0.00  0.00    -0.361 OA
ATOM     64  H11 TYR d   1      -4.968 -22.961  27.756  0.00  0.00     0.217 HD
ENDBRANCH  57  63
ENDBRANCH  50  53
ENDBRANCH  44  50
ENDBRANCH  42  44
ENDBRANCH  38  40
BRANCH  38  65
ATOM     65  CB  ARG d   1      -3.517 -17.023  20.575  0.00  0.00    -0.036 C 
ATOM     66  H14 ARG d   1      -4.099 -16.526  19.785  0.00  0.00     0.036 H 
ATOM     67  H15 ARG d   1      -4.198 -17.388  21.358  0.00  0.00     0.036 H 
BRANCH  65  68
ATOM     68  CG  ARG d   1      -2.798 -18.252  19.947  0.00  0.00    -0.048 C 
ATOM     69  H16 ARG d   1      -1.742 -18.213  20.252  0.00  0.00     0.035 H 
ATOM     70  H17 ARG d   1      -2.868 -18.158  18.853  0.00  0.00     0.035 H 
BRANCH  68  71
ATOM     71  CD  ARG d   1      -3.347 -19.641  20.334  0.00  0.00     0.009 C 
ATOM     72  H18 ARG d   1      -3.819 -19.572  21.325  0.00  0.00     0.064 H 
ATOM     73  H19 ARG d   1      -2.510 -20.353  20.376  0.00  0.00     0.064 H 
BRANCH  71  74
ATOM     74  NE  ARG d   1      -4.351 -20.140  19.360  0.00  0.00    -0.227 N 
ATOM     75  CZ  ARG d   1      -4.417 -21.404  18.901  0.00  0.00     0.665 C 
ATOM     76  NH2 ARG d   1      -5.355 -21.693  18.019  0.00  0.00    -0.235 N 
ATOM     77  NH1 ARG d   1      -3.595 -22.383  19.283  0.00  0.00    -0.235 N 
ATOM     78  H23 ARG d   1      -6.007 -20.961  17.702  0.00  0.00     0.174 HD
ATOM     79  H24 ARG d   1      -5.435 -22.650  17.648  0.00  0.00     0.174 HD
ATOM     80  H21 ARG d   1      -3.703 -23.329  18.890  0.00  0.00     0.174 HD
ATOM     81  H22 ARG d   1      -2.852 -22.193  19.971  0.00  0.00     0.174 HD
ATOM     82  H20 ARG d   1      -5.049 -19.469  19.009  0.00  0.00     0.177 HD
ENDBRANCH  71  74
ENDBRANCH  68  71
ENDBRANCH  65  68
ENDBRANCH  38  65
ENDBRANCH  36  38
ENDBRANCH  31  34
ENDBRANCH  29  31
ENDBRANCH  25  27
BRANCH  25  83
ATOM     83  CB  TRP d   1      -1.044 -14.155  17.946  0.00  0.00    -0.012 C 
ATOM     84  H30 TRP d   1      -1.056 -14.307  19.035  0.00  0.00     0.044 H 
ATOM     85  H31 TRP d   1      -0.092 -14.522  17.535  0.00  0.00     0.044 H 
BRANCH  83  86
ATOM     86  CG  TRP d   1      -2.154 -15.087  17.366  0.00  0.00    -0.028 A 
ATOM     87  CD1 TRP d   1      -3.562 -14.934  17.455  0.00  0.00    -0.015 A 
ATOM     88  NE1 TRP d   1      -4.264 -15.986  16.831  0.00  0.00    -0.365 N 
ATOM     89  H32 TRP d   1      -4.048 -14.095  17.951  0.00  0.00     0.112 H 
ATOM     90  CE2 TRP d   1      -3.267 -16.807  16.347  0.00  0.00     0.042 A 
ATOM     91  H33 TRP d   1      -5.283 -16.112  16.755  0.00  0.00     0.165 HD
ATOM     92  CD2 TRP d   1      -1.985 -16.288  16.672  0.00  0.00    -0.002 A 
ATOM     93  CZ2 TRP d   1      -3.388 -18.038  15.651  0.00  0.00    -0.056 A 
ATOM     94  CE3 TRP d   1      -0.818 -17.016  16.315  0.00  0.00    -0.070 A 
ATOM     95  CZ3 TRP d   1      -0.959 -18.215  15.618  0.00  0.00    -0.082 A 
ATOM     96  H34 TRP d   1       0.166 -16.645  16.580  0.00  0.00     0.084 H 
ATOM     97  CH2 TRP d   1      -2.224 -18.719  15.290  0.00  0.00    -0.081 A 
ATOM     98  H36 TRP d   1      -0.074 -18.767  15.325  0.00  0.00     0.083 H 
ATOM     99  H37 TRP d   1      -2.300 -19.654  14.747  0.00  0.00     0.083 H 
ATOM    100  H35 TRP d   1      -4.364 -18.441  15.405  0.00  0.00     0.086 H 
ENDBRANCH  83  86
ENDBRANCH  25  83
ENDBRANCH  23  25
ENDBRANCH  19  21
BRANCH  19 101
ATOM    101  CB  LYS d   1      -0.184 -13.588  14.155  0.00  0.00    -0.038 C 
ATOM    102  H40 LYS d   1      -0.568 -14.393  13.512  0.00  0.00     0.036 H 
ATOM    103  H41 LYS d   1      -0.098 -13.954  15.189  0.00  0.00     0.036 H 
BRANCH 101 104
ATOM    104  CG  LYS d   1       1.249 -13.260  13.667  0.00  0.00    -0.061 C 
ATOM    105  H42 LYS d   1       1.161 -12.897  12.632  0.00  0.00     0.033 H 
ATOM    106  H43 LYS d   1       1.816 -14.202  13.678  0.00  0.00     0.033 H 
BRANCH 104 107
ATOM    107  CD  LYS d   1       2.087 -12.219  14.441  0.00  0.00    -0.043 C 
ATOM    108  H44 LYS d   1       3.030 -12.697  14.745  0.00  0.00     0.035 H 
ATOM    109  H45 LYS d   1       1.521 -11.923  15.336  0.00  0.00     0.035 H 
BRANCH 107 110
ATOM    110  CE  LYS d   1       2.432 -10.942  13.649  0.00  0.00     0.080 C 
ATOM    111  H46 LYS d   1       2.830 -11.248  12.670  0.00  0.00     0.075 H 
ATOM    112  H47 LYS d   1       3.208 -10.398  14.207  0.00  0.00     0.075 H 
BRANCH 110 113
ATOM    113  NZ  LYS d   1       1.312 -10.016  13.412  0.00  0.00    -0.079 N 
ATOM    114  H48 LYS d   1       1.640  -9.219  12.890  0.00  0.00     0.274 HD
ATOM    115  H49 LYS d   1       0.938  -9.708  14.296  0.00  0.00     0.274 HD
ATOM    116  H50 LYS d   1       0.591 -10.487  12.888  0.00  0.00     0.274 HD
ENDBRANCH 110 113
ENDBRANCH 107 110
ENDBRANCH 104 107
ENDBRANCH 101 104
ENDBRANCH  19 101
ENDBRANCH  17  19
ENDBRANCH  13  15
BRANCH  13 117
ATOM    117  CB  HIS d   1      -3.004  -9.865  12.555  0.00  0.00     0.004 C 
ATOM    118  H53 HIS d   1      -1.996  -9.786  12.988  0.00  0.00     0.046 H 
ATOM    119  H54 HIS d   1      -3.752  -9.852  13.361  0.00  0.00     0.046 H 
BRANCH 117 120
ATOM    120  CG  HIS d   1      -3.236  -8.629  11.683  0.00  0.00     0.053 A 
ATOM    121  ND1 HIS d   1      -4.415  -8.321  11.011  0.00  0.00    -0.247 NA
ATOM    122  CE1 HIS d   1      -4.047  -7.141  10.422  0.00  0.00     0.064 A 
ATOM    123  NE2 HIS d   1      -2.793  -6.636  10.645  0.00  0.00    -0.359 N 
ATOM    124  H56 HIS d   1      -4.747  -6.607   9.780  0.00  0.00     0.143 H 
ATOM    125  CD2 HIS d   1      -2.279  -7.621  11.468  0.00  0.00     0.002 A 
ATOM    126  H57 HIS d   1      -2.357  -5.769  10.298  0.00  0.00     0.166 HD
ATOM    127  H55 HIS d   1      -1.275  -7.617  11.890  0.00  0.00     0.114 H 
ENDBRANCH 117 120
ENDBRANCH  13 117
ENDBRANCH  11  13
ENDBRANCH   7   9
BRANCH   7 128
ATOM    128  CB  TRP d   1      -2.306 -10.593   7.658  0.00  0.00    -0.012 C 
ATOM    129  H60 TRP d   1      -1.933 -10.413   6.639  0.00  0.00     0.044 H 
ATOM    130  H61 TRP d   1      -2.679  -9.650   8.084  0.00  0.00     0.044 H 
BRANCH 128 131
ATOM    131  CG  TRP d   1      -3.480 -11.575   7.571  0.00  0.00    -0.028 A 
ATOM    132  CD1 TRP d   1      -4.673 -11.518   8.315  0.00  0.00    -0.015 A 
ATOM    133  NE1 TRP d   1      -5.454 -12.674   8.139  0.00  0.00    -0.365 N 
ATOM    134  H62 TRP d   1      -4.957 -10.680   8.950  0.00  0.00     0.112 H 
ATOM    135  CE2 TRP d   1      -4.694 -13.463   7.293  0.00  0.00     0.042 A 
ATOM    136  H63 TRP d   1      -6.377 -12.885   8.545  0.00  0.00     0.165 HD
ATOM    137  CD2 TRP d   1      -3.493 -12.803   6.946  0.00  0.00    -0.002 A 
ATOM    138  CZ2 TRP d   1      -4.909 -14.804   6.889  0.00  0.00    -0.056 A 
ATOM    139  CE3 TRP d   1      -2.490 -13.475   6.207  0.00  0.00    -0.070 A 
ATOM    140  CZ3 TRP d   1      -2.727 -14.785   5.800  0.00  0.00    -0.082 A 
ATOM    141  H64 TRP d   1      -1.557 -12.980   5.963  0.00  0.00     0.084 H 
ATOM    142  CH2 TRP d   1      -3.920 -15.440   6.126  0.00  0.00    -0.081 A 
ATOM    143  H66 TRP d   1      -1.974 -15.307   5.220  0.00  0.00     0.083 H 
ATOM    144  H67 TRP d   1      -4.082 -16.456   5.783  0.00  0.00     0.083 H 
ATOM    145  H65 TRP d   1      -5.818 -15.326   7.164  0.00  0.00     0.086 H 
ENDBRANCH 128 131
ENDBRANCH   7 128
ENDBRANCH   5   7
ENDBRANCH   1   3
BRANCH   1 146
ATOM    146  CB  VAL d   1       0.377  -9.152   5.191  0.00  0.00    -0.033 C 
ATOM    147  H70 VAL d   1      -0.196  -8.378   4.660  0.00  0.00     0.042 H 
BRANCH 146 148
ATOM    148  CG2 VAL d   1      -0.291 -10.480   4.769  0.00  0.00    -0.071 C 
ATOM    149  H74 VAL d   1      -1.303 -10.534   5.198  0.00  0.00     0.028 H 
ATOM    150  H75 VAL d   1       0.309 -11.325   5.137  0.00  0.00     0.028 H 
ATOM    151  H76 VAL d   1      -0.355 -10.526   3.672  0.00  0.00     0.028 H 
ENDBRANCH 146 148
BRANCH 146 152
ATOM    152  CG1 VAL d   1       1.786  -9.154   4.552  0.00  0.00    -0.071 C 
ATOM    153  H71 VAL d   1       1.718  -9.518   3.516  0.00  0.00     0.028 H 
ATOM    154  H72 VAL d   1       2.450  -9.814   5.130  0.00  0.00     0.028 H 
ATOM    155  H73 VAL d   1       2.192  -8.132   4.556  0.00  0.00     0.028 H 
ENDBRANCH 146 152
ENDBRANCH   1 146
BRANCH   1 156
ATOM    156  C   VAL d   1      -0.773  -7.729   7.309  0.00  0.00     0.241 C 
ATOM    157  O   VAL d   1      -1.040  -7.864   8.502  0.00  0.00    -0.271 OA
ATOM    158  N   TYR d   1      -1.490  -6.730   6.749  0.00  0.00    -0.346 N 
ATOM    159  H77 TYR d   1      -2.358  -6.518   7.198  0.00  0.00     0.163 HD
BRANCH 158 160
ATOM    160  CA  TYR d   1      -1.164  -5.902   5.555  0.00  0.00     0.093 C 
ATOM    161  H78 TYR d   1      -1.764  -5.001   5.751  0.00  0.00     0.088 H 
BRANCH 160 162
ATOM    162  CB  TYR d   1       0.274  -5.291   5.363  0.00  0.00    -0.014 C 
ATOM    163  H79 TYR d   1       0.135  -4.321   4.862  0.00  0.00     0.043 H 
ATOM    164  H80 TYR d   1       0.815  -5.975   4.693  0.00  0.00     0.043 H 
BRANCH 162 165
ATOM    165  CG  TYR d   1       1.202  -5.032   6.559  0.00  0.00    -0.056 A 
ATOM    166  CD1 TYR d   1       0.733  -4.411   7.718  0.00  0.00    -0.074 A 
ATOM    167  CE1 TYR d   1       1.522  -4.377   8.863  0.00  0.00    -0.051 A 
ATOM    168  H81 TYR d   1      -0.250  -3.954   7.726  0.00  0.00     0.084 H 
ATOM    169  CZ  TYR d   1       2.798  -4.935   8.847  0.00  0.00     0.065 A 
ATOM    170  H83 TYR d   1       1.144  -3.916   9.768  0.00  0.00     0.087 H 
ATOM    171  CE2 TYR d   1       3.302  -5.490   7.672  0.00  0.00    -0.051 A 
ATOM    172  CD2 TYR d   1       2.511  -5.531   6.529  0.00  0.00    -0.074 A 
ATOM    173  H84 TYR d   1       4.309  -5.889   7.649  0.00  0.00     0.087 H 
ATOM    174  H82 TYR d   1       2.908  -5.950   5.612  0.00  0.00     0.084 H 
BRANCH 169 175
ATOM    175  OH  TYR d   1       3.536  -4.975  10.000  0.00  0.00    -0.361 OA
ATOM    176  H85 TYR d   1       3.050  -4.556  10.700  0.00  0.00     0.217 HD
ENDBRANCH 169 175
ENDBRANCH 162 165
ENDBRANCH 160 162
BRANCH 160 177
ATOM    177  C   TYR d   1      -1.754  -6.426   4.217  0.00  0.00     0.241 C 
ATOM    178  O   TYR d   1      -0.996  -6.719   3.291  0.00  0.00    -0.271 OA
ATOM    179  N   TYR d   1      -3.089  -6.488   4.034  0.00  0.00    -0.346 N 
ATOM    180  H86 TYR d   1      -3.699  -6.495   4.827  0.00  0.00     0.163 HD
BRANCH 179 181
ATOM    181  CA  TYR d   1      -3.662  -6.546   2.662  0.00  0.00     0.093 C 
ATOM    182  H87 TYR d   1      -2.880  -6.081   2.044  0.00  0.00     0.088 H 
BRANCH 181 183
ATOM    183  CB  TYR d   1      -3.879  -7.940   1.986  0.00  0.00    -0.014 C 
ATOM    184  H88 TYR d   1      -3.061  -8.045   1.258  0.00  0.00     0.043 H 
ATOM    185  H89 TYR d   1      -4.838  -7.862   1.452  0.00  0.00     0.043 H 
BRANCH 183 186
ATOM    186  CG  TYR d   1      -3.934  -9.281   2.739  0.00  0.00    -0.056 A 
ATOM    187  CD1 TYR d   1      -5.070  -9.643   3.473  0.00  0.00    -0.074 A 
ATOM    188  CE1 TYR d   1      -5.290 -10.981   3.800  0.00  0.00    -0.051 A 
ATOM    189  H90 TYR d   1      -5.778  -8.884   3.787  0.00  0.00     0.084 H 
ATOM    190  CZ  TYR d   1      -4.369 -11.957   3.421  0.00  0.00     0.065 A 
ATOM    191  H92 TYR d   1      -6.180 -11.263   4.351  0.00  0.00     0.087 H 
ATOM    192  CE2 TYR d   1      -3.202 -11.588   2.757  0.00  0.00    -0.051 A 
ATOM    193  CD2 TYR d   1      -2.989 -10.258   2.414  0.00  0.00    -0.074 A 
ATOM    194  H93 TYR d   1      -2.460 -12.338   2.508  0.00  0.00     0.087 H 
ATOM    195  H91 TYR d   1      -2.083  -9.976   1.890  0.00  0.00     0.084 H 
BRANCH 190 196
ATOM    196  OH  TYR d   1      -4.641 -13.285   3.640  0.00  0.00    -0.361 OA
ATOM    197  H94 TYR d   1      -5.468 -13.366   4.101  0.00  0.00     0.217 HD
ENDBRANCH 190 196
ENDBRANCH 183 186
ENDBRANCH 181 183
BRANCH 181 198
ATOM    198  C   TYR d   1      -4.902  -5.630   2.482  0.00  0.00     0.241 C 
ATOM    199  O   TYR d   1      -5.963  -5.811   3.086  0.00  0.00    -0.271 OA
ATOM    200  N   THR d   1      -4.750  -4.766   1.469  0.00  0.00    -0.344 N 
ATOM    201  H95 THR d   1      -3.849  -4.346   1.366  0.00  0.00     0.163 HD
BRANCH 200 202
ATOM    202  CA  THR d   1      -5.792  -4.371   0.482  0.00  0.00     0.113 C 
ATOM    203  H96 THR d   1      -6.345  -3.559   0.978  0.00  0.00     0.091 H 
BRANCH 202 204
ATOM    204  CB  THR d   1      -5.111  -3.746  -0.794  0.00  0.00     0.060 C 
ATOM    205  H97 THR d   1      -5.475  -4.349  -1.639  0.00  0.00     0.086 H 
BRANCH 204 206
ATOM    206  CG2 THR d   1      -5.518  -2.296  -1.085  0.00  0.00    -0.050 C 
ATOM    207  H99 THR d   1      -4.998  -1.943  -1.988  0.00  0.00     0.031 H 
ATOM    208 0H10 THR d   1      -5.243  -1.659  -0.231  0.00  0.00     0.031 H 
ATOM    209 1H10 THR d   1      -6.605  -2.245  -1.245  0.00  0.00     0.031 H 
ENDBRANCH 204 206
BRANCH 204 210
ATOM    210  OG1 THR d   1      -3.683  -3.828  -0.827  0.00  0.00    -0.393 OA
ATOM    211  H98 THR d   1      -3.414  -4.721  -0.648  0.00  0.00     0.210 HD
ENDBRANCH 204 210
ENDBRANCH 202 204
BRANCH 202 212
ATOM    212  C   THR d   1      -6.902  -5.383   0.026  0.00  0.00     0.243 C 
ATOM    213  O   THR d   1      -7.902  -4.916  -0.529  0.00  0.00    -0.271 OA
ATOM    214  N   CYS d   1      -6.763  -6.716   0.242  0.00  0.00    -0.345 N 
ATOM    215 2H10 CYS d   1      -5.862  -7.050   0.518  0.00  0.00     0.163 HD
BRANCH 214 216
ATOM    216  CA  CYS d   1      -7.858  -7.717   0.097  0.00  0.00     0.098 C 
ATOM    217  CB  CYS d   1      -7.520  -9.028   0.861  0.00  0.00     0.013 C 
ATOM    218  SG  CYS d   1      -8.943 -10.162   1.069  0.00  0.00    -0.095 SA
ATOM    219 4H10 CYS d   1      -7.144  -8.759   1.859  0.00  0.00     0.053 H 
ATOM    220 5H10 CYS d   1      -6.734  -9.559   0.304  0.00  0.00     0.053 H 
ATOM    221  SG  CYS d   1     -10.341  -9.441   2.372  0.00  0.00    -0.095 SA
ATOM    222  CB  CYS d   1     -11.856  -8.770   1.590  0.00  0.00     0.013 C 
ATOM    223  CA  CYS d   1     -11.633  -7.700   0.477  0.00  0.00     0.098 C 
ATOM    224 8H10 CYS d   1     -12.405  -9.612   1.143  0.00  0.00     0.053 H 
ATOM    225 9H10 CYS d   1     -12.468  -8.311   2.381  0.00  0.00     0.053 H 
ATOM    226  N   CYS d   1     -10.252  -7.726  -0.035  0.00  0.00    -0.345 N 
ATOM    227 7H10 CYS d   1     -12.258  -8.053  -0.357  0.00  0.00     0.088 H 
ATOM    228 6H10 CYS d   1     -10.085  -8.115  -0.941  0.00  0.00     0.163 HD
ATOM    229  C   CYS d   1      -9.216  -7.253   0.658  0.00  0.00     0.242 C 
ATOM    230  O   CYS d   1      -9.314  -6.588   1.700  0.00  0.00    -0.271 OA
ATOM    231 3H10 CYS d   1      -7.973  -7.936  -0.975  0.00  0.00     0.088 H 
BRANCH 223 232
ATOM    232  C   CYS d   1     -12.134  -6.228   0.727  0.00  0.00     0.244 C 
ATOM    233  O   CYS d   1     -12.363  -5.865   1.885  0.00  0.00    -0.271 OA
ATOM    234  N   PRO d   1     -12.306  -5.354  -0.316  0.00  0.00    -0.337 N 
ATOM    235  CA  PRO d   1     -12.822  -3.970  -0.164  0.00  0.00     0.091 C 
ATOM    236  CD  PRO d   1     -11.853  -5.594  -1.698  0.00  0.00    -0.001 C 
ATOM    237 0H11 PRO d   1     -12.094  -3.399   0.431  0.00  0.00     0.087 H 
ATOM    238  CB  PRO d   1     -12.840  -3.413  -1.620  0.00  0.00    -0.036 C 
ATOM    239  CG  PRO d   1     -12.681  -4.621  -2.524  0.00  0.00    -0.048 C 
ATOM    240 1H11 PRO d   1     -12.009  -2.709  -1.772  0.00  0.00     0.036 H 
ATOM    241 2H11 PRO d   1     -13.794  -2.904  -1.824  0.00  0.00     0.036 H 
ATOM    242 3H11 PRO d   1     -13.661  -5.055  -2.772  0.00  0.00     0.035 H 
ATOM    243 4H11 PRO d   1     -12.155  -4.349  -3.451  0.00  0.00     0.035 H 
ATOM    244 5H11 PRO d   1     -12.051  -6.633  -2.001  0.00  0.00     0.064 H 
ATOM    245 6H11 PRO d   1     -10.779  -5.381  -1.801  0.00  0.00     0.064 H 
BRANCH 235 246
ATOM    246  C   PRO d   1     -14.190  -3.803   0.536  0.00  0.00     0.241 C 
ATOM    247  O   PRO d   1     -14.892  -4.760   0.874  0.00  0.00    -0.271 OA
ATOM    248  N   ASP d   1     -14.658  -2.549   0.556  0.00  0.00    -0.346 N 
ATOM    249 7H11 ASP d   1     -14.982  -2.157  -0.305  0.00  0.00     0.163 HD
BRANCH 248 250
ATOM    250  CA  ASP d   1     -14.727  -1.711   1.762  0.00  0.00     0.098 C 
ATOM    251 8H11 ASP d   1     -14.027  -2.139   2.495  0.00  0.00     0.088 H 
BRANCH 250 252
ATOM    252  CB  ASP d   1     -14.210  -0.298   1.383  0.00  0.00     0.043 C 
ATOM    253 9H11 ASP d   1     -14.939   0.160   0.698  0.00  0.00     0.052 H 
ATOM    254 0H12 ASP d   1     -13.245  -0.414   0.868  0.00  0.00     0.052 H 
BRANCH 252 255
ATOM    255  CG  ASP d   1     -14.006   0.655   2.569  0.00  0.00     0.175 C 
ATOM    256  OD1 ASP d   1     -13.208   0.337   3.480  0.00  0.00    -0.648 OA
ATOM    257  OD2 ASP d   1     -14.597   1.755   2.546  0.00  0.00    -0.648 OA
ENDBRANCH 252 255
ENDBRANCH 250 252
BRANCH 250 258
ATOM    258  C   ASP d   1     -16.121  -1.666   2.464  0.00  0.00     0.241 C 
ATOM    259  O   ASP d   1     -16.111  -1.516   3.683  0.00  0.00    -0.271 OA
ATOM    260  N   THR d   1     -17.338  -1.826   1.937  0.00  0.00    -0.344 N 
ATOM    261 1H12 THR d   1     -18.076  -1.963   2.598  0.00  0.00     0.163 HD
BRANCH 260 262
ATOM    262  CA  THR d   1     -17.750  -1.830   0.516  0.00  0.00     0.114 C 
ATOM    263 2H12 THR d   1     -16.867  -1.651  -0.114  0.00  0.00     0.091 H 
BRANCH 262 264
ATOM    264  CB  THR d   1     -18.301  -3.264   0.167  0.00  0.00     0.060 C 
ATOM    265 3H12 THR d   1     -19.328  -3.116  -0.197  0.00  0.00     0.086 H 
BRANCH 264 266
ATOM    266  CG2 THR d   1     -18.378  -4.429   1.215  0.00  0.00    -0.050 C 
ATOM    267 5H12 THR d   1     -18.796  -5.327   0.735  0.00  0.00     0.031 H 
ATOM    268 6H12 THR d   1     -19.024  -4.127   2.053  0.00  0.00     0.031 H 
ATOM    269 7H12 THR d   1     -17.369  -4.651   1.592  0.00  0.00     0.031 H 
ENDBRANCH 264 266
BRANCH 264 270
ATOM    270  OG1 THR d   1     -17.481  -3.737  -0.897  0.00  0.00    -0.393 OA
ATOM    271 4H12 THR d   1     -16.619  -3.951  -0.560  0.00  0.00     0.210 HD
ENDBRANCH 264 270
ENDBRANCH 262 264
BRANCH 262 272
ATOM    272  C   THR d   1     -18.757  -0.630   0.279  0.00  0.00     0.245 C 
ATOM    273  O   THR d   1     -19.251  -0.059   1.268  0.00  0.00    -0.271 OA
ATOM    274  N   PRO d   1     -19.130  -0.177  -0.967  0.00  0.00    -0.337 N 
ATOM    275  CA  PRO d   1     -20.019   0.995  -1.166  0.00  0.00     0.091 C 
ATOM    276  CD  PRO d   1     -18.546  -0.578  -2.270  0.00  0.00    -0.001 C 
ATOM    277 8H12 PRO d   1     -19.880   1.672  -0.310  0.00  0.00     0.087 H 
ATOM    278  CB  PRO d   1     -19.465   1.708  -2.419  0.00  0.00    -0.036 C 
ATOM    279  CG  PRO d   1     -18.475   0.735  -3.064  0.00  0.00    -0.048 C 
ATOM    280 9H12 PRO d   1     -18.953   2.639  -2.133  0.00  0.00     0.036 H 
ATOM    281 0H13 PRO d   1     -20.282   1.939  -3.118  0.00  0.00     0.036 H 
ATOM    282 1H13 PRO d   1     -18.752   0.556  -4.114  0.00  0.00     0.035 H 
ATOM    283 2H13 PRO d   1     -17.457   1.148  -3.019  0.00  0.00     0.035 H 
ATOM    284 3H13 PRO d   1     -19.191  -1.309  -2.780  0.00  0.00     0.064 H 
ATOM    285 4H13 PRO d   1     -17.543  -1.007  -2.133  0.00  0.00     0.064 H 
BRANCH 275 286
ATOM    286  C   PRO d   1     -21.540   0.659  -1.195  0.00  0.00     0.241 C 
ATOM    287  O   PRO d   1     -22.211   0.873  -0.178  0.00  0.00    -0.271 OA
ATOM    288  N   TYR d   1     -22.048   0.033  -2.289  0.00  0.00    -0.345 N 
ATOM    289 5H13 TYR d   1     -21.677   0.261  -3.189  0.00  0.00     0.163 HD
BRANCH 288 290
ATOM    290  CA  TYR d   1     -23.133  -0.976  -2.197  0.00  0.00     0.097 C 
ATOM    291 6H13 TYR d   1     -23.074  -1.530  -3.146  0.00  0.00     0.089 H 
BRANCH 290 292
ATOM    292  CB  TYR d   1     -22.802  -2.074  -1.114  0.00  0.00    -0.013 C 
ATOM    293 7H13 TYR d   1     -22.210  -1.588  -0.325  0.00  0.00     0.043 H 
ATOM    294 8H13 TYR d   1     -22.193  -2.846  -1.606  0.00  0.00     0.043 H 
BRANCH 292 295
ATOM    295  CG  TYR d   1     -23.966  -2.778  -0.438  0.00  0.00    -0.056 A 
ATOM    296  CD1 TYR d   1     -24.635  -3.789  -1.122  0.00  0.00    -0.074 A 
ATOM    297  CE1 TYR d   1     -25.814  -4.315  -0.609  0.00  0.00    -0.051 A 
ATOM    298 9H13 TYR d   1     -24.235  -4.166  -2.056  0.00  0.00     0.084 H 
ATOM    299  CZ  TYR d   1     -26.327  -3.829   0.593  0.00  0.00     0.065 A 
ATOM    300 1H14 TYR d   1     -26.334  -5.102  -1.142  0.00  0.00     0.087 H 
ATOM    301  CE2 TYR d   1     -25.648  -2.840   1.296  0.00  0.00    -0.051 A 
ATOM    302  CD2 TYR d   1     -24.461  -2.318   0.791  0.00  0.00    -0.074 A 
ATOM    303 2H14 TYR d   1     -26.043  -2.476   2.237  0.00  0.00     0.087 H 
ATOM    304 0H14 TYR d   1     -23.921  -1.559   1.345  0.00  0.00     0.084 H 
BRANCH 299 305
ATOM    305  OH  TYR d   1     -27.527  -4.293   1.052  0.00  0.00    -0.361 OA
ATOM    306 3H14 TYR d   1     -27.854  -4.960   0.461  0.00  0.00     0.217 HD
ENDBRANCH 299 305
ENDBRANCH 292 295
ENDBRANCH 290 292
BRANCH 290 307
ATOM    307  C   TYR d   1     -24.567  -0.358  -2.243  0.00  0.00     0.163 C 
ATOM    308  O   TYR d   1     -25.351  -0.722  -3.149  0.00  0.00    -0.648 OA
BRANCH 307 309
ATOM    309  O1  TYR d   1     -24.948   0.538  -1.337  0.00  0.00    -0.775 OA
ATOM    310 4H14 TYR d   1     -24.235   0.696  -0.730  0.00  0.00     0.167 HD
ENDBRANCH 307 309
ENDBRANCH 290 307
ENDBRANCH 288 290
ENDBRANCH 275 286
ENDBRANCH 262 272
ENDBRANCH 260 262
ENDBRANCH 250 258
ENDBRANCH 248 250
ENDBRANCH 235 246
ENDBRANCH 223 232
ENDBRANCH 214 216
ENDBRANCH 202 212
ENDBRANCH 200 202
ENDBRANCH 181 198
ENDBRANCH 179 181
ENDBRANCH 160 177
ENDBRANCH 158 160
ENDBRANCH   1 156
TORSDOF 71
