REMARK  13 active torsions:
REMARK  status: ('A' for Active; 'I' for Inactive)
REMARK    1  A    between atoms: B_1  and  OB1_2 
REMARK    2  A    between atoms: B_1  and  OB2_3 
REMARK    3  A    between atoms: B_1  and  C7_4 
REMARK    4  A    between atoms: C7_4  and  N10_5 
REMARK       I    between atoms: N10_5  and  C11_6 
REMARK    5  A    between atoms: C11_6  and  C13_8 
REMARK    6  A    between atoms: C13_8  and  N16_9 
REMARK    7  A    between atoms: C13_8  and  C14_12 
REMARK    8  A    between atoms: N16_9  and  O17_10 
REMARK    9  A    between atoms: O17_10  and  C18_11 
REMARK   10  A    between atoms: C18_11  and  C19_18 
REMARK   11  A    between atoms: C18_11  and  C20_19 
REMARK   12  A    between atoms: C18_11  and  C21_20 
REMARK   13  A    between atoms: C17_15  and  N18_16 
ROOT
ATOM      1  C13 CB4 d   1      23.234   6.152  13.716  0.00  0.00     0.180 C 
ENDROOT
BRANCH   1   2
ATOM      2  C11 CB4 d   1      24.653   6.239  13.965  0.00  0.00     0.274 C 
ATOM      3  N10 CB4 d   1      25.134   5.818  15.138  0.00  0.00    -0.359 N 
ATOM      4  H5  CB4 d   1      24.498   5.452  15.818  0.00  0.00     0.161 HD
ATOM      5  O12 CB4 d   1      25.404   6.699  13.092  0.00  0.00    -0.266 OA
BRANCH   3   6
ATOM      6  C7  CB4 d   1      26.562   5.874  15.463  0.00  0.00     0.030 C 
ATOM      7  H3  CB4 d   1      27.152   5.613  14.572  0.00  0.00     0.057 H 
ATOM      8  H4  CB4 d   1      26.825   6.890  15.792  0.00  0.00     0.057 H 
BRANCH   6   9
ATOM      9  B   CB4 d   1      26.870   4.859  16.609  0.00  0.00     0.510 B 
BRANCH   9  10
ATOM     10  OB1 CB4 d   1      25.747   3.901  16.744  0.00  0.00    -0.436 OA
ATOM     11  H1  CB4 d   1      25.626   3.438  15.923  0.00  0.00     0.184 HD
ENDBRANCH   9  10
BRANCH   9  12
ATOM     12  OB2 CB4 d   1      27.064   5.581  17.878  0.00  0.00    -0.436 OA
ATOM     13  H2  CB4 d   1      27.785   6.193  17.786  0.00  0.00     0.184 HD
ENDBRANCH   9  12
ENDBRANCH   6   9
ENDBRANCH   3   6
ENDBRANCH   1   2
BRANCH   1  14
ATOM     14  N16 CB4 d   1      22.266   6.731  14.493  0.00  0.00    -0.125 NA
BRANCH  14  15
ATOM     15  O17 CB4 d   1      22.779   7.564  15.606  0.00  0.00    -0.234 OA
BRANCH  15  16
ATOM     16  C18 CB4 d   1      21.952   8.739  15.812  0.00  0.00     0.171 C 
BRANCH  16  17
ATOM     17  C19 CB4 d   1      21.725   9.483  14.460  0.00  0.00    -0.036 C 
ATOM     18  H9  CB4 d   1      21.098  10.370  14.631  0.00  0.00     0.032 H 
ATOM     19  H10 CB4 d   1      21.222   8.809  13.751  0.00  0.00     0.032 H 
ATOM     20  H11 CB4 d   1      22.695   9.794  14.045  0.00  0.00     0.032 H 
ENDBRANCH  16  17
BRANCH  16  21
ATOM     21  C20 CB4 d   1      22.707   9.711  16.758  0.00  0.00    -0.036 C 
ATOM     22  H12 CB4 d   1      22.094  10.609  16.926  0.00  0.00     0.032 H 
ATOM     23  H13 CB4 d   1      23.664  10.001  16.299  0.00  0.00     0.032 H 
ATOM     24  H14 CB4 d   1      22.898   9.212  17.720  0.00  0.00     0.032 H 
ENDBRANCH  16  21
BRANCH  16  25
ATOM     25  C21 CB4 d   1      20.607   8.352  16.470  0.00  0.00     0.211 C 
ATOM     26  O2A CB4 d   1      19.523   8.795  15.966  0.00  0.00    -0.646 OA
ATOM     27  O2B CB4 d   1      20.630   7.605  17.508  0.00  0.00    -0.646 OA
ENDBRANCH  16  25
ENDBRANCH  15  16
ENDBRANCH  14  15
ENDBRANCH   1  14
BRANCH   1  28
ATOM     28  C14 CB4 d   1      22.642   5.412  12.565  0.00  0.00     0.102 A 
ATOM     29  C15 CB4 d   1      23.389   4.638  11.608  0.00  0.00    -0.011 A 
ATOM     30  S16 CB4 d   1      22.427   3.924  10.427  0.00  0.00    -0.062 SA
ATOM     31  H6  CB4 d   1      24.472   4.526  11.645  0.00  0.00     0.098 H 
ATOM     32  C17 CB4 d   1      21.038   4.579  11.112  0.00  0.00     0.164 A 
ATOM     33  N19 CB4 d   1      21.320   5.311  12.189  0.00  0.00    -0.222 NA
BRANCH  32  34
ATOM     34  N18 CB4 d   1      19.746   4.387  10.624  0.00  0.00    -0.378 N 
ATOM     35  H7  CB4 d   1      18.945   4.824  11.102  0.00  0.00     0.158 HD
ATOM     36  H8  CB4 d   1      19.593   3.808   9.786  0.00  0.00     0.158 HD
ENDBRANCH  32  34
ENDBRANCH   1  28
TORSDOF 13
