REMARK  9 active torsions:
REMARK  status: ('A' for Active; 'I' for Inactive)
REMARK    1  A    between atoms: C5_3  and  C7_7 
REMARK    2  A    between atoms: C9_11  and  N13_13 
REMARK    3  A    between atoms: N13_13  and  C14_14 
REMARK    4  A    between atoms: C19_15  and  C20_37 
REMARK    5  A    between atoms: C16_18  and  N21_20 
REMARK       I    between atoms: N21_20  and  C22_21 
REMARK    6  A    between atoms: C22_21  and  C23_22 
REMARK    7  A    between atoms: C27_25  and  C46_28 
REMARK    8  A    between atoms: C46_28  and  N48_29 
REMARK    9  A    between atoms: N51_32  and  C54_33 
ROOT
ATOM      1  N21 STI d   1      16.600  51.810  14.798  0.00  0.00    -0.323 N 
ATOM      2  C22 STI d   1      15.629  51.747  15.784  0.00  0.00     0.256 C 
ATOM      3  O29 STI d   1      14.789  52.612  15.983  0.00  0.00    -0.267 OA
ATOM      4  H11 STI d   1      17.337  51.137  14.864  0.00  0.00     0.169 HD
ENDROOT
BRANCH   1   5
ATOM      5  C16 STI d   1      16.678  52.727  13.688  0.00  0.00     0.037 A 
ATOM      6  C17 STI d   1      17.774  52.597  12.786  0.00  0.00    -0.057 A 
ATOM      7  C18 STI d   1      17.915  53.471  11.648  0.00  0.00    -0.073 A 
ATOM      8  H9  STI d   1      18.516  51.826  12.959  0.00  0.00     0.086 H 
ATOM      9  C19 STI d   1      16.950  54.502  11.393  0.00  0.00    -0.035 A 
ATOM     10  H8  STI d   1      18.759  53.348  10.978  0.00  0.00     0.084 H 
ATOM     11  C14 STI d   1      15.822  54.641  12.322  0.00  0.00     0.057 A 
ATOM     12  C15 STI d   1      15.698  53.772  13.436  0.00  0.00    -0.030 A 
ATOM     13  H10 STI d   1      14.858  53.889  14.111  0.00  0.00     0.090 H 
BRANCH   9  14
ATOM     14  C20 STI d   1      17.148  55.406  10.154  0.00  0.00    -0.049 C 
ATOM     15  H31 STI d   1      16.330  56.139  10.101  0.00  0.00     0.033 H 
ATOM     16  H32 STI d   1      17.146  54.787   9.245  0.00  0.00     0.033 H 
ATOM     17  H33 STI d   1      18.109  55.934  10.236  0.00  0.00     0.033 H 
ENDBRANCH   9  14
BRANCH  11  18
ATOM     18  N13 STI d   1      14.852  55.627  12.128  0.00  0.00    -0.188 N 
ATOM     19  H7  STI d   1      13.967  55.386  11.659  0.00  0.00     0.184 HD
BRANCH  18  20
ATOM     20  C9  STI d   1      15.067  56.927  12.559  0.00  0.00     0.727 A 
ATOM     21  N10 STI d   1      16.232  57.303  13.202  0.00  0.00    -0.075 NA
ATOM     22  C11 STI d   1      16.428  58.603  13.615  0.00  0.00     0.023 A 
ATOM     23  C12 STI d   1      15.433  59.579  13.383  0.00  0.00    -0.036 A 
ATOM     24  H6  STI d   1      17.348  58.877  14.119  0.00  0.00     0.115 H 
ATOM     25  C7  STI d   1      14.238  59.155  12.712  0.00  0.00     0.089 A 
ATOM     26  H5  STI d   1      15.567  60.607  13.699  0.00  0.00     0.089 H 
ATOM     27  N8  STI d   1      14.101  57.840  12.327  0.00  0.00    -0.062 NA
BRANCH  25  28
ATOM     28  C5  STI d   1      13.097  60.070  12.392  0.00  0.00     0.011 A 
ATOM     29  C6  STI d   1      13.002  61.429  12.910  0.00  0.00    -0.068 A 
ATOM     30  C1  STI d   1      11.879  62.272  12.570  0.00  0.00    -0.065 A 
ATOM     31  H2  STI d   1      13.783  61.812  13.558  0.00  0.00     0.085 H 
ATOM     32  C2  STI d   1      10.858  61.734  11.710  0.00  0.00     0.002 A 
ATOM     33  H1  STI d   1      11.807  63.284  12.953  0.00  0.00     0.085 H 
ATOM     34  N3  STI d   1      10.961  60.425  11.216  0.00  0.00    -0.272 NA
ATOM     35  H4  STI d   1      10.003  62.345  11.442  0.00  0.00     0.114 H 
ATOM     36  C4  STI d   1      12.031  59.591  11.525  0.00  0.00     0.014 A 
ATOM     37  H3  STI d   1      12.070  58.586  11.120  0.00  0.00     0.116 H 
ENDBRANCH  25  28
ENDBRANCH  18  20
ENDBRANCH  11  18
ENDBRANCH   1   5
BRANCH   2  38
ATOM     38  C23 STI d   1      15.595  50.558  16.689  0.00  0.00     0.032 A 
ATOM     39  C25 STI d   1      14.423  50.268  17.519  0.00  0.00    -0.067 A 
ATOM     40  C26 STI d   1      14.423  49.124  18.396  0.00  0.00    -0.074 A 
ATOM     41  H12 STI d   1      13.554  50.915  17.474  0.00  0.00     0.085 H 
ATOM     42  C27 STI d   1      15.600  48.260  18.446  0.00  0.00    -0.033 A 
ATOM     43  H13 STI d   1      13.558  48.907  19.012  0.00  0.00     0.084 H 
ATOM     44  C28 STI d   1      16.747  48.568  17.608  0.00  0.00    -0.074 A 
ATOM     45  C29 STI d   1      16.751  49.689  16.748  0.00  0.00    -0.067 A 
ATOM     46  H14 STI d   1      17.618  47.924  17.644  0.00  0.00     0.084 H 
ATOM     47  H15 STI d   1      17.619  49.898  16.133  0.00  0.00     0.085 H 
BRANCH  42  48
ATOM     48  C46 STI d   1      15.696  47.030  19.368  0.00  0.00     0.107 C 
ATOM     49  H16 STI d   1      15.645  46.135  18.731  0.00  0.00     0.083 H 
ATOM     50  H17 STI d   1      14.825  47.052  20.040  0.00  0.00     0.083 H 
BRANCH  48  51
ATOM     51  N48 STI d   1      16.917  46.907  20.219  0.00  0.00    -0.064 N 
ATOM     52  C53 STI d   1      17.097  48.140  21.070  0.00  0.00     0.106 C 
ATOM     53  C52 STI d   1      18.375  48.041  21.949  0.00  0.00     0.105 C 
ATOM     54  H19 STI d   1      16.220  48.254  21.725  0.00  0.00     0.078 H 
ATOM     55  H20 STI d   1      17.181  49.019  20.414  0.00  0.00     0.078 H 
ATOM     56  N51 STI d   1      18.337  46.794  22.821  0.00  0.00    -0.072 N 
ATOM     57  H21 STI d   1      18.439  48.930  22.594  0.00  0.00     0.078 H 
ATOM     58  H22 STI d   1      19.259  47.997  21.296  0.00  0.00     0.078 H 
ATOM     59  C50 STI d   1      18.172  45.533  21.971  0.00  0.00     0.105 C 
ATOM     60  H23 STI d   1      17.532  46.873  23.422  0.00  0.00     0.279 HD
ATOM     61  C49 STI d   1      16.877  45.658  21.104  0.00  0.00     0.106 C 
ATOM     62  H27 STI d   1      18.090  44.655  22.629  0.00  0.00     0.078 H 
ATOM     63  H28 STI d   1      19.045  45.417  21.312  0.00  0.00     0.078 H 
ATOM     64  H29 STI d   1      16.788  44.768  20.464  0.00  0.00     0.078 H 
ATOM     65  H30 STI d   1      16.004  45.719  21.771  0.00  0.00     0.078 H 
ATOM     66  H18 STI d   1      17.714  46.828  19.606  0.00  0.00     0.280 HD
BRANCH  56  67
ATOM     67  C54 STI d   1      19.522  46.655  23.680  0.00  0.00     0.066 C 
ATOM     68  H24 STI d   1      19.433  45.739  24.282  0.00  0.00     0.068 H 
ATOM     69  H25 STI d   1      19.595  47.526  24.348  0.00  0.00     0.068 H 
ATOM     70  H26 STI d   1      20.424  46.596  23.053  0.00  0.00     0.068 H 
ENDBRANCH  56  67
ENDBRANCH  48  51
ENDBRANCH  42  48
ENDBRANCH   2  38
TORSDOF 9
