REMARK  7 active torsions:
REMARK  status: ('A' for Active; 'I' for Inactive)
REMARK    1  A    between atoms: C5_6  and  C8_9 
REMARK    2  A    between atoms: C6_7  and  C7_8 
REMARK       I    between atoms: N14_15  and  C18_19 
REMARK    3  A    between atoms: C18_19  and  C19_21 
REMARK    4  A    between atoms: C21_23  and  O21_24 
REMARK    5  A    between atoms: O21_24  and  C25_29 
REMARK    6  A    between atoms: C22_25  and  O22_26 
REMARK    7  A    between atoms: O22_26  and  C26_30 
ROOT
ATOM      1  C8  EMD d   1      58.989   3.699   1.174  0.00  0.00    -0.024 A 
ATOM      2  C9  EMD d   1      58.273   4.261   2.239  0.00  0.00    -0.067 A 
ATOM      3  C10 EMD d   1      57.347   5.292   2.003  0.00  0.00    -0.030 A 
ATOM      4  C11 EMD d   1      57.148   5.749   0.677  0.00  0.00     0.043 A 
ATOM      5  C12 EMD d   1      57.867   5.183  -0.383  0.00  0.00    -0.056 A 
ATOM      6  C13 EMD d   1      58.789   4.159  -0.134  0.00  0.00    -0.073 A 
ATOM      7  N14 EMD d   1      56.134   6.860   0.433  0.00  0.00    -0.313 N 
ATOM      8  C15 EMD d   1      55.672   7.696   1.621  0.00  0.00     0.004 C 
ATOM      9  C16 EMD d   1      56.319   7.399   2.958  0.00  0.00    -0.046 C 
ATOM     10  C17 EMD d   1      56.569   5.890   3.184  0.00  0.00    -0.037 C 
ATOM     11  C18 EMD d   1      55.607   7.148  -0.822  0.00  0.00     0.258 C 
ATOM     12  O18 EMD d   1      55.938   6.509  -1.820  0.00  0.00    -0.267 OA
ATOM     13  H9  EMD d   1      58.434   3.900   3.248  0.00  0.00     0.085 H 
ATOM     14  H10 EMD d   1      57.710   5.537  -1.395  0.00  0.00     0.087 H 
ATOM     15  H11 EMD d   1      59.348   3.722  -0.954  0.00  0.00     0.084 H 
ATOM     16  H12 EMD d   1      54.589   7.543   1.734  0.00  0.00     0.065 H 
ATOM     17  H13 EMD d   1      55.870   8.751   1.383  0.00  0.00     0.065 H 
ATOM     18  H14 EMD d   1      55.660   7.769   3.757  0.00  0.00     0.035 H 
ATOM     19  H15 EMD d   1      57.284   7.925   3.006  0.00  0.00     0.035 H 
ATOM     20  H16 EMD d   1      57.151   5.754   4.107  0.00  0.00     0.040 H 
ATOM     21  H17 EMD d   1      55.603   5.373   3.280  0.00  0.00     0.040 H 
ENDROOT
BRANCH  11  22
ATOM     22  C19 EMD d   1      54.588   8.273  -1.021  0.00  0.00     0.035 A 
ATOM     23  C20 EMD d   1      54.924   9.393  -1.793  0.00  0.00    -0.033 A 
ATOM     24  C21 EMD d   1      54.053  10.492  -1.852  0.00  0.00     0.102 A 
ATOM     25  H18 EMD d   1      55.857   9.411  -2.345  0.00  0.00     0.089 H 
ATOM     26  C22 EMD d   1      52.860  10.472  -1.149  0.00  0.00     0.101 A 
ATOM     27  C23 EMD d   1      52.519   9.353  -0.375  0.00  0.00    -0.047 A 
ATOM     28  C24 EMD d   1      53.382   8.254  -0.311  0.00  0.00    -0.065 A 
ATOM     29  H19 EMD d   1      51.585   9.340   0.175  0.00  0.00     0.087 H 
ATOM     30  H20 EMD d   1      53.117   7.390   0.287  0.00  0.00     0.085 H 
BRANCH  24  31
ATOM     31  O21 EMD d   1      54.433  11.586  -2.638  0.00  0.00    -0.353 OA
BRANCH  31  32
ATOM     32  C25 EMD d   1      55.792  11.861  -3.063  0.00  0.00     0.010 C 
ATOM     33  H21 EMD d   1      55.808  12.779  -3.668  0.00  0.00     0.066 H 
ATOM     34  H22 EMD d   1      56.166  11.019  -3.664  0.00  0.00     0.066 H 
ATOM     35  H23 EMD d   1      56.433  11.993  -2.179  0.00  0.00     0.066 H 
ENDBRANCH  31  32
ENDBRANCH  24  31
BRANCH  26  36
ATOM     36  O22 EMD d   1      51.961  11.544  -1.176  0.00  0.00    -0.353 OA
BRANCH  36  37
ATOM     37  C26 EMD d   1      51.040  11.867  -0.104  0.00  0.00     0.010 C 
ATOM     38  H24 EMD d   1      50.450  12.753  -0.382  0.00  0.00     0.066 H 
ATOM     39  H25 EMD d   1      51.606  12.077   0.815  0.00  0.00     0.066 H 
ATOM     40  H26 EMD d   1      50.364  11.016   0.068  0.00  0.00     0.066 H 
ENDBRANCH  36  37
ENDBRANCH  26  36
ENDBRANCH  11  22
BRANCH   1  41
ATOM     41  C5  EMD d   1      60.022   2.550   1.451  0.00  0.00     0.160 C 
ATOM     42  N4  EMD d   1      61.273   2.749   1.208  0.00  0.00     0.017 N 
ATOM     43  N3  EMD d   1      62.425   2.113   1.617  0.00  0.00    -0.178 N 
ATOM     44  H2  EMD d   1      61.325   2.697   0.203  0.00  0.00     0.307 HD
ATOM     45  H3  EMD d   1      61.417   3.702   1.503  0.00  0.00     0.307 HD
ATOM     46  C2  EMD d   1      62.469   1.123   2.501  0.00  0.00     0.303 C 
ATOM     47  H1  EMD d   1      63.290   2.419   1.220  0.00  0.00     0.197 HD
ATOM     48  S1  EMD d   1      60.959   0.574   3.266  0.00  0.00    -0.061 SA
ATOM     49  O2  EMD d   1      63.522   0.522   2.708  0.00  0.00    -0.259 OA
ATOM     50  C6  EMD d   1      59.635   1.301   2.271  0.00  0.00     0.030 C 
ATOM     51  H5  EMD d   1      58.831   1.601   2.958  0.00  0.00     0.060 H 
ATOM     52  H4  EMD d   1      59.833   2.060   0.484  0.00  0.00     0.097 H 
BRANCH  50  53
ATOM     53  C7  EMD d   1      59.103   0.212   1.339  0.00  0.00    -0.062 C 
ATOM     54  H6  EMD d   1      58.294   0.624   0.718  0.00  0.00     0.029 H 
ATOM     55  H7  EMD d   1      58.716  -0.626   1.937  0.00  0.00     0.029 H 
ATOM     56  H8  EMD d   1      59.917  -0.145   0.691  0.00  0.00     0.029 H 
ENDBRANCH  50  53
ENDBRANCH   1  41
TORSDOF 7
