REMARK WARNING: 32 MAX_TORS EXCEEDED!!!
REMARK  48 active torsions:
REMARK  status: ('A' for Active; 'I' for Inactive)
REMARK    1  A    between atoms: C_1  and  CH3_3 
REMARK       I    between atoms: N_4  and  C_1 
REMARK    2  A    between atoms: CA_5  and  N_4 
REMARK    3  A    between atoms: C_6  and  CA_5 
REMARK    4  A    between atoms: CA_5  and  CB_8 
REMARK       I    between atoms: N_15  and  C_6 
REMARK    5  A    between atoms: CB_8  and  CG_9 
REMARK    6  A    between atoms: C_17  and  CA_16 
REMARK       I    between atoms: N_22  and  C_17 
REMARK    7  A    between atoms: CA_23  and  N_22 
REMARK    8  A    between atoms: C_24  and  CA_23 
REMARK    9  A    between atoms: CA_23  and  CB_26 
REMARK   10  A    between atoms: C5_38  and  C_24 
REMARK   11  A    between atoms: CB_26  and  CG_27 
REMARK   12  A    between atoms: CG_27  and  CD_28 
REMARK   13  A    between atoms: CD_28  and  NE_29 
REMARK       I    between atoms: NE_29  and  CZ_30 
REMARK       I    between atoms: CZ_30  and  NH1_31 
REMARK       I    between atoms: CZ_30  and  NH2_32 
REMARK   14  A    between atoms: C1_33  and  C2_35 
REMARK       I    between atoms: N_45  and  C1_33 
REMARK   15  A    between atoms: C2_35  and  C3_36 
REMARK   16  A    between atoms: C3_36  and  C4_37 
REMARK   17  A    between atoms: C4_37  and  C5_38 
REMARK   18  A    between atoms: C_39  and  C1_41 
REMARK       I    between atoms: N_52  and  C_39 
REMARK   19  A    between atoms: C1_41  and  C2_42 
REMARK   20  A    between atoms: C2_42  and  C3_43 
REMARK   21  A    between atoms: C3_43  and  C4_44 
REMARK   22  A    between atoms: C4_44  and  N_45 
REMARK   23  A    between atoms: C1_48  and  C_46 
REMARK       I    between atoms: C_46  and  N_53 
REMARK   24  A    between atoms: C2_49  and  C1_48 
REMARK   25  A    between atoms: C3_50  and  C2_49 
REMARK   26  A    between atoms: C4_51  and  C3_50 
REMARK   27  A    between atoms: C4_51  and  N_52 
REMARK   28  A    between atoms: N_53  and  CA_54 
REMARK   29  A    between atoms: CA_54  and  C_55 
REMARK   30  A    between atoms: CA_54  and  CB_57 
REMARK       I    between atoms: C_55  and  N_61 
REMARK   31  A    between atoms: CB_57  and  CG_58 
REMARK   32  A    between atoms: N_61  and  CA_62 
REMARK   33  A    between atoms: CA_62  and  C_63 
REMARK   34  A    between atoms: CA_62  and  CB_65 
REMARK       I    between atoms: C_63  and  N_72 
REMARK   35  A    between atoms: CB_65  and  CG_66 
REMARK   36  A    between atoms: N_72  and  CA_73 
REMARK   37  A    between atoms: CA_73  and  C_74 
REMARK   38  A    between atoms: CA_73  and  CB_76 
REMARK       I    between atoms: C_74  and  N_81 
REMARK   39  A    between atoms: CB_76  and  CG_77 
REMARK   40  A    between atoms: CG_77  and  CD_78 
REMARK   41  A    between atoms: CA_82  and  C_83 
REMARK       I    between atoms: C_83  and  N_88 
REMARK   42  A    between atoms: N_88  and  CA_89 
REMARK   43  A    between atoms: CA_89  and  C_90 
REMARK   44  A    between atoms: CA_89  and  CB_92 
REMARK       I    between atoms: C_90  and  N_96 
REMARK   45  A    between atoms: CB_92  and  CG1_93 
REMARK   46  A    between atoms: CB_92  and  CG2_94 
REMARK   47  A    between atoms: CG1_93  and  CD1_95 
REMARK   48  A    between atoms: CA_97  and  C_98 
REMARK       I    between atoms: C_98  and  N_103 
ROOT
ATOM      1  C1  FBE d   1       9.296  16.570   2.539  0.00  0.00     0.024 C 
ATOM      2  H48 FBE d   1      10.128  17.276   2.398  0.00  0.00     0.053 H 
ATOM      3  H49 FBE d   1       9.624  15.557   2.262  0.00  0.00     0.053 H 
ENDROOT
BRANCH   1   4
ATOM      4  C   FBE d   1       8.171  16.975   1.590  0.00  0.00     0.221 C 
ATOM      5  O   FBE d   1       8.304  16.990   0.372  0.00  0.00    -0.273 OA
ATOM      6  N   ASP d   1       7.000  17.243   2.152  0.00  0.00    -0.347 N 
ATOM      7  H55 ASP d   1       6.907  17.070   3.133  0.00  0.00     0.163 HD
BRANCH   6   8
ATOM      8  CA  ASP d   1       5.853  17.764   1.455  0.00  0.00     0.098 C 
ATOM      9  H56 ASP d   1       5.807  17.325   0.447  0.00  0.00     0.088 H 
BRANCH   8  10
ATOM     10  C   ASP d   1       5.939  19.283   1.319  0.00  0.00     0.241 C 
ATOM     11  O   ASP d   1       4.922  19.976   1.321  0.00  0.00    -0.271 OA
ATOM     12  N   PHE d   1       7.131  19.852   1.214  0.00  0.00    -0.346 N 
ATOM     13  H59 PHE d   1       7.947  19.276   1.156  0.00  0.00     0.163 HD
BRANCH  12  14
ATOM     14  CA  PHE d   1       7.273  21.287   1.182  0.00  0.00     0.093 C 
ATOM     15  H60 PHE d   1       6.483  21.756   1.787  0.00  0.00     0.088 H 
BRANCH  14  16
ATOM     16  C   PHE d   1       7.127  21.705  -0.263  0.00  0.00     0.241 C 
ATOM     17  O   PHE d   1       7.638  21.062  -1.184  0.00  0.00    -0.271 OA
ATOM     18  N   GLU d   1       6.400  22.795  -0.460  0.00  0.00    -0.346 N 
ATOM     19  H68 GLU d   1       5.988  23.256   0.326  0.00  0.00     0.163 HD
BRANCH  18  20
ATOM     20  CA  GLU d   1       6.188  23.334  -1.788  0.00  0.00     0.090 C 
ATOM     21  H69 GLU d   1       5.961  22.535  -2.509  0.00  0.00     0.087 H 
BRANCH  20  22
ATOM     22  C   GLU d   1       7.482  24.040  -2.195  0.00  0.00     0.243 C 
ATOM     23  O   GLU d   1       8.081  24.715  -1.348  0.00  0.00    -0.271 OA
ATOM     24  N   PRO d   1       8.009  23.906  -3.421  0.00  0.00    -0.337 N 
ATOM     25  CA  PRO d   1       9.276  24.506  -3.823  0.00  0.00     0.091 C 
ATOM     26  CD  PRO d   1       7.456  23.111  -4.517  0.00  0.00    -0.001 C 
ATOM     27  CB  PRO d   1       9.540  23.953  -5.204  0.00  0.00    -0.036 C 
ATOM     28  H74 PRO d   1      10.070  24.169  -3.140  0.00  0.00     0.087 H 
ATOM     29  CG  PRO d   1       8.147  23.724  -5.736  0.00  0.00    -0.048 C 
ATOM     30  H75 PRO d   1      10.106  23.011  -5.154  0.00  0.00     0.036 H 
ATOM     31  H76 PRO d   1      10.088  24.677  -5.824  0.00  0.00     0.036 H 
ATOM     32  H77 PRO d   1       8.151  23.029  -6.588  0.00  0.00     0.035 H 
ATOM     33  H78 PRO d   1       7.670  24.669  -6.036  0.00  0.00     0.035 H 
ATOM     34  H79 PRO d   1       6.363  23.222  -4.579  0.00  0.00     0.064 H 
ATOM     35  H80 PRO d   1       7.711  22.047  -4.407  0.00  0.00     0.064 H 
BRANCH  25  36
ATOM     36  C   PRO d   1       9.252  26.012  -3.786  0.00  0.00     0.241 C 
ATOM     37  O   PRO d   1       8.286  26.717  -4.116  0.00  0.00    -0.271 OA
ATOM     38  N   ILE d   1      10.361  26.478  -3.272  0.00  0.00    -0.346 N 
ATOM     39  H81 ILE d   1      11.064  25.850  -2.938  0.00  0.00     0.163 HD
BRANCH  38  40
ATOM     40  CA  ILE d   1      10.561  27.898  -3.191  0.00  0.00     0.092 C 
ATOM     41  H82 ILE d   1       9.614  28.436  -3.350  0.00  0.00     0.088 H 
BRANCH  40  42
ATOM     42  C   ILE d   1      11.523  28.200  -4.331  0.00  0.00     0.243 C 
ATOM     43  O   ILE d   1      12.184  27.274  -4.821  0.00  0.00    -0.271 OA
ATOM     44  N   PRO d   1      11.498  29.421  -4.868  0.00  0.00    -0.337 N 
ATOM     45  CA  PRO d   1      12.574  29.976  -5.681  0.00  0.00     0.091 C 
ATOM     46  CD  PRO d   1      10.322  30.287  -4.880  0.00  0.00    -0.001 C 
ATOM     47  CB  PRO d   1      11.934  31.211  -6.302  0.00  0.00    -0.036 C 
ATOM     48  H92 PRO d   1      12.834  29.265  -6.479  0.00  0.00     0.087 H 
ATOM     49  CG  PRO d   1      10.878  31.636  -5.303  0.00  0.00    -0.048 C 
ATOM     50  H93 PRO d   1      11.475  30.965  -7.271  0.00  0.00     0.036 H 
ATOM     51  H94 PRO d   1      12.680  32.007  -6.441  0.00  0.00     0.036 H 
ATOM     52  H95 PRO d   1      10.105  32.262  -5.773  0.00  0.00     0.035 H 
ATOM     53  H96 PRO d   1      11.320  32.176  -4.452  0.00  0.00     0.035 H 
ATOM     54  H97 PRO d   1       9.867  30.346  -3.880  0.00  0.00     0.064 H 
ATOM     55  H98 PRO d   1       9.575  29.926  -5.602  0.00  0.00     0.064 H 
BRANCH  45  56
ATOM     56  C   PRO d   1      13.853  30.251  -4.886  0.00  0.00     0.238 C 
ATOM     57  O   PRO d   1      13.823  31.044  -3.941  0.00  0.00    -0.271 OA
ATOM     58  N   LEU d   1      14.868  29.633  -5.201  0.00  0.00    -0.368 N 
ATOM     59  H99 LEU d   1      15.722  29.787  -4.704  0.00  0.00     0.159 HD
ATOM     60 0H10 LEU d   1      14.840  28.976  -5.955  0.00  0.00     0.159 HD
ENDBRANCH  45  56
ENDBRANCH  40  42
BRANCH  40  61
ATOM     61  CB  ILE d   1      11.120  28.265  -1.764  0.00  0.00    -0.030 C 
ATOM     62  H83 ILE d   1      11.240  29.357  -1.701  0.00  0.00     0.043 H 
BRANCH  61  63
ATOM     63  CG1 ILE d   1      12.450  27.625  -1.414  0.00  0.00    -0.063 C 
ATOM     64  H84 ILE d   1      13.191  27.909  -2.176  0.00  0.00     0.033 H 
ATOM     65  H85 ILE d   1      12.327  26.532  -1.411  0.00  0.00     0.033 H 
BRANCH  63  66
ATOM     66  CD1 ILE d   1      12.962  28.066  -0.042  0.00  0.00    -0.076 C 
ATOM     67  H89 ILE d   1      13.925  27.576   0.165  0.00  0.00     0.027 H 
ATOM     68  H90 ILE d   1      12.233  27.781   0.731  0.00  0.00     0.027 H 
ATOM     69  H91 ILE d   1      13.097  29.158  -0.034  0.00  0.00     0.027 H 
ENDBRANCH  63  66
ENDBRANCH  61  63
BRANCH  61  70
ATOM     70  CG2 ILE d   1      10.062  27.802  -0.773  0.00  0.00    -0.071 C 
ATOM     71  H86 ILE d   1       9.096  28.265  -1.025  0.00  0.00     0.028 H 
ATOM     72  H87 ILE d   1      10.357  28.099   0.244  0.00  0.00     0.028 H 
ATOM     73  H88 ILE d   1       9.968  26.707  -0.822  0.00  0.00     0.028 H 
ENDBRANCH  61  70
ENDBRANCH  40  61
ENDBRANCH  38  40
ENDBRANCH  25  36
ENDBRANCH  20  22
BRANCH  20  74
ATOM     74  CB  GLU d   1       5.010  24.265  -1.671  0.00  0.00    -0.029 C 
ATOM     75  H70 GLU d   1       5.260  25.001  -0.892  0.00  0.00     0.037 H 
ATOM     76  H71 GLU d   1       4.154  23.658  -1.341  0.00  0.00     0.037 H 
BRANCH  74  77
ATOM     77  CG  GLU d   1       4.555  25.043  -2.879  0.00  0.00     0.018 C 
ATOM     78  H72 GLU d   1       4.104  24.348  -3.602  0.00  0.00     0.049 H 
ATOM     79  H73 GLU d   1       5.427  25.534  -3.337  0.00  0.00     0.049 H 
BRANCH  77  80
ATOM     80  CD  GLU d   1       3.529  26.104  -2.509  0.00  0.00     0.172 C 
ATOM     81  OE1 GLU d   1       2.536  25.821  -1.832  0.00  0.00    -0.648 OA
ATOM     82  OE2 GLU d   1       3.747  27.239  -2.903  0.00  0.00    -0.648 OA
ENDBRANCH  77  80
ENDBRANCH  74  77
ENDBRANCH  20  74
ENDBRANCH  18  20
ENDBRANCH  14  16
BRANCH  14  83
ATOM     83  CB  PHE d   1       8.654  21.704   1.743  0.00  0.00    -0.014 C 
ATOM     84  H61 PHE d   1       8.864  22.739   1.434  0.00  0.00     0.043 H 
ATOM     85  H62 PHE d   1       9.422  21.035   1.327  0.00  0.00     0.043 H 
BRANCH  83  86
ATOM     86  CG  PHE d   1       8.707  21.626   3.263  0.00  0.00    -0.056 A 
ATOM     87  CD1 PHE d   1       9.048  20.447   3.900  0.00  0.00    -0.077 A 
ATOM     88  CE1 PHE d   1       9.039  20.390   5.282  0.00  0.00    -0.082 A 
ATOM     89  H63 PHE d   1       9.321  19.573   3.320  0.00  0.00     0.084 H 
ATOM     90  CZ  PHE d   1       8.700  21.502   6.024  0.00  0.00    -0.083 A 
ATOM     91  H65 PHE d   1       9.300  19.466   5.785  0.00  0.00     0.083 H 
ATOM     92  CE2 PHE d   1       8.369  22.676   5.388  0.00  0.00    -0.082 A 
ATOM     93  H67 PHE d   1       8.694  21.451   7.107  0.00  0.00     0.083 H 
ATOM     94  CD2 PHE d   1       8.371  22.743   4.010  0.00  0.00    -0.077 A 
ATOM     95  H66 PHE d   1       8.106  23.551   5.971  0.00  0.00     0.083 H 
ATOM     96  H64 PHE d   1       8.110  23.670   3.512  0.00  0.00     0.084 H 
ENDBRANCH  83  86
ENDBRANCH  14  83
ENDBRANCH  12  14
ENDBRANCH   8  10
BRANCH   8  97
ATOM     97  CB  ASP d   1       4.618  17.338   2.248  0.00  0.00     0.043 C 
ATOM     98  H57 ASP d   1       4.546  16.243   2.175  0.00  0.00     0.052 H 
ATOM     99  H58 ASP d   1       3.744  17.796   1.761  0.00  0.00     0.052 H 
BRANCH  97 100
ATOM    100  CG  ASP d   1       4.548  17.700   3.741  0.00  0.00     0.175 C 
ATOM    101  OD1 ASP d   1       5.561  18.009   4.380  0.00  0.00    -0.648 OA
ATOM    102  OD2 ASP d   1       3.444  17.658   4.276  0.00  0.00    -0.648 OA
ENDBRANCH  97 100
ENDBRANCH   8  97
ENDBRANCH   6   8
ENDBRANCH   1   4
BRANCH   1 103
ATOM    103  C2  FBE d   1       8.937  16.558   4.018  0.00  0.00    -0.097 C 
ATOM    104  H50 FBE d   1       7.889  16.663   4.295  0.00  0.00     0.077 H 
BRANCH 103 105
ATOM    105  C3  FBE d   1       9.829  16.427   4.982  0.00  0.00    -0.089 C 
ATOM    106  H51 FBE d   1      10.887  16.323   4.745  0.00  0.00     0.078 H 
BRANCH 105 107
ATOM    107  C4  FBE d   1       9.357  16.424   6.431  0.00  0.00     0.010 C 
ATOM    108  H52 FBE d   1       8.702  15.553   6.576  0.00  0.00     0.070 H 
ATOM    109  H53 FBE d   1       8.784  17.347   6.607  0.00  0.00     0.070 H 
BRANCH 107 110
ATOM    110  N   FBE d   1      10.423  16.358   7.418  0.00  0.00    -0.357 N 
ATOM    111  C   FBE d   1      11.197  17.415   7.663  0.00  0.00     0.221 C 
ATOM    112  O   FBE d   1      11.008  18.515   7.128  0.00  0.00    -0.273 OA
ATOM    113  H54 FBE d   1      10.578  15.507   7.920  0.00  0.00     0.162 HD
BRANCH 111 114
ATOM    114  C1  FBE d   1      12.350  17.164   8.612  0.00  0.00     0.024 C 
ATOM    115  H41 FBE d   1      13.252  17.611   8.170  0.00  0.00     0.053 H 
ATOM    116  H42 FBE d   1      12.484  16.076   8.697  0.00  0.00     0.053 H 
BRANCH 114 117
ATOM    117  C2  FBE d   1      12.197  17.717  10.001  0.00  0.00    -0.097 C 
ATOM    118  H43 FBE d   1      11.226  18.023  10.387  0.00  0.00     0.077 H 
BRANCH 117 119
ATOM    119  C3  FBE d   1      13.289  17.815  10.732  0.00  0.00    -0.089 C 
ATOM    120  H44 FBE d   1      14.252  17.497  10.335  0.00  0.00     0.078 H 
BRANCH 119 121
ATOM    121  C4  FBE d   1      13.181  18.377  12.131  0.00  0.00     0.010 C 
ATOM    122  H45 FBE d   1      12.727  17.608  12.773  0.00  0.00     0.070 H 
ATOM    123  H46 FBE d   1      12.524  19.259  12.095  0.00  0.00     0.070 H 
BRANCH 121 124
ATOM    124  N   FBE d   1      14.437  18.777  12.729  0.00  0.00    -0.358 N 
ATOM    125  C1  A5R d   1      15.322  17.907  13.182  0.00  0.00     0.217 C 
ATOM    126  O1  A5R d   1      15.021  16.712  13.254  0.00  0.00    -0.274 OA
ATOM    127  H47 FBE d   1      14.643  19.753  12.802  0.00  0.00     0.162 HD
BRANCH 125 128
ATOM    128  C2  A5R d   1      16.628  18.524  13.691  0.00  0.00     0.009 C 
ATOM    129  H33 A5R d   1      16.572  19.611  13.536  0.00  0.00     0.047 H 
ATOM    130  H34 A5R d   1      17.454  18.110  13.094  0.00  0.00     0.047 H 
BRANCH 128 131
ATOM    131  C3  A5R d   1      16.945  18.273  15.176  0.00  0.00    -0.057 C 
ATOM    132  H35 A5R d   1      17.880  18.790  15.437  0.00  0.00     0.033 H 
ATOM    133  H36 A5R d   1      17.065  17.192  15.341  0.00  0.00     0.033 H 
BRANCH 131 134
ATOM    134  C4  A5R d   1      15.830  18.789  16.060  0.00  0.00    -0.058 C 
ATOM    135  H37 A5R d   1      14.869  18.426  15.665  0.00  0.00     0.033 H 
ATOM    136  H38 A5R d   1      15.843  19.889  16.040  0.00  0.00     0.033 H 
BRANCH 134 137
ATOM    137  C5  A5R d   1      15.973  18.325  17.500  0.00  0.00    -0.008 C 
ATOM    138  H39 A5R d   1      16.206  17.250  17.498  0.00  0.00     0.044 H 
ATOM    139  H40 A5R d   1      16.802  18.879  17.964  0.00  0.00     0.044 H 
BRANCH 137 140
ATOM    140  C   A5R d   1      14.707  18.547  18.343  0.00  0.00     0.149 C 
ATOM    141  O   A5R d   1      13.788  19.256  17.871  0.00  0.00    -0.296 OA
BRANCH 140 142
ATOM    142  CA  A5R d   1      14.785  18.283  19.858  0.00  0.00     0.070 C 
ATOM    143  H21 A5R d   1      14.457  17.244  20.006  0.00  0.00     0.084 H 
BRANCH 142 144
ATOM    144  N   A5R d   1      16.115  18.399  20.471  0.00  0.00    -0.348 N 
ATOM    145  C   PRO d   1      16.897  17.286  20.503  0.00  0.00     0.241 C 
ATOM    146  O   PRO d   1      16.494  16.233  20.000  0.00  0.00    -0.271 OA
ATOM    147  H20 A5R d   1      16.435  19.267  20.852  0.00  0.00     0.163 HD
BRANCH 145 148
ATOM    148  CA  PRO d   1      18.299  17.275  21.094  0.00  0.00     0.091 C 
ATOM    149  N   PRO d   1      18.545  16.060  21.871  0.00  0.00    -0.337 N 
ATOM    150  C   DPN d   1      17.752  15.588  22.845  0.00  0.00     0.243 C 
ATOM    151  CD  PRO d   1      19.680  15.341  21.319  0.00  0.00    -0.001 C 
ATOM    152  O   DPN d   1      16.720  16.195  23.176  0.00  0.00    -0.271 OA
ATOM    153  CG  PRO d   1      20.439  16.432  20.605  0.00  0.00    -0.048 C 
ATOM    154  H18 PRO d   1      19.353  14.559  20.618  0.00  0.00     0.064 H 
ATOM    155  H19 PRO d   1      20.289  14.888  22.115  0.00  0.00     0.064 H 
ATOM    156  CB  PRO d   1      19.358  17.283  20.007  0.00  0.00    -0.036 C 
ATOM    157  H16 PRO d   1      21.049  17.013  21.312  0.00  0.00     0.035 H 
ATOM    158  H17 PRO d   1      21.086  16.011  19.821  0.00  0.00     0.035 H 
ATOM    159  H14 PRO d   1      19.718  18.303  19.810  0.00  0.00     0.036 H 
ATOM    160  H15 PRO d   1      18.975  16.843  19.075  0.00  0.00     0.036 H 
ATOM    161  H13 PRO d   1      18.417  18.160  21.737  0.00  0.00     0.087 H 
BRANCH 150 162
ATOM    162  CA  DPN d   1      18.034  14.251  23.535  0.00  0.00     0.093 C 
ATOM    163  H5  DPN d   1      18.776  13.664  22.974  0.00  0.00     0.088 H 
BRANCH 162 164
ATOM    164  N   DPN d   1      16.725  13.639  23.536  0.00  0.00    -0.348 N 
ATOM    165  C   ACE d   1      16.532  12.406  23.098  0.00  0.00     0.214 C 
ATOM    166  O   ACE d   1      17.468  11.702  22.698  0.00  0.00    -0.274 OA
ATOM    167  H4  DPN d   1      15.944  14.162  23.877  0.00  0.00     0.163 HD
BRANCH 165 168
ATOM    168  CH3 ACE d   1      15.088  11.918  23.145  0.00  0.00    -0.003 C 
ATOM    169  H1  ACE d   1      14.443  12.719  23.535  0.00  0.00     0.040 H 
ATOM    170  H2  ACE d   1      15.019  11.039  23.803  0.00  0.00     0.040 H 
ATOM    171  H3  ACE d   1      14.760  11.644  22.131  0.00  0.00     0.040 H 
ENDBRANCH 165 168
ENDBRANCH 162 164
BRANCH 162 172
ATOM    172  CB  DPN d   1      18.464  14.383  25.006  0.00  0.00    -0.014 C 
ATOM    173  H6  DPN d   1      18.358  13.399  25.486  0.00  0.00     0.043 H 
ATOM    174  H7  DPN d   1      17.796  15.105  25.498  0.00  0.00     0.043 H 
BRANCH 172 175
ATOM    175  CG  DPN d   1      19.895  14.853  25.194  0.00  0.00    -0.056 A 
ATOM    176  CD1 DPN d   1      20.940  14.178  24.587  0.00  0.00    -0.077 A 
ATOM    177  CE1 DPN d   1      22.234  14.633  24.750  0.00  0.00    -0.082 A 
ATOM    178  H8  DPN d   1      20.744  13.297  23.987  0.00  0.00     0.084 H 
ATOM    179  CZ  DPN d   1      22.475  15.747  25.512  0.00  0.00    -0.083 A 
ATOM    180  H10 DPN d   1      23.057  14.110  24.276  0.00  0.00     0.083 H 
ATOM    181  CE2 DPN d   1      21.431  16.410  26.117  0.00  0.00    -0.082 A 
ATOM    182  H12 DPN d   1      23.490  16.107  25.638  0.00  0.00     0.083 H 
ATOM    183  CD2 DPN d   1      20.139  15.968  25.961  0.00  0.00    -0.077 A 
ATOM    184  H11 DPN d   1      21.630  17.288  26.721  0.00  0.00     0.083 H 
ATOM    185  H9  DPN d   1      19.320  16.494  26.438  0.00  0.00     0.084 H 
ENDBRANCH 172 175
ENDBRANCH 162 172
ENDBRANCH 150 162
ENDBRANCH 145 148
ENDBRANCH 142 144
BRANCH 142 186
ATOM    186  CB  A5R d   1      13.798  19.213  20.642  0.00  0.00    -0.038 C 
ATOM    187  H22 A5R d   1      12.948  19.490  20.001  0.00  0.00     0.036 H 
ATOM    188  H23 A5R d   1      14.318  20.123  20.976  0.00  0.00     0.036 H 
BRANCH 186 189
ATOM    189  CG  A5R d   1      13.320  18.431  21.822  0.00  0.00    -0.048 C 
ATOM    190  H24 A5R d   1      14.200  18.134  22.411  0.00  0.00     0.035 H 
ATOM    191  H25 A5R d   1      12.808  17.532  21.448  0.00  0.00     0.035 H 
BRANCH 189 192
ATOM    192  CD  A5R d   1      12.370  19.159  22.740  0.00  0.00     0.009 C 
ATOM    193  H26 A5R d   1      11.661  19.768  22.160  0.00  0.00     0.064 H 
ATOM    194  H27 A5R d   1      12.924  19.805  23.436  0.00  0.00     0.064 H 
BRANCH 192 195
ATOM    195  NE  A5R d   1      11.672  18.113  23.461  0.00  0.00    -0.227 N 
ATOM    196  CZ  A5R d   1      10.878  18.359  24.509  0.00  0.00     0.665 C 
ATOM    197  NH1 A5R d   1      10.702  19.618  24.965  0.00  0.00    -0.235 N 
ATOM    198  NH2 A5R d   1      10.245  17.322  25.059  0.00  0.00    -0.235 N 
ATOM    199  H29 A5R d   1      10.087  19.792  25.773  0.00  0.00     0.174 HD
ATOM    200  H30 A5R d   1      11.182  20.404  24.505  0.00  0.00     0.174 HD
ATOM    201  H31 A5R d   1      10.397  16.372  24.692  0.00  0.00     0.174 HD
ATOM    202  H32 A5R d   1       9.604  17.471  25.851  0.00  0.00     0.174 HD
ATOM    203  H28 A5R d   1      11.793  17.138  23.153  0.00  0.00     0.177 HD
ENDBRANCH 192 195
ENDBRANCH 189 192
ENDBRANCH 186 189
ENDBRANCH 142 186
ENDBRANCH 140 142
ENDBRANCH 137 140
ENDBRANCH 134 137
ENDBRANCH 131 134
ENDBRANCH 128 131
ENDBRANCH 125 128
ENDBRANCH 121 124
ENDBRANCH 119 121
ENDBRANCH 117 119
ENDBRANCH 114 117
ENDBRANCH 111 114
ENDBRANCH 107 110
ENDBRANCH 105 107
ENDBRANCH 103 105
ENDBRANCH   1 103
TORSDOF 48
