REMARK  3 active torsions:
REMARK  status: ('A' for Active; 'I' for Inactive)
REMARK    1  A    between atoms: CB_1  and  CG_2 
REMARK    2  A    between atoms: CB_1  and  P_3 
REMARK    3  A    between atoms: CG_2  and  CD_4 
ROOT
ATOM      1  CB  3PP d   1      47.529  16.247 -10.748  0.00  0.00     0.048 C 
ATOM      2  H1  3PP d   1      48.467  15.688 -10.617  0.00  0.00     0.054 H 
ATOM      3  H2  3PP d   1      47.548  17.149 -10.119  0.00  0.00     0.054 H 
ENDROOT
BRANCH   1   4
ATOM      4  CG  3PP d   1      46.388  15.381 -10.312  0.00  0.00     0.027 C 
ATOM      5  H3  3PP d   1      46.548  14.362 -10.694  0.00  0.00     0.050 H 
ATOM      6  H4  3PP d   1      45.454  15.786 -10.728  0.00  0.00     0.050 H 
BRANCH   4   7
ATOM      7  CD  3PP d   1      46.270  15.326  -8.811  0.00  0.00     0.173 C 
ATOM      8  OE1 3PP d   1      45.281  14.800  -8.223  0.00  0.00    -0.648 OA
ATOM      9  OE2 3PP d   1      47.272  15.815  -8.209  0.00  0.00    -0.648 OA
ENDBRANCH   4   7
ENDBRANCH   1   4
BRANCH   1  10
ATOM     10  P   3PP d   1      47.390  16.746 -12.469  0.00  0.00     0.260 P 
ATOM     11  O1  3PP d   1      48.763  16.808 -13.114  0.00  0.00    -0.640 OA
ATOM     12  O2  3PP d   1      46.548  15.652 -13.097  0.00  0.00    -0.640 OA
ATOM     13  O3  3PP d   1      46.797  18.125 -12.541  0.00  0.00    -0.640 OA
ENDBRANCH   1  10
TORSDOF 3
