REMARK  16 active torsions:
REMARK  status: ('A' for Active; 'I' for Inactive)
REMARK    1  A    between atoms: P1_1  and  C8_15 
REMARK    2  A    between atoms: N1_6  and  C1_5 
REMARK    3  A    between atoms: C1_5  and  C11_19 
REMARK    4  A    between atoms: C1_5  and  C14_24 
REMARK       I    between atoms: C3_8  and  N1_6 
REMARK    5  A    between atoms: C4_11  and  C0_7 
REMARK    6  A    between atoms: C0_7  and  C3_8 
REMARK    7  A    between atoms: C0_7  and  N2_10 
REMARK       I    between atoms: N2_10  and  C12_20 
REMARK    8  A    between atoms: C5_12  and  C4_11 
REMARK    9  A    between atoms: C10_17  and  O3_18 
REMARK   10  A    between atoms: O3_18  and  C28_40 
REMARK   11  A    between atoms: C12_20  and  C13_21 
REMARK   12  A    between atoms: C17_27  and  O5_23 
REMARK   13  A    between atoms: O5_23  and  C20_30 
REMARK   14  A    between atoms: C16_26  and  C27_37 
REMARK   15  A    between atoms: C20_30  and  C21_31 
REMARK       I    between atoms: C27_37  and  N3_38 
REMARK   16  A    between atoms: C28_40  and  C29_41 
ROOT
ATOM      1  C1  CC0 d   1      59.635  27.692  33.590  0.00  0.00     0.034 C 
ATOM      2  H1  CC0 d   1      59.544  28.610  34.190  0.00  0.00     0.079 H 
ENDROOT
BRANCH   1   3
ATOM      3  N1  CC0 d   1      60.975  27.651  33.040  0.00  0.00    -0.351 N 
ATOM      4  C3  CC0 d   1      62.058  27.940  33.779  0.00  0.00     0.241 C 
ATOM      5  O2  CC0 d   1      62.030  28.579  34.828  0.00  0.00    -0.271 OA
ATOM      6  H2  CC0 d   1      61.097  27.399  32.080  0.00  0.00     0.163 HD
BRANCH   4   7
ATOM      7  C0  CC0 d   1      63.386  27.474  33.262  0.00  0.00     0.093 C 
ATOM      8  H3  CC0 d   1      63.292  27.218  32.197  0.00  0.00     0.088 H 
BRANCH   7   9
ATOM      9  C4  CC0 d   1      63.764  26.201  34.042  0.00  0.00    -0.014 C 
ATOM     10  H5  CC0 d   1      63.854  26.424  35.115  0.00  0.00     0.043 H 
ATOM     11  H6  CC0 d   1      63.002  25.422  33.892  0.00  0.00     0.043 H 
BRANCH   9  12
ATOM     12  C5  CC0 d   1      65.114  25.739  33.480  0.00  0.00    -0.054 A 
ATOM     13  C6  CC0 d   1      66.310  26.243  34.016  0.00  0.00    -0.055 A 
ATOM     14  C8  CC0 d   1      67.561  25.841  33.508  0.00  0.00     0.101 A 
ATOM     15  H7  CC0 d   1      66.270  26.953  34.834  0.00  0.00     0.086 H 
ATOM     16  C10 CC0 d   1      67.600  24.910  32.439  0.00  0.00     0.089 A 
ATOM     17  C9  CC0 d   1      66.398  24.406  31.913  0.00  0.00    -0.049 A 
ATOM     18  C7  CC0 d   1      65.157  24.814  32.425  0.00  0.00    -0.074 A 
ATOM     19  H9  CC0 d   1      66.430  23.691  31.099  0.00  0.00     0.087 H 
ATOM     20  H8  CC0 d   1      64.238  24.418  32.009  0.00  0.00     0.084 H 
BRANCH  14  21
ATOM     21  P1  CC0 d   1      69.073  26.508  34.227  0.00  0.00     0.298 P 
ATOM     22  O10 CC0 d   1      69.890  25.363  34.760  0.00  0.00    -0.636 OA
ATOM     23  OR2 CC0 d   1      69.846  27.246  33.180  0.00  0.00    -0.636 OA
ATOM     24  OR1 CC0 d   1      68.738  27.462  35.340  0.00  0.00    -0.636 OA
ENDBRANCH  14  21
BRANCH  16  25
ATOM     25  O3  CC0 d   1      68.859  24.505  31.922  0.00  0.00    -0.340 OA
BRANCH  25  26
ATOM     26  C28 CC0 d   1      68.789  23.330  31.096  0.00  0.00     0.105 C 
ATOM     27  H34 CC0 d   1      67.847  22.800  31.299  0.00  0.00     0.091 H 
ATOM     28  H35 CC0 d   1      69.638  22.671  31.330  0.00  0.00     0.091 H 
BRANCH  26  29
ATOM     29  C29 CC0 d   1      68.842  23.708  29.640  0.00  0.00     0.198 C 
ATOM     30  O8  CC0 d   1      68.306  24.744  29.251  0.00  0.00    -0.646 OA
ATOM     31  O7  CC0 d   1      69.485  22.861  28.825  0.00  0.00    -0.646 OA
ENDBRANCH  26  29
ENDBRANCH  25  26
ENDBRANCH  16  25
ENDBRANCH   9  12
ENDBRANCH   7   9
BRANCH   7  32
ATOM     32  N2  CC0 d   1      64.372  28.545  33.386  0.00  0.00    -0.348 N 
ATOM     33  C12 CC0 d   1      64.736  29.273  32.304  0.00  0.00     0.214 C 
ATOM     34  O4  CC0 d   1      64.278  29.097  31.190  0.00  0.00    -0.274 OA
ATOM     35  H4  CC0 d   1      64.781  28.742  34.277  0.00  0.00     0.163 HD
BRANCH  33  36
ATOM     36  C13 CC0 d   1      65.759  30.351  32.490  0.00  0.00    -0.003 C 
ATOM     37  H13 CC0 d   1      65.947  30.848  31.527  0.00  0.00     0.040 H 
ATOM     38  H14 CC0 d   1      66.695  29.908  32.863  0.00  0.00     0.040 H 
ATOM     39  H15 CC0 d   1      65.387  31.088  33.217  0.00  0.00     0.040 H 
ENDBRANCH  33  36
ENDBRANCH   7  32
ENDBRANCH   4   7
ENDBRANCH   1   3
BRANCH   1  40
ATOM     40  C11 CC0 d   1      58.588  27.753  32.419  0.00  0.00    -0.053 C 
ATOM     41  H10 CC0 d   1      57.571  27.784  32.838  0.00  0.00     0.030 H 
ATOM     42  H11 CC0 d   1      58.696  26.861  31.784  0.00  0.00     0.030 H 
ATOM     43  H12 CC0 d   1      58.764  28.656  31.816  0.00  0.00     0.030 H 
ENDBRANCH   1  40
BRANCH   1  44
ATOM     44  C14 CC0 d   1      59.315  26.494  34.507  0.00  0.00    -0.035 C 
ATOM     45  C19 CC0 d   1      58.162  26.778  35.250  0.00  0.00    -0.072 C 
ATOM     46  C18 CC0 d   1      57.791  25.979  36.317  0.00  0.00    -0.049 C 
ATOM     47  H18 CC0 d   1      57.553  27.635  34.986  0.00  0.00     0.084 H 
ATOM     48  C17 CC0 d   1      58.390  24.709  36.518  0.00  0.00     0.084 C 
ATOM     49  H17 CC0 d   1      57.033  26.328  37.008  0.00  0.00     0.087 H 
ATOM     50  C16 CC0 d   1      59.549  24.405  35.756  0.00  0.00     0.065 C 
ATOM     51  C15 CC0 d   1      59.989  25.296  34.759  0.00  0.00    -0.057 C 
ATOM     52  H16 CC0 d   1      60.868  25.048  34.175  0.00  0.00     0.086 H 
BRANCH  48  53
ATOM     53  O5  CC0 d   1      57.878  23.791  37.462  0.00  0.00    -0.350 OA
BRANCH  53  54
ATOM     54  C20 CC0 d   1      56.589  24.031  38.072  0.00  0.00     0.029 C 
ATOM     55  H19 CC0 d   1      56.194  24.994  37.715  0.00  0.00     0.075 H 
ATOM     56  H20 CC0 d   1      56.708  24.066  39.165  0.00  0.00     0.075 H 
BRANCH  54  57
ATOM     57  C21 CC0 d   1      55.595  22.911  37.708  0.00  0.00    -0.033 C 
ATOM     58  C26 CC0 d   1      55.865  22.422  36.252  0.00  0.00    -0.060 C 
ATOM     59  C25 CC0 d   1      54.876  21.297  35.890  0.00  0.00    -0.065 C 
ATOM     60  H30 CC0 d   1      56.894  22.041  36.179  0.00  0.00     0.033 H 
ATOM     61  H31 CC0 d   1      55.734  23.262  35.554  0.00  0.00     0.033 H 
ATOM     62  C24 CC0 d   1      53.425  21.820  36.026  0.00  0.00    -0.065 C 
ATOM     63  H28 CC0 d   1      55.053  20.973  34.854  0.00  0.00     0.033 H 
ATOM     64  H29 CC0 d   1      55.024  20.446  36.571  0.00  0.00     0.033 H 
ATOM     65  C23 CC0 d   1      53.128  22.383  37.449  0.00  0.00    -0.065 C 
ATOM     66  H26 CC0 d   1      53.268  22.621  35.289  0.00  0.00     0.033 H 
ATOM     67  H27 CC0 d   1      52.730  20.992  35.821  0.00  0.00     0.033 H 
ATOM     68  C22 CC0 d   1      54.141  23.481  37.803  0.00  0.00    -0.060 C 
ATOM     69  H24 CC0 d   1      52.112  22.805  37.469  0.00  0.00     0.033 H 
ATOM     70  H25 CC0 d   1      53.202  21.569  38.185  0.00  0.00     0.033 H 
ATOM     71  H22 CC0 d   1      54.031  24.320  37.100  0.00  0.00     0.033 H 
ATOM     72  H23 CC0 d   1      53.953  23.834  38.828  0.00  0.00     0.033 H 
ATOM     73  H21 CC0 d   1      55.711  22.070  38.407  0.00  0.00     0.043 H 
ENDBRANCH  54  57
ENDBRANCH  53  54
ENDBRANCH  48  53
BRANCH  50  74
ATOM     74  C27 CC0 d   1      60.397  23.162  36.004  0.00  0.00     0.252 C 
ATOM     75  O6  CC0 d   1      61.573  23.192  35.651  0.00  0.00    -0.268 OA
ATOM     76  N3  CC0 d   1      59.918  22.026  36.569  0.00  0.00    -0.366 N 
ATOM     77  H32 CC0 d   1      60.523  21.242  36.706  0.00  0.00     0.159 HD
ATOM     78  H33 CC0 d   1      58.959  21.972  36.848  0.00  0.00     0.159 HD
ENDBRANCH  50  74
ENDBRANCH   1  44
TORSDOF 16
