REMARK  4 active torsions:
REMARK  status: ('A' for Active; 'I' for Inactive)
REMARK    1  A    between atoms: C7_14  and  C8_15 
REMARK    2  A    between atoms: C7_14  and  C13_20 
REMARK    3  A    between atoms: C8_15  and  C9_16 
REMARK    4  A    between atoms: C9_16  and  C10_17 
ROOT
ATOM      1 CL   EFZ d   1      -7.066 145.957 174.814  0.00  0.00    -0.084 Cl
ATOM      2  O1  EFZ d   1     -11.122 141.238 170.325  0.00  0.00    -0.238 OA
ATOM      3  O2  EFZ d   1     -11.136 141.869 172.459  0.00  0.00    -0.265 OA
ATOM      4  N   EFZ d   1      -9.519 142.761 170.865  0.00  0.00    -0.302 N 
ATOM      5  C1  EFZ d   1      -8.886 143.578 171.839  0.00  0.00     0.047 A 
ATOM      6  C2  EFZ d   1      -7.608 144.172 171.594  0.00  0.00    -0.055 A 
ATOM      7  C3  EFZ d   1      -6.981 144.984 172.597  0.00  0.00    -0.060 A 
ATOM      8  C4  EFZ d   1      -7.633 145.205 173.847  0.00  0.00     0.034 A 
ATOM      9  C5  EFZ d   1      -8.911 144.611 174.077  0.00  0.00    -0.050 A 
ATOM     10  C6  EFZ d   1      -9.571 143.789 173.085  0.00  0.00     0.027 A 
ATOM     11  C7  EFZ d   1     -10.974 143.095 173.260  0.00  0.00     0.261 C 
ATOM     12  C14 EFZ d   1     -10.615 141.925 171.198  0.00  0.00     0.367 C 
ATOM     13  H1  EFZ d   1      -9.184 142.776 169.923  0.00  0.00     0.171 HD
ATOM     14  H2  EFZ d   1      -7.110 144.008 170.645  0.00  0.00     0.087 H 
ATOM     15  H3  EFZ d   1      -6.012 145.430 172.405  0.00  0.00     0.086 H 
ATOM     16  H4  EFZ d   1      -9.404 144.781 175.027  0.00  0.00     0.087 H 
ENDROOT
BRANCH  11  17
ATOM     17  C8  EFZ d   1     -11.073 142.576 174.633  0.00  0.00    -0.053 C 
BRANCH  17  18
ATOM     18  C9  EFZ d   1     -11.249 142.177 175.909  0.00  0.00    -0.098 C 
BRANCH  18  19
ATOM     19  C10 EFZ d   1     -11.419 141.675 177.261  0.00  0.00     0.006 A 
ATOM     20  C11 EFZ d   1     -11.023 140.329 177.730  0.00  0.00    -0.051 A 
ATOM     21  C12 EFZ d   1     -10.037 141.525 177.930  0.00  0.00    -0.051 A 
ATOM     22  H6  EFZ d   1     -10.787 139.542 176.999  0.00  0.00     0.035 H 
ATOM     23  H7  EFZ d   1     -11.526 139.882 178.601  0.00  0.00     0.035 H 
ATOM     24  H8  EFZ d   1      -9.855 141.937 178.934  0.00  0.00     0.035 H 
ATOM     25  H9  EFZ d   1      -9.117 141.596 177.332  0.00  0.00     0.035 H 
ATOM     26  H5  EFZ d   1     -12.274 142.164 177.750  0.00  0.00     0.059 H 
ENDBRANCH  18  19
ENDBRANCH  17  18
ENDBRANCH  11  17
BRANCH  11  27
ATOM     27  C13 EFZ d   1     -12.182 144.110 173.017  0.00  0.00     0.435 C 
ATOM     28  F1  EFZ d   1     -12.233 145.056 174.030  0.00  0.00    -0.166 F 
ATOM     29  F2  EFZ d   1     -12.038 144.765 171.793  0.00  0.00    -0.166 F 
ATOM     30  F3  EFZ d   1     -13.377 143.389 172.993  0.00  0.00    -0.166 F 
ENDBRANCH  11  27
TORSDOF 4
