REMARK  4 active torsions:
REMARK  status: ('A' for Active; 'I' for Inactive)
REMARK    1  A    between atoms: C7_14  and  C8_15 
REMARK    2  A    between atoms: C7_14  and  C13_20 
REMARK    3  A    between atoms: C8_15  and  C9_16 
REMARK    4  A    between atoms: C9_16  and  C10_17 
ROOT
ATOM      1 CL   EFZ d   1      -7.058 146.036 175.840  0.00  0.00    -0.084 Cl
ATOM      2  O1  EFZ d   1     -10.865 141.157 171.308  0.00  0.00    -0.238 OA
ATOM      3  O2  EFZ d   1     -10.992 141.856 173.418  0.00  0.00    -0.265 OA
ATOM      4  N   EFZ d   1      -9.301 142.716 171.885  0.00  0.00    -0.302 N 
ATOM      5  C1  EFZ d   1      -8.722 143.564 172.859  0.00  0.00     0.047 A 
ATOM      6  C2  EFZ d   1      -7.433 144.157 172.648  0.00  0.00    -0.055 A 
ATOM      7  C3  EFZ d   1      -6.857 145.002 173.655  0.00  0.00    -0.060 A 
ATOM      8  C4  EFZ d   1      -7.571 145.254 174.872  0.00  0.00     0.034 A 
ATOM      9  C5  EFZ d   1      -8.854 144.657 175.062  0.00  0.00    -0.050 A 
ATOM     10  C6  EFZ d   1      -9.465 143.801 174.069  0.00  0.00     0.027 A 
ATOM     11  C7  EFZ d   1     -10.869 143.097 174.206  0.00  0.00     0.261 C 
ATOM     12  C14 EFZ d   1     -10.410 141.878 172.186  0.00  0.00     0.367 C 
ATOM     13  H1  EFZ d   1      -8.920 142.706 170.960  0.00  0.00     0.171 HD
ATOM     14  H2  EFZ d   1      -6.894 143.967 171.727  0.00  0.00     0.087 H 
ATOM     15  H3  EFZ d   1      -5.883 145.449 173.495  0.00  0.00     0.086 H 
ATOM     16  H4  EFZ d   1      -9.390 144.852 175.984  0.00  0.00     0.087 H 
ENDROOT
BRANCH  11  17
ATOM     17  C8  EFZ d   1     -10.997 142.576 175.573  0.00  0.00    -0.053 C 
BRANCH  17  18
ATOM     18  C9  EFZ d   1     -11.201 142.078 176.803  0.00  0.00    -0.098 C 
BRANCH  18  19
ATOM     19  C10 EFZ d   1     -11.391 141.473 178.103  0.00  0.00     0.006 A 
ATOM     20  C11 EFZ d   1     -10.741 140.232 178.578  0.00  0.00    -0.051 A 
ATOM     21  C12 EFZ d   1     -10.104 141.615 178.934  0.00  0.00    -0.051 A 
ATOM     22  H6  EFZ d   1     -10.240 139.566 177.860  0.00  0.00     0.035 H 
ATOM     23  H7  EFZ d   1     -11.219 139.630 179.365  0.00  0.00     0.035 H 
ATOM     24  H8  EFZ d   1     -10.144 142.000 179.964  0.00  0.00     0.035 H 
ATOM     25  H9  EFZ d   1      -9.165 141.936 178.459  0.00  0.00     0.035 H 
ATOM     26  H5  EFZ d   1     -12.388 141.717 178.498  0.00  0.00     0.059 H 
ENDBRANCH  18  19
ENDBRANCH  17  18
ENDBRANCH  11  17
BRANCH  11  27
ATOM     27  C13 EFZ d   1     -12.059 144.102 173.905  0.00  0.00     0.435 C 
ATOM     28  F1  EFZ d   1     -12.058 145.160 174.803  0.00  0.00    -0.166 F 
ATOM     29  F2  EFZ d   1     -11.930 144.579 172.611  0.00  0.00    -0.166 F 
ATOM     30  F3  EFZ d   1     -13.268 143.433 173.999  0.00  0.00    -0.166 F 
ENDBRANCH  11  27
TORSDOF 4
