REMARK  5 active torsions:
REMARK  status: ('A' for Active; 'I' for Inactive)
REMARK    1  A    between atoms: S17_17  and  C1_1 
REMARK    2  A    between atoms: C3_3  and  N18_18 
REMARK    3  A    between atoms: C16_16  and  C10_10 
REMARK    4  A    between atoms: C16_16  and  S17_17 
REMARK    5  A    between atoms: C16_16  and  C21_20 
ROOT
ATOM      1  C16 PNU d   1     -12.403 142.871 173.900  0.00  0.00     0.037 C 
ATOM      2  H6  PNU d   1     -11.992 143.808 174.305  0.00  0.00     0.066 H 
ENDROOT
BRANCH   1   3
ATOM      3  C10 PNU d   1     -12.117 141.704 174.843  0.00  0.00     0.049 A 
ATOM      4  N9  PNU d   1     -12.494 140.398 174.602  0.00  0.00    -0.261 NA
ATOM      5  C8  PNU d   1     -12.270 139.377 175.494  0.00  0.00     0.036 A 
ATOM      6  C7  PNU d   1     -11.620 139.718 176.709  0.00  0.00     0.102 A 
ATOM      7  H2  PNU d   1     -12.575 138.359 175.280  0.00  0.00     0.119 H 
ATOM      8  C12 PNU d   1     -11.223 141.041 176.976  0.00  0.00     0.003 A 
ATOM      9  O14 PNU d   1     -11.302 138.828 177.758  0.00  0.00    -0.320 OA
ATOM     10  C11 PNU d   1     -11.455 142.078 176.050  0.00  0.00    -0.045 A 
ATOM     11  C13 PNU d   1     -10.592 140.946 178.344  0.00  0.00    -0.049 A 
ATOM     12  H3  PNU d   1     -11.148 143.100 176.244  0.00  0.00     0.088 H 
ATOM     13  C15 PNU d   1     -10.696 139.641 178.688  0.00  0.00     0.020 A 
ATOM     14  H4  PNU d   1     -10.149 141.752 178.927  0.00  0.00     0.087 H 
ATOM     15  H5  PNU d   1     -10.325 139.260 179.638  0.00  0.00     0.123 H 
ENDBRANCH   1   3
BRANCH   1  16
ATOM     16  S17 PNU d   1     -11.601 142.460 172.299  0.00  0.00    -0.079 SA
BRANCH  16  17
ATOM     17  C1  PNU d   1      -9.898 142.887 172.623  0.00  0.00     0.192 A 
ATOM     18  N2  PNU d   1      -8.979 142.699 171.616  0.00  0.00    -0.206 NA
ATOM     19  C3  PNU d   1      -7.658 143.029 171.844  0.00  0.00     0.127 A 
ATOM     20  C4  PNU d   1      -7.273 143.558 173.124  0.00  0.00     0.000 A 
ATOM     21  C5  PNU d   1      -8.238 143.739 174.141  0.00  0.00     0.132 A 
ATOM     22  H1  PNU d   1      -6.238 143.819 173.310  0.00  0.00     0.094 H 
ATOM     23  N6  PNU d   1      -9.579 143.372 173.819  0.00  0.00    -0.211 NA
ATOM     24 CL19 PNU d   1      -7.904 144.306 175.565  0.00  0.00    -0.062 Cl
BRANCH  19  25
ATOM     25  N18 PNU d   1      -6.682 142.848 170.811  0.00  0.00    -0.384 N 
ATOM     26  H7  PNU d   1      -5.697 143.095 170.984  0.00  0.00     0.157 HD
ATOM     27  H8  PNU d   1      -6.965 142.471 169.895  0.00  0.00     0.157 HD
ENDBRANCH  19  25
ENDBRANCH  16  17
ENDBRANCH   1  16
BRANCH   1  28
ATOM     28  C21 PNU d   1     -13.948 143.003 173.715  0.00  0.00    -0.059 C 
ATOM     29  H9  PNU d   1     -14.166 143.841 173.037  0.00  0.00     0.029 H 
ATOM     30  H10 PNU d   1     -14.420 143.189 174.691  0.00  0.00     0.029 H 
ATOM     31  H11 PNU d   1     -14.347 142.072 173.286  0.00  0.00     0.029 H 
ENDBRANCH   1  28
TORSDOF 5
