REMARK  1 active torsions:
REMARK  status: ('A' for Active; 'I' for Inactive)
REMARK    1  A    between atoms: C2_8  and  N2_9 
ROOT
ATOM      1  N9  7DG d   1      -1.079   0.558   7.842  0.00  0.00    -0.349 N 
ATOM      2  C8  7DG d   1      -1.690   0.959   6.711  0.00  0.00    -0.020 A 
ATOM      3  C7  7DG d   1      -0.753   1.491   5.821  0.00  0.00    -0.049 A 
ATOM      4  C5  7DG d   1       0.478   1.389   6.469  0.00  0.00     0.080 A 
ATOM      5  C6  7DG d   1       1.792   1.736   6.128  0.00  0.00     0.273 A 
ATOM      6  O6  7DG d   1       2.099   2.252   5.077  0.00  0.00    -0.267 OA
ATOM      7  N1  7DG d   1       2.765   1.472   7.039  0.00  0.00    -0.154 N 
ATOM      8  C2  7DG d   1       2.499   0.897   8.245  0.00  0.00     0.702 A 
ATOM      9  N3  7DG d   1       1.236   0.564   8.595  0.00  0.00    -0.046 NA
ATOM     10  C4  7DG d   1       0.236   0.806   7.715  0.00  0.00     0.162 A 
ATOM     11  H1  7DG d   1      -1.539   0.135   8.661  0.00  0.00     0.166 HD
ATOM     12  H2  7DG d   1      -2.759   0.880   6.518  0.00  0.00     0.111 H 
ATOM     13  H3  7DG d   1      -0.944   1.899   4.830  0.00  0.00     0.087 H 
ATOM     14  H4  7DG d   1       3.711   1.708   6.816  0.00  0.00     0.187 HD
ENDROOT
BRANCH   8  15
ATOM     15  N2  7DG d   1       3.465   0.636   9.143  0.00  0.00    -0.233 N 
ATOM     16  H5  7DG d   1       3.225   0.200  10.045  0.00  0.00     0.174 HD
ATOM     17  H6  7DG d   1       4.444   0.872   8.929  0.00  0.00     0.174 HD
ENDBRANCH   8  15
TORSDOF 1
