REMARK  1 active torsions:
REMARK  status: ('A' for Active; 'I' for Inactive)
REMARK    1  A    between atoms: C2_8  and  N2_9 
ROOT
ATOM      1  C9  9DG d   1      -1.314   0.787   7.810  0.00  0.00    -0.037 A 
ATOM      2  C8  9DG d   1      -1.876   1.024   6.605  0.00  0.00    -0.020 A 
ATOM      3  N7  9DG d   1      -0.908   1.333   5.662  0.00  0.00    -0.359 N 
ATOM      4  C5  9DG d   1       0.269   1.260   6.367  0.00  0.00     0.131 A 
ATOM      5  C6  9DG d   1       1.698   1.460   6.005  0.00  0.00     0.288 A 
ATOM      6  O6  9DG d   1       2.039   1.760   4.888  0.00  0.00    -0.265 OA
ATOM      7  N1  9DG d   1       2.596   1.283   7.005  0.00  0.00    -0.153 N 
ATOM      8  C2  9DG d   1       2.296   0.972   8.185  0.00  0.00     0.701 A 
ATOM      9  N3  9DG d   1       1.007   0.779   8.593  0.00  0.00    -0.063 NA
ATOM     10  C4  9DG d   1       0.008   0.924   7.681  0.00  0.00     0.109 A 
ATOM     11  H1  9DG d   1      -1.845   0.530   8.725  0.00  0.00     0.089 H 
ATOM     12  H2  9DG d   1      -2.945   0.979   6.402  0.00  0.00     0.111 H 
ATOM     13  H3  9DG d   1      -1.040   1.563   4.667  0.00  0.00     0.165 HD
ATOM     14  H4  9DG d   1       3.564   1.409   6.789  0.00  0.00     0.187 HD
ENDROOT
BRANCH   8  15
ATOM     15  N2  9DG d   1       3.326   0.810   9.126  0.00  0.00    -0.233 N 
ATOM     16  H5  9DG d   1       3.100   0.555  10.098  0.00  0.00     0.174 HD
ATOM     17  H6  9DG d   1       4.307   0.946   8.844  0.00  0.00     0.174 HD
ENDBRANCH   8  15
TORSDOF 1
