REMARK  4 active torsions:
REMARK  status: ('A' for Active; 'I' for Inactive)
REMARK    1  A    between atoms: C5_1  and  N7_2 
REMARK    2  A    between atoms: C4_3  and  O9_10 
REMARK    3  A    between atoms: C2_5  and  N2_6 
REMARK    4  A    between atoms: C6_8  and  O6_9 
ROOT
ATOM      1  C5  DDP d   1     -15.305  36.134  39.568  0.00  0.00     0.134 A 
ATOM      2  C4  DDP d   1     -14.438  35.854  40.641  0.00  0.00     0.212 A 
ATOM      3  N3  DDP d   1     -14.955  35.594  41.867  0.00  0.00    -0.036 NA
ATOM      4  C2  DDP d   1     -16.285  35.597  42.088  0.00  0.00     0.725 A 
ATOM      5  N1  DDP d   1     -17.134  35.866  41.064  0.00  0.00    -0.036 NA
ATOM      6  C6  DDP d   1     -16.684  36.135  39.815  0.00  0.00     0.212 A 
ENDROOT
BRANCH   1   7
ATOM      7  N7  DDP d   1     -14.854  36.411  38.267  0.00  0.00    -0.392 N 
ATOM      8  H1  DDP d   1     -13.845  36.416  38.062  0.00  0.00     0.156 HD
ATOM      9  H2  DDP d   1     -15.533  36.609  37.518  0.00  0.00     0.156 HD
ENDBRANCH   1   7
BRANCH   2  10
ATOM     10  O9  DDP d   1     -13.058  35.841  40.457  0.00  0.00    -0.343 OA
ATOM     11  H6  DDP d   1     -12.859  36.041  39.550  0.00  0.00     0.219 HD
ENDBRANCH   2  10
BRANCH   6  12
ATOM     12  O6  DDP d   1     -17.511  36.360  38.972  0.00  0.00    -0.343 OA
ATOM     13  H5  DDP d   1     -18.082  35.606  38.881  0.00  0.00     0.219 HD
ENDBRANCH   6  12
BRANCH   4  14
ATOM     14  N2  DDP d   1     -16.783  35.322  43.370  0.00  0.00    -0.231 N 
ATOM     15  H3  DDP d   1     -16.133  35.119  44.142  0.00  0.00     0.174 HD
ATOM     16  H4  DDP d   1     -17.799  35.323  43.539  0.00  0.00     0.174 HD
ENDBRANCH   4  14
TORSDOF 4
