REMARK  2 active torsions:
REMARK  status: ('A' for Active; 'I' for Inactive)
REMARK    1  A    between atoms: C2_2  and  N2_12 
REMARK    2  A    between atoms: C8_9  and  C10_11 
ROOT
ATOM      1  N1  MOG d   1       3.678   1.653   7.410  0.00  0.00    -0.152 N 
ATOM      2  C2  MOG d   1       3.612   1.240   8.703  0.00  0.00     0.703 A 
ATOM      3  N3  MOG d   1       2.419   0.932   9.257  0.00  0.00    -0.037 NA
ATOM      4  C4  MOG d   1       1.297   1.038   8.514  0.00  0.00     0.224 A 
ATOM      5  C5  MOG d   1       1.347   1.457   7.190  0.00  0.00     0.181 A 
ATOM      6  C6  MOG d   1       2.586   1.777   6.622  0.00  0.00     0.293 A 
ATOM      7  O6  MOG d   1       2.722   2.146   5.506  0.00  0.00    -0.265 OA
ATOM      8  N7  MOG d   1       0.080   1.439   6.786  0.00  0.00    -0.219 NA
ATOM      9  C8  MOG d   1      -0.611   1.022   7.869  0.00  0.00     0.145 A 
ATOM     10  O9  MOG d   1       0.096   0.764   8.957  0.00  0.00    -0.275 OA
ATOM     11  H1  MOG d   1       4.574   1.875   7.024  0.00  0.00     0.187 HD
ENDROOT
BRANCH   9  12
ATOM     12  C10 MOG d   1      -2.125   0.856   7.809  0.00  0.00    -0.015 C 
ATOM     13  H2  MOG d   1      -2.484   1.130   6.806  0.00  0.00     0.038 H 
ATOM     14  H3  MOG d   1      -2.596   1.510   8.558  0.00  0.00     0.038 H 
ATOM     15  H4  MOG d   1      -2.388  -0.191   8.020  0.00  0.00     0.038 H 
ENDBRANCH   9  12
BRANCH   2  16
ATOM     16  N2  MOG d   1       4.687   1.113   9.501  0.00  0.00    -0.233 N 
ATOM     17  H5  MOG d   1       4.572   0.795  10.474  0.00  0.00     0.174 HD
ATOM     18  H6  MOG d   1       5.626   1.334   9.139  0.00  0.00     0.174 HD
ENDBRANCH   2  16
TORSDOF 2
