REMARK  24 active torsions:
REMARK  status: ('A' for Active; 'I' for Inactive)
REMARK    1  A    between atoms: C1_1  and  C12_12 
REMARK    2  A    between atoms: C2_2  and  O11_11 
REMARK    3  A    between atoms: C3_3  and  C13_13 
REMARK    4  A    between atoms: C5_5  and  C7_7 
REMARK    5  A    between atoms: C8_8  and  P9_9 
REMARK    6  A    between atoms: C8_8  and  P10_10 
REMARK    7  A    between atoms: P9_9  and  O21_21 
REMARK    8  A    between atoms: P9_9  and  O24_24 
REMARK    9  A    between atoms: P10_10  and  O28_28 
REMARK   10  A    between atoms: P10_10  and  O31_31 
REMARK   11  A    between atoms: C12_12  and  C14_14 
REMARK   12  A    between atoms: C12_12  and  C15_15 
REMARK   13  A    between atoms: C12_12  and  C16_16 
REMARK   14  A    between atoms: C13_13  and  C17_17 
REMARK   15  A    between atoms: C13_13  and  C18_18 
REMARK   16  A    between atoms: C13_13  and  C19_19 
REMARK   17  A    between atoms: O21_21  and  C22_22 
REMARK   18  A    between atoms: C22_22  and  C23_23 
REMARK   19  A    between atoms: O24_24  and  C25_25 
REMARK   20  A    between atoms: C25_25  and  C26_26 
REMARK   21  A    between atoms: O28_28  and  C29_29 
REMARK   22  A    between atoms: C29_29  and  C30_30 
REMARK   23  A    between atoms: O31_31  and  C32_32 
REMARK   24  A    between atoms: C32_32  and  C33_33 
ROOT
ATOM      1  C7  SRL d   1      10.546  73.772  -0.742  0.00  0.00    -0.047 C 
ATOM      2  C8  SRL d   1      10.593  73.174  -1.905  0.00  0.00     0.149 C 
ATOM      3  H3  SRL d   1      11.243  73.485   0.044  0.00  0.00     0.086 H 
ENDROOT
BRANCH   1   4
ATOM      4  C5  SRL d   1       9.578  74.806  -0.497  0.00  0.00    -0.034 A 
ATOM      5  C4  SRL d   1       9.879  76.152  -0.742  0.00  0.00    -0.064 A 
ATOM      6  C3  SRL d   1       8.940  77.233  -0.542  0.00  0.00    -0.016 A 
ATOM      7  H1  SRL d   1      10.872  76.397  -1.102  0.00  0.00     0.085 H 
ATOM      8  C2  SRL d   1       7.644  76.769  -0.053  0.00  0.00     0.079 A 
ATOM      9  C1  SRL d   1       7.260  75.391   0.223  0.00  0.00    -0.016 A 
ATOM     10  C6  SRL d   1       8.301  74.453  -0.023  0.00  0.00    -0.064 A 
ATOM     11  H2  SRL d   1       8.099  73.405   0.166  0.00  0.00     0.085 H 
BRANCH   6  12
ATOM     12  C13 SRL d   1       9.465  78.678  -0.870  0.00  0.00    -0.021 C 
BRANCH  12  13
ATOM     13  C17 SRL d   1       9.884  78.747  -2.388  0.00  0.00    -0.066 C 
ATOM     14  H14 SRL d   1      10.252  79.757  -2.621  0.00  0.00     0.028 H 
ATOM     15  H15 SRL d   1       9.013  78.519  -3.020  0.00  0.00     0.028 H 
ATOM     16  H16 SRL d   1      10.680  78.013  -2.583  0.00  0.00     0.028 H 
ENDBRANCH  12  13
BRANCH  12  17
ATOM     17  C18 SRL d   1       8.445  79.863  -0.657  0.00  0.00    -0.066 C 
ATOM     18  H17 SRL d   1       8.109  79.874   0.390  0.00  0.00     0.028 H 
ATOM     19  H18 SRL d   1       7.578  79.724  -1.319  0.00  0.00     0.028 H 
ATOM     20  H19 SRL d   1       8.937  80.818  -0.894  0.00  0.00     0.028 H 
ENDBRANCH  12  17
BRANCH  12  21
ATOM     21  C19 SRL d   1      10.741  78.992   0.017  0.00  0.00    -0.066 C 
ATOM     22  H20 SRL d   1      11.479  78.186  -0.104  0.00  0.00     0.028 H 
ATOM     23  H21 SRL d   1      10.445  79.062   1.074  0.00  0.00     0.028 H 
ATOM     24  H22 SRL d   1      11.184  79.946  -0.303  0.00  0.00     0.028 H 
ENDBRANCH  12  21
ENDBRANCH   6  12
BRANCH   8  25
ATOM     25  O11 SRL d   1       6.734  77.697   0.147  0.00  0.00    -0.360 OA
ATOM     26  H4  SRL d   1       6.560  78.150  -0.670  0.00  0.00     0.217 HD
ENDBRANCH   8  25
BRANCH   9  27
ATOM     27  C12 SRL d   1       5.878  74.909   0.740  0.00  0.00    -0.021 C 
BRANCH  27  28
ATOM     28  C14 SRL d   1       4.792  75.230  -0.335  0.00  0.00    -0.066 C 
ATOM     29  H5  SRL d   1       3.809  74.891   0.024  0.00  0.00     0.028 H 
ATOM     30  H6  SRL d   1       5.039  74.710  -1.272  0.00  0.00     0.028 H 
ATOM     31  H7  SRL d   1       4.763  76.315  -0.514  0.00  0.00     0.028 H 
ENDBRANCH  27  28
BRANCH  27  32
ATOM     32  C15 SRL d   1       5.542  75.599   2.090  0.00  0.00    -0.066 C 
ATOM     33  H8  SRL d   1       6.321  75.358   2.829  0.00  0.00     0.028 H 
ATOM     34  H9  SRL d   1       4.568  75.240   2.453  0.00  0.00     0.028 H 
ATOM     35  H10 SRL d   1       5.500  76.689   1.944  0.00  0.00     0.028 H 
ENDBRANCH  27  32
BRANCH  27  36
ATOM     36  C16 SRL d   1       5.764  73.344   0.977  0.00  0.00    -0.066 C 
ATOM     37  H11 SRL d   1       5.995  72.814   0.041  0.00  0.00     0.028 H 
ATOM     38  H12 SRL d   1       4.741  73.095   1.296  0.00  0.00     0.028 H 
ATOM     39  H13 SRL d   1       6.477  73.038   1.757  0.00  0.00     0.028 H 
ENDBRANCH  27  36
ENDBRANCH   9  27
ENDBRANCH   1   4
BRANCH   2  40
ATOM     40  P9  SRL d   1      12.296  72.820  -2.589  0.00  0.00     0.370 P 
ATOM     41  O20 SRL d   1      12.425  71.309  -2.657  0.00  0.00    -0.253 OA
BRANCH  40  42
ATOM     42  O21 SRL d   1      13.385  73.256  -1.505  0.00  0.00    -0.311 OA
BRANCH  42  43
ATOM     43  C22 SRL d   1      14.690  73.453  -2.041  0.00  0.00     0.026 C 
ATOM     44  H23 SRL d   1      14.654  74.244  -2.804  0.00  0.00     0.074 H 
ATOM     45  H24 SRL d   1      15.040  72.516  -2.500  0.00  0.00     0.074 H 
BRANCH  43  46
ATOM     46  C23 SRL d   1      15.662  73.866  -0.929  0.00  0.00    -0.056 C 
ATOM     47  H25 SRL d   1      16.665  74.015  -1.355  0.00  0.00     0.030 H 
ATOM     48  H26 SRL d   1      15.702  73.076  -0.165  0.00  0.00     0.030 H 
ATOM     49  H27 SRL d   1      15.316  74.804  -0.469  0.00  0.00     0.030 H 
ENDBRANCH  43  46
ENDBRANCH  42  43
ENDBRANCH  40  42
BRANCH  40  50
ATOM     50  O24 SRL d   1      12.591  73.280  -4.051  0.00  0.00    -0.311 OA
BRANCH  50  51
ATOM     51  C25 SRL d   1      12.208  74.590  -4.371  0.00  0.00     0.026 C 
ATOM     52  H28 SRL d   1      12.733  75.298  -3.713  0.00  0.00     0.074 H 
ATOM     53  H29 SRL d   1      11.122  74.699  -4.235  0.00  0.00     0.074 H 
BRANCH  51  54
ATOM     54  C26 SRL d   1      12.571  74.879  -5.824  0.00  0.00    -0.056 C 
ATOM     55  H30 SRL d   1      12.272  75.906  -6.079  0.00  0.00     0.030 H 
ATOM     56  H31 SRL d   1      12.046  74.170  -6.481  0.00  0.00     0.030 H 
ATOM     57  H32 SRL d   1      13.657  74.769  -5.960  0.00  0.00     0.030 H 
ENDBRANCH  51  54
ENDBRANCH  50  51
ENDBRANCH  40  50
ENDBRANCH   2  40
BRANCH   2  58
ATOM     58  P10 SRL d   1       9.170  72.804  -2.984  0.00  0.00     0.370 P 
ATOM     59  O27 SRL d   1       7.838  72.942  -2.449  0.00  0.00    -0.253 OA
BRANCH  58  60
ATOM     60  O28 SRL d   1       9.304  73.724  -4.294  0.00  0.00    -0.311 OA
BRANCH  60  61
ATOM     61  C29 SRL d   1       8.099  74.504  -4.497  0.00  0.00     0.026 C 
ATOM     62  H33 SRL d   1       7.938  75.149  -3.620  0.00  0.00     0.074 H 
ATOM     63  H34 SRL d   1       7.245  73.820  -4.611  0.00  0.00     0.074 H 
BRANCH  61  64
ATOM     64  C30 SRL d   1       8.203  75.367  -5.728  0.00  0.00    -0.056 C 
ATOM     65  H35 SRL d   1       7.274  75.943  -5.851  0.00  0.00     0.030 H 
ATOM     66  H36 SRL d   1       8.359  74.729  -6.611  0.00  0.00     0.030 H 
ATOM     67  H37 SRL d   1       9.052  76.058  -5.621  0.00  0.00     0.030 H 
ENDBRANCH  61  64
ENDBRANCH  60  61
ENDBRANCH  58  60
BRANCH  58  68
ATOM     68  O31 SRL d   1       9.396  71.343  -3.610  0.00  0.00    -0.311 OA
BRANCH  68  69
ATOM     69  C32 SRL d   1       9.336  70.349  -2.650  0.00  0.00     0.026 C 
ATOM     70  H38 SRL d   1       8.346  70.355  -2.171  0.00  0.00     0.074 H 
ATOM     71  H39 SRL d   1      10.112  70.520  -1.889  0.00  0.00     0.074 H 
BRANCH  69  72
ATOM     72  C33 SRL d   1       9.565  69.036  -3.314  0.00  0.00    -0.056 C 
ATOM     73  H40 SRL d   1       9.521  68.233  -2.564  0.00  0.00     0.030 H 
ATOM     74  H41 SRL d   1      10.555  69.035  -3.793  0.00  0.00     0.030 H 
ATOM     75  H42 SRL d   1       8.789  68.870  -4.075  0.00  0.00     0.030 H 
ENDBRANCH  69  72
ENDBRANCH  68  69
ENDBRANCH  58  68
ENDBRANCH   2  58
TORSDOF 24
