REMARK WARNING: 32 MAX_TORS EXCEEDED!!!
REMARK  67 active torsions:
REMARK  status: ('A' for Active; 'I' for Inactive)
REMARK    1  A    between atoms: C_1  and  CH3_3 
REMARK       I    between atoms: N_4  and  C_1 
REMARK    2  A    between atoms: CA_5  and  N_4 
REMARK    3  A    between atoms: C_6  and  CA_5 
REMARK    4  A    between atoms: CA_5  and  CB_8 
REMARK       I    between atoms: N_12  and  C_6 
REMARK    5  A    between atoms: CB_8  and  CG_9 
REMARK    6  A    between atoms: CG_9  and  SD_10 
REMARK    7  A    between atoms: SD_10  and  CE_11 
REMARK    8  A    between atoms: CA_13  and  N_12 
REMARK    9  A    between atoms: C_14  and  CA_13 
REMARK   10  A    between atoms: CA_13  and  CB_16 
REMARK       I    between atoms: N_26  and  C_14 
REMARK   11  A    between atoms: CB_16  and  CG_17 
REMARK   12  A    between atoms: CA_27  and  N_26 
REMARK   13  A    between atoms: C_28  and  CA_27 
REMARK   14  A    between atoms: CA_27  and  CB_30 
REMARK       I    between atoms: N_34  and  C_28 
REMARK   15  A    between atoms: CB_30  and  CG_31 
REMARK   16  A    between atoms: CA_35  and  N_34 
REMARK   17  A    between atoms: C_36  and  CA_35 
REMARK   18  A    between atoms: CA_35  and  CB_38 
REMARK       I    between atoms: N_45  and  C_36 
REMARK   19  A    between atoms: CB_38  and  CG_39 
REMARK   20  A    between atoms: CA_46  and  N_45 
REMARK   21  A    between atoms: C_47  and  CA_46 
REMARK   22  A    between atoms: CA_46  and  CB_49 
REMARK       I    between atoms: N_53  and  C_47 
REMARK   23  A    between atoms: CB_49  and  CG_50 
REMARK   24  A    between atoms: CA_54  and  N_53 
REMARK   25  A    between atoms: C_55  and  CA_54 
REMARK   26  A    between atoms: CA_54  and  CB_57 
REMARK       I    between atoms: N6_68  and  C_55 
REMARK   27  A    between atoms: CB_57  and  CG_58 
REMARK   28  A    between atoms: C2_63  and  C1_61 
REMARK       I    between atoms: C1_61  and  N_69 
REMARK   29  A    between atoms: C3_64  and  C2_63 
REMARK   30  A    between atoms: C4_65  and  C3_64 
REMARK   31  A    between atoms: C5_66  and  C4_65 
REMARK   32  A    between atoms: C6_67  and  C5_66 
REMARK   33  A    between atoms: C6_67  and  N6_68 
REMARK   34  A    between atoms: N_69  and  CA_70 
REMARK   35  A    between atoms: CA_70  and  C_71 
REMARK   36  A    between atoms: CA_70  and  CB_73 
REMARK       I    between atoms: C_71  and  N_77 
REMARK   37  A    between atoms: CB_73  and  CG_74 
REMARK   38  A    between atoms: CG_74  and  SD_75 
REMARK   39  A    between atoms: SD_75  and  CE_76 
REMARK   40  A    between atoms: CA_78  and  C_79 
REMARK       I    between atoms: C_79  and  N_84 
REMARK   41  A    between atoms: CA_85  and  C_86 
REMARK       I    between atoms: C_86  and  N_91 
REMARK   42  A    between atoms: N_91  and  CA_92 
REMARK   43  A    between atoms: CA_92  and  C_93 
REMARK   44  A    between atoms: CA_92  and  CB_95 
REMARK       I    between atoms: C_93  and  N_96 
REMARK   45  A    between atoms: N_96  and  CA_97 
REMARK   46  A    between atoms: CA_97  and  C_98 
REMARK   47  A    between atoms: CA_97  and  CB_100 
REMARK       I    between atoms: C_98  and  N_104 
REMARK   48  A    between atoms: CB_100  and  CG_101 
REMARK   49  A    between atoms: N_104  and  CA_105 
REMARK   50  A    between atoms: CA_105  and  C_106 
REMARK   51  A    between atoms: CA_105  and  CB_108 
REMARK       I    between atoms: C_106  and  N_113 
REMARK   52  A    between atoms: CB_108  and  CG_109 
REMARK   53  A    between atoms: CG_109  and  CD_110 
REMARK   54  A    between atoms: N_113  and  CA_114 
REMARK   55  A    between atoms: CA_114  and  C_115 
REMARK   56  A    between atoms: CA_114  and  CB_117 
REMARK       I    between atoms: C_115  and  N_121 
REMARK   57  A    between atoms: CB_117  and  CG_118 
REMARK   58  A    between atoms: N_121  and  CA_122 
REMARK   59  A    between atoms: CA_122  and  C_123 
REMARK   60  A    between atoms: CA_122  and  CB_125 
REMARK       I    between atoms: C_123  and  N_133 
REMARK   61  A    between atoms: CB_125  and  CG_126 
REMARK   62  A    between atoms: CZ_131  and  OH_132 
REMARK   63  A    between atoms: N_133  and  CA_134 
REMARK   64  A    between atoms: CA_134  and  C_135 
REMARK   65  A    between atoms: CA_134  and  CB_137 
REMARK       I    between atoms: C_135  and  N_139 
REMARK   66  A    between atoms: CB_137  and  OG_138 
REMARK   67  A    between atoms: CA_140  and  C_141 
REMARK       I    between atoms: C_141  and  N_146 
ROOT
ATOM      1  CA  MET d   1      12.517  16.608 -10.166  0.00  0.00     0.090 C 
ATOM      2  H56 MET d   1      12.600  16.456  -9.080  0.00  0.00     0.087 H 
ENDROOT
BRANCH   1   3
ATOM      3  N   MET d   1      13.452  15.709 -10.822  0.00  0.00    -0.348 N 
ATOM      4  C1  ACA d   1      14.392  15.000 -10.187  0.00  0.00     0.218 C 
ATOM      5  O1  ACA d   1      14.521  14.984  -8.965  0.00  0.00    -0.274 OA
ATOM      6  H55 MET d   1      13.388  15.614 -11.815  0.00  0.00     0.163 HD
BRANCH   4   7
ATOM      7  C2  ACA d   1      15.335  14.189 -11.070  0.00  0.00     0.009 C 
ATOM      8  H44 ACA d   1      14.739  13.509 -11.697  0.00  0.00     0.047 H 
ATOM      9  H45 ACA d   1      16.006  13.601 -10.427  0.00  0.00     0.047 H 
BRANCH   7  10
ATOM     10  C3  ACA d   1      16.182  15.087 -11.980  0.00  0.00    -0.057 C 
ATOM     11  H46 ACA d   1      15.514  15.716 -12.587  0.00  0.00     0.033 H 
ATOM     12  H47 ACA d   1      16.792  14.455 -12.642  0.00  0.00     0.033 H 
BRANCH  10  13
ATOM     13  C4  ACA d   1      17.108  15.989 -11.156  0.00  0.00    -0.063 C 
ATOM     14  H48 ACA d   1      17.841  15.365 -10.623  0.00  0.00     0.033 H 
ATOM     15  H49 ACA d   1      16.508  16.554 -10.427  0.00  0.00     0.033 H 
BRANCH  13  16
ATOM     16  C5  ACA d   1      17.851  16.972 -12.067  0.00  0.00    -0.050 C 
ATOM     17  H50 ACA d   1      17.117  17.633 -12.552  0.00  0.00     0.035 H 
ATOM     18  H51 ACA d   1      18.396  16.404 -12.835  0.00  0.00     0.035 H 
BRANCH  16  19
ATOM     19  C6  ACA d   1      18.849  17.830 -11.282  0.00  0.00    -0.005 C 
ATOM     20  H52 ACA d   1      19.380  18.494 -11.980  0.00  0.00     0.064 H 
ATOM     21  H53 ACA d   1      19.573  17.172 -10.780  0.00  0.00     0.064 H 
BRANCH  19  22
ATOM     22  N6  ACA d   1      18.167  18.637 -10.283  0.00  0.00    -0.359 N 
ATOM     23  C   ASP d   1      18.787  19.540  -9.514  0.00  0.00     0.240 C 
ATOM     24  O   ASP d   1      19.986  19.794  -9.620  0.00  0.00    -0.271 OA
ATOM     25  H54 ACA d   1      17.182  18.511 -10.164  0.00  0.00     0.162 HD
BRANCH  23  26
ATOM     26  CA  ASP d   1      17.924  20.257  -8.471  0.00  0.00     0.098 C 
ATOM     27  H41 ASP d   1      17.008  20.616  -8.963  0.00  0.00     0.088 H 
BRANCH  26  28
ATOM     28  N   ASP d   1      17.560  19.317  -7.420  0.00  0.00    -0.345 N 
ATOM     29  C   ASP d   1      16.601  18.394  -7.539  0.00  0.00     0.241 C 
ATOM     30  O   ASP d   1      15.891  18.292  -8.538  0.00  0.00    -0.271 OA
ATOM     31  H40 ASP d   1      18.059  19.365  -6.555  0.00  0.00     0.163 HD
BRANCH  29  32
ATOM     32  CA  ASP d   1      16.417  17.444  -6.362  0.00  0.00     0.098 C 
ATOM     33  H37 ASP d   1      16.857  17.892  -5.459  0.00  0.00     0.088 H 
BRANCH  32  34
ATOM     34  N   ASP d   1      14.993  17.249  -6.157  0.00  0.00    -0.345 N 
ATOM     35  C   PHE d   1      14.384  17.135  -4.981  0.00  0.00     0.241 C 
ATOM     36  O   PHE d   1      14.982  17.129  -3.906  0.00  0.00    -0.271 OA
ATOM     37  H36 ASP d   1      14.419  17.196  -6.974  0.00  0.00     0.163 HD
BRANCH  35  38
ATOM     38  CA  PHE d   1      12.860  17.027  -5.071  0.00  0.00     0.093 C 
ATOM     39  H28 PHE d   1      12.624  16.073  -5.564  0.00  0.00     0.088 H 
BRANCH  38  40
ATOM     40  N   PHE d   1      12.238  17.023  -3.764  0.00  0.00    -0.346 N 
ATOM     41  C   ASP d   1      12.387  16.050  -2.855  0.00  0.00     0.241 C 
ATOM     42  O   ASP d   1      13.122  15.081  -3.032  0.00  0.00    -0.271 OA
ATOM     43  H27 PHE d   1      11.657  17.800  -3.523  0.00  0.00     0.163 HD
BRANCH  41  44
ATOM     44  CA  ASP d   1      11.597  16.157  -1.547  0.00  0.00     0.098 C 
ATOM     45  H24 ASP d   1      12.167  15.638  -0.762  0.00  0.00     0.088 H 
BRANCH  44  46
ATOM     46  N   ASP d   1      11.385  17.536  -1.125  0.00  0.00    -0.345 N 
ATOM     47  C   TRP d   1      12.351  18.452  -0.971  0.00  0.00     0.241 C 
ATOM     48  O   TRP d   1      13.543  18.189  -1.116  0.00  0.00    -0.271 OA
ATOM     49  H23 ASP d   1      10.445  17.821  -0.936  0.00  0.00     0.163 HD
BRANCH  47  50
ATOM     50  CA  TRP d   1      11.937  19.885  -0.606  0.00  0.00     0.093 C 
ATOM     51  H14 TRP d   1      12.464  20.566  -1.291  0.00  0.00     0.088 H 
BRANCH  50  52
ATOM     52  N   TRP d   1      10.506  20.126  -0.747  0.00  0.00    -0.346 N 
ATOM     53  C   MET d   1       9.808  20.061  -1.886  0.00  0.00     0.241 C 
ATOM     54  O   MET d   1      10.303  19.732  -2.962  0.00  0.00    -0.271 OA
ATOM     55  H13 TRP d   1      10.001  20.361   0.083  0.00  0.00     0.163 HD
BRANCH  53  56
ATOM     56  CA  MET d   1       8.323  20.420  -1.787  0.00  0.00     0.090 C 
ATOM     57  H5  MET d   1       7.805  19.971  -2.647  0.00  0.00     0.087 H 
BRANCH  56  58
ATOM     58  N   MET d   1       7.708  19.905  -0.565  0.00  0.00    -0.348 N 
ATOM     59  C   ACE d   1       7.771  18.634  -0.148  0.00  0.00     0.214 C 
ATOM     60  O   ACE d   1       8.409  17.762  -0.731  0.00  0.00    -0.274 OA
ATOM     61  H4  MET d   1       7.201  20.552   0.004  0.00  0.00     0.163 HD
BRANCH  59  62
ATOM     62  CH3 ACE d   1       6.998  18.297   1.122  0.00  0.00    -0.003 C 
ATOM     63  H1  ACE d   1       6.494  19.201   1.495  0.00  0.00     0.040 H 
ATOM     64  H2  ACE d   1       7.694  17.923   1.887  0.00  0.00     0.040 H 
ATOM     65  H3  ACE d   1       6.247  17.524   0.900  0.00  0.00     0.040 H 
ENDBRANCH  59  62
ENDBRANCH  56  58
BRANCH  56  66
ATOM     66  CB  MET d   1       8.145  21.944  -1.847  0.00  0.00    -0.030 C 
ATOM     67  H6  MET d   1       8.681  22.329  -2.727  0.00  0.00     0.037 H 
ATOM     68  H7  MET d   1       8.573  22.387  -0.935  0.00  0.00     0.037 H 
BRANCH  66  69
ATOM     69  CG  MET d   1       6.672  22.352  -1.949  0.00  0.00    -0.021 C 
ATOM     70  H8  MET d   1       6.142  21.962  -1.068  0.00  0.00     0.049 H 
ATOM     71  H9  MET d   1       6.250  21.902  -2.860  0.00  0.00     0.049 H 
BRANCH  69  72
ATOM     72  SD  MET d   1       6.412  24.144  -2.024  0.00  0.00    -0.173 SA
BRANCH  72  73
ATOM     73  CE  MET d   1       4.603  24.191  -2.110  0.00  0.00    -0.035 C 
ATOM     74  H10 MET d   1       4.266  25.237  -2.162  0.00  0.00     0.041 H 
ATOM     75  H11 MET d   1       4.181  23.714  -1.213  0.00  0.00     0.041 H 
ATOM     76  H12 MET d   1       4.264  23.651  -3.006  0.00  0.00     0.041 H 
ENDBRANCH  72  73
ENDBRANCH  69  72
ENDBRANCH  66  69
ENDBRANCH  56  66
ENDBRANCH  53  56
ENDBRANCH  50  52
BRANCH  50  77
ATOM     77  CB  TRP d   1      12.352  20.225   0.829  0.00  0.00    -0.012 C 
ATOM     78  H15 TRP d   1      13.449  20.166   0.891  0.00  0.00     0.044 H 
ATOM     79  H16 TRP d   1      11.906  19.476   1.500  0.00  0.00     0.044 H 
BRANCH  77  80
ATOM     80  CG  TRP d   1      11.930  21.585   1.301  0.00  0.00    -0.028 A 
ATOM     81  CD1 TRP d   1      12.637  22.726   1.146  0.00  0.00    -0.015 A 
ATOM     82  NE1 TRP d   1      11.926  23.794   1.654  0.00  0.00    -0.365 N 
ATOM     83  H17 TRP d   1      13.623  22.793   0.688  0.00  0.00     0.112 H 
ATOM     84  CE2 TRP d   1      10.707  23.388   2.157  0.00  0.00     0.042 A 
ATOM     85  H18 TRP d   1      12.262  24.768   1.657  0.00  0.00     0.165 HD
ATOM     86  CD2 TRP d   1      10.683  21.978   1.950  0.00  0.00    -0.002 A 
ATOM     87  CZ2 TRP d   1       9.640  24.077   2.754  0.00  0.00    -0.056 A 
ATOM     88  CE3 TRP d   1       9.526  21.287   2.374  0.00  0.00    -0.070 A 
ATOM     89  CZ3 TRP d   1       8.446  21.970   2.965  0.00  0.00    -0.082 A 
ATOM     90  H19 TRP d   1       9.469  20.213   2.242  0.00  0.00     0.084 H 
ATOM     91  CH2 TRP d   1       8.501  23.361   3.156  0.00  0.00    -0.081 A 
ATOM     92  H21 TRP d   1       7.566  21.419   3.275  0.00  0.00     0.083 H 
ATOM     93  H22 TRP d   1       7.666  23.880   3.613  0.00  0.00     0.083 H 
ATOM     94  H20 TRP d   1       9.694  25.149   2.903  0.00  0.00     0.086 H 
ENDBRANCH  77  80
ENDBRANCH  50  77
ENDBRANCH  47  50
ENDBRANCH  44  46
BRANCH  44  95
ATOM     95  CB  ASP d   1      10.230  15.483  -1.694  0.00  0.00     0.043 C 
ATOM     96  H25 ASP d   1       9.610  16.091  -2.369  0.00  0.00     0.052 H 
ATOM     97  H26 ASP d   1       9.755  15.435  -0.703  0.00  0.00     0.052 H 
BRANCH  95  98
ATOM     98  CG  ASP d   1      10.320  14.069  -2.259  0.00  0.00     0.175 C 
ATOM     99  OD1 ASP d   1      10.725  13.172  -1.488  0.00  0.00    -0.648 OA
ATOM    100  OD2 ASP d   1       9.982  13.914  -3.454  0.00  0.00    -0.648 OA
ENDBRANCH  95  98
ENDBRANCH  44  95
ENDBRANCH  41  44
ENDBRANCH  38  40
BRANCH  38 101
ATOM    101  CB  PHE d   1      12.254  18.166  -5.915  0.00  0.00    -0.014 C 
ATOM    102  H29 PHE d   1      11.207  18.294  -5.604  0.00  0.00     0.043 H 
ATOM    103  H30 PHE d   1      12.289  17.858  -6.970  0.00  0.00     0.043 H 
BRANCH 101 104
ATOM    104  CG  PHE d   1      12.943  19.520  -5.802  0.00  0.00    -0.056 A 
ATOM    105  CD1 PHE d   1      13.185  20.103  -4.543  0.00  0.00    -0.077 A 
ATOM    106  CE1 PHE d   1      13.911  21.302  -4.445  0.00  0.00    -0.082 A 
ATOM    107  H31 PHE d   1      12.809  19.625  -3.646  0.00  0.00     0.084 H 
ATOM    108  CZ  PHE d   1      14.415  21.916  -5.604  0.00  0.00    -0.083 A 
ATOM    109  H33 PHE d   1      14.082  21.754  -3.475  0.00  0.00     0.083 H 
ATOM    110  CE2 PHE d   1      14.185  21.335  -6.862  0.00  0.00    -0.082 A 
ATOM    111  H35 PHE d   1      14.981  22.837  -5.527  0.00  0.00     0.083 H 
ATOM    112  CD2 PHE d   1      13.449  20.142  -6.961  0.00  0.00    -0.077 A 
ATOM    113  H34 PHE d   1      14.575  21.807  -7.756  0.00  0.00     0.083 H 
ATOM    114  H32 PHE d   1      13.270  19.698  -7.934  0.00  0.00     0.084 H 
ENDBRANCH 101 104
ENDBRANCH  38 101
ENDBRANCH  35  38
ENDBRANCH  32  34
BRANCH  32 115
ATOM    115  CB  ASP d   1      17.115  16.106  -6.643  0.00  0.00     0.043 C 
ATOM    116  H38 ASP d   1      18.159  16.303  -6.927  0.00  0.00     0.052 H 
ATOM    117  H39 ASP d   1      16.598  15.603  -7.473  0.00  0.00     0.052 H 
BRANCH 115 118
ATOM    118  CG  ASP d   1      17.102  15.186  -5.426  0.00  0.00     0.175 C 
ATOM    119  OD1 ASP d   1      17.885  15.470  -4.493  0.00  0.00    -0.648 OA
ATOM    120  OD2 ASP d   1      16.314  14.217  -5.447  0.00  0.00    -0.648 OA
ENDBRANCH 115 118
ENDBRANCH  32 115
ENDBRANCH  29  32
ENDBRANCH  26  28
BRANCH  26 121
ATOM    121  CB  ASP d   1      18.649  21.463  -7.858  0.00  0.00     0.043 C 
ATOM    122  H42 ASP d   1      18.967  22.137  -8.667  0.00  0.00     0.052 H 
ATOM    123  H43 ASP d   1      19.533  21.106  -7.309  0.00  0.00     0.052 H 
BRANCH 121 124
ATOM    124  CG  ASP d   1      17.748  22.235  -6.897  0.00  0.00     0.175 C 
ATOM    125  OD1 ASP d   1      17.048  23.149  -7.384  0.00  0.00    -0.648 OA
ATOM    126  OD2 ASP d   1      17.776  21.896  -5.693  0.00  0.00    -0.648 OA
ENDBRANCH 121 124
ENDBRANCH  26 121
ENDBRANCH  23  26
ENDBRANCH  19  22
ENDBRANCH  16  19
ENDBRANCH  13  16
ENDBRANCH  10  13
ENDBRANCH   7  10
ENDBRANCH   4   7
ENDBRANCH   1   3
BRANCH   1 127
ATOM    127  C   MET d   1      11.080  16.267 -10.578  0.00  0.00     0.243 C 
ATOM    128  O   MET d   1      10.729  16.435 -11.745  0.00  0.00    -0.271 OA
ATOM    129  N   PRO d   1      10.239  15.787  -9.644  0.00  0.00    -0.337 N 
ATOM    130  CA  PRO d   1       8.807  15.585  -9.838  0.00  0.00     0.092 C 
ATOM    131  CD  PRO d   1      10.636  15.254  -8.353  0.00  0.00    -0.001 C 
ATOM    132  CB  PRO d   1       8.301  15.030  -8.500  0.00  0.00    -0.036 C 
ATOM    133  H64 PRO d   1       8.653  14.832 -10.625  0.00  0.00     0.087 H 
ATOM    134  CG  PRO d   1       9.518  14.297  -7.961  0.00  0.00    -0.048 C 
ATOM    135  H65 PRO d   1       7.457  14.341  -8.650  0.00  0.00     0.036 H 
ATOM    136  H66 PRO d   1       7.995  15.842  -7.824  0.00  0.00     0.036 H 
ATOM    137  H67 PRO d   1       9.642  13.315  -8.440  0.00  0.00     0.035 H 
ATOM    138  H68 PRO d   1       9.461  14.169  -6.870  0.00  0.00     0.035 H 
ATOM    139  H69 PRO d   1      10.730  16.063  -7.613  0.00  0.00     0.064 H 
ATOM    140  H70 PRO d   1      11.593  14.718  -8.434  0.00  0.00     0.064 H 
BRANCH 130 141
ATOM    141  C   PRO d   1       8.065  16.865 -10.266  0.00  0.00     0.243 C 
ATOM    142  O   PRO d   1       8.681  17.918 -10.427  0.00  0.00    -0.271 OA
ATOM    143  N   PRO d   1       6.738  16.789 -10.457  0.00  0.00    -0.337 N 
ATOM    144  CA  PRO d   1       5.934  17.855 -11.029  0.00  0.00     0.091 C 
ATOM    145  CD  PRO d   1       5.912  15.621 -10.204  0.00  0.00    -0.001 C 
ATOM    146  CB  PRO d   1       4.489  17.368 -10.965  0.00  0.00    -0.036 C 
ATOM    147  H71 PRO d   1       6.234  17.983 -12.079  0.00  0.00     0.087 H 
ATOM    148  CG  PRO d   1       4.602  15.854 -10.940  0.00  0.00    -0.048 C 
ATOM    149  H72 PRO d   1       3.926  17.702 -11.849  0.00  0.00     0.036 H 
ATOM    150  H73 PRO d   1       3.994  17.736 -10.055  0.00  0.00     0.036 H 
ATOM    151  H74 PRO d   1       4.643  15.444 -11.960  0.00  0.00     0.035 H 
ATOM    152  H75 PRO d   1       3.758  15.403 -10.397  0.00  0.00     0.035 H 
ATOM    153  H76 PRO d   1       5.728  15.512  -9.125  0.00  0.00     0.064 H 
ATOM    154  H77 PRO d   1       6.407  14.715 -10.585  0.00  0.00     0.064 H 
BRANCH 144 155
ATOM    155  C   PRO d   1       6.031  19.220 -10.355  0.00  0.00     0.241 C 
ATOM    156  O   PRO d   1       6.093  19.323  -9.130  0.00  0.00    -0.271 OA
ATOM    157  N   ALA d   1       6.020  20.256 -11.202  0.00  0.00    -0.346 N 
ATOM    158  H78 ALA d   1       6.105  20.049 -12.177  0.00  0.00     0.163 HD
BRANCH 157 159
ATOM    159  CA  ALA d   1       5.895  21.660 -10.830  0.00  0.00     0.086 C 
ATOM    160  H79 ALA d   1       5.993  21.764  -9.739  0.00  0.00     0.086 H 
BRANCH 159 161
ATOM    161  C   ALA d   1       4.496  22.134 -11.258  0.00  0.00     0.240 C 
ATOM    162  O   ALA d   1       4.286  23.308 -11.558  0.00  0.00    -0.271 OA
ATOM    163  N   ASP d   1       3.548  21.188 -11.283  0.00  0.00    -0.346 N 
ATOM    164  H83 ASP d   1       3.837  20.284 -10.967  0.00  0.00     0.163 HD
BRANCH 163 165
ATOM    165  CA  ASP d   1       2.158  21.284 -11.703  0.00  0.00     0.098 C 
ATOM    166  H84 ASP d   1       1.727  22.256 -11.422  0.00  0.00     0.088 H 
BRANCH 165 167
ATOM    167  C   ASP d   1       1.450  20.135 -10.992  0.00  0.00     0.241 C 
ATOM    168  O   ASP d   1       2.116  19.178 -10.599  0.00  0.00    -0.271 OA
ATOM    169  N   GLU d   1       0.127  20.190 -10.815  0.00  0.00    -0.346 N 
ATOM    170  H87 GLU d   1      -0.390  20.980 -11.145  0.00  0.00     0.163 HD
BRANCH 169 171
ATOM    171  CA  GLU d   1      -0.562  19.099 -10.142  0.00  0.00     0.090 C 
ATOM    172  H88 GLU d   1      -0.180  18.170 -10.591  0.00  0.00     0.087 H 
BRANCH 171 173
ATOM    173  C   GLU d   1      -2.068  19.096 -10.390  0.00  0.00     0.241 C 
ATOM    174  O   GLU d   1      -2.820  19.867  -9.799  0.00  0.00    -0.271 OA
ATOM    175  N   ASP d   1      -2.486  18.192 -11.280  0.00  0.00    -0.346 N 
ATOM    176  H93 ASP d   1      -1.785  17.708 -11.803  0.00  0.00     0.163 HD
BRANCH 175 177
ATOM    177  CA  ASP d   1      -3.872  17.852 -11.553  0.00  0.00     0.098 C 
ATOM    178  H94 ASP d   1      -4.480  18.015 -10.651  0.00  0.00     0.088 H 
BRANCH 177 179
ATOM    179  C   ASP d   1      -3.876  16.361 -11.897  0.00  0.00     0.241 C 
ATOM    180  O   ASP d   1      -4.463  15.936 -12.889  0.00  0.00    -0.271 OA
ATOM    181  N   TYR d   1      -3.187  15.574 -11.059  0.00  0.00    -0.346 N 
ATOM    182  H97 TYR d   1      -2.835  15.992 -10.222  0.00  0.00     0.163 HD
BRANCH 181 183
ATOM    183  CA  TYR d   1      -2.909  14.161 -11.267  0.00  0.00     0.093 C 
ATOM    184  H98 TYR d   1      -3.501  13.784 -12.114  0.00  0.00     0.088 H 
BRANCH 183 185
ATOM    185  C   TYR d   1      -3.304  13.404  -9.993  0.00  0.00     0.241 C 
ATOM    186  O   TYR d   1      -2.517  12.622  -9.462  0.00  0.00    -0.271 OA
ATOM    187  N   SER d   1      -4.524  13.658  -9.502  0.00  0.00    -0.344 N 
ATOM    188 6H10 SER d   1      -5.139  14.217 -10.058  0.00  0.00     0.163 HD
BRANCH 187 189
ATOM    189  CA  SER d   1      -5.022  13.180  -8.218  0.00  0.00     0.109 C 
ATOM    190 7H10 SER d   1      -4.198  12.693  -7.677  0.00  0.00     0.090 H 
BRANCH 189 191
ATOM    191  C   SER d   1      -6.146  12.152  -8.413  0.00  0.00     0.245 C 
ATOM    192  O   SER d   1      -7.318  12.514  -8.326  0.00  0.00    -0.271 OA
ATOM    193  N   PRO d   1      -5.819  10.874  -8.672  0.00  0.00    -0.337 N 
ATOM    194  CA  PRO d   1      -6.798   9.807  -8.829  0.00  0.00     0.091 C 
ATOM    195  CD  PRO d   1      -4.475  10.346  -8.816  0.00  0.00    -0.001 C 
ATOM    196  CB  PRO d   1      -6.011   8.625  -9.399  0.00  0.00    -0.036 C 
ATOM    197 1H11 PRO d   1      -7.588  10.112  -9.531  0.00  0.00     0.087 H 
ATOM    198  CG  PRO d   1      -4.628   8.831  -8.793  0.00  0.00    -0.048 C 
ATOM    199 2H11 PRO d   1      -5.974   8.664 -10.498  0.00  0.00     0.036 H 
ATOM    200 3H11 PRO d   1      -6.446   7.666  -9.081  0.00  0.00     0.036 H 
ATOM    201 4H11 PRO d   1      -3.852   8.345  -9.402  0.00  0.00     0.035 H 
ATOM    202 5H11 PRO d   1      -4.584   8.443  -7.764  0.00  0.00     0.035 H 
ATOM    203 6H11 PRO d   1      -3.839  10.681  -7.983  0.00  0.00     0.064 H 
ATOM    204 7H11 PRO d   1      -4.034  10.673  -9.769  0.00  0.00     0.064 H 
BRANCH 194 205
ATOM    205  C   PRO d   1      -7.434   9.458  -7.479  0.00  0.00     0.238 C 
ATOM    206  O   PRO d   1      -6.887   9.770  -6.422  0.00  0.00    -0.271 OA
ATOM    207  N   NH2 d   1      -8.597   8.805  -7.506  0.00  0.00    -0.368 N 
ATOM    208 8H11 NH2 d   1      -9.050   8.556  -6.650  0.00  0.00     0.159 HD
ATOM    209 9H11 NH2 d   1      -9.015   8.565  -8.382  0.00  0.00     0.159 HD
ENDBRANCH 194 205
ENDBRANCH 189 191
BRANCH 189 210
ATOM    210  CB  SER d   1      -5.505  14.384  -7.401  0.00  0.00     0.044 C 
ATOM    211 8H10 SER d   1      -5.897  14.034  -6.435  0.00  0.00     0.077 H 
ATOM    212 9H10 SER d   1      -6.302  14.903  -7.954  0.00  0.00     0.077 H 
BRANCH 210 213
ATOM    213  OG  SER d   1      -4.434  15.278  -7.175  0.00  0.00    -0.398 OA
ATOM    214 0H11 SER d   1      -4.744  16.020  -6.668  0.00  0.00     0.209 HD
ENDBRANCH 210 213
ENDBRANCH 189 210
ENDBRANCH 187 189
ENDBRANCH 183 185
BRANCH 183 215
ATOM    215  CB  TYR d   1      -1.409  13.990 -11.579  0.00  0.00    -0.014 C 
ATOM    216  H99 TYR d   1      -1.275  13.008 -12.057  0.00  0.00     0.043 H 
ATOM    217 0H10 TYR d   1      -0.863  14.011 -10.624  0.00  0.00     0.043 H 
BRANCH 215 218
ATOM    218  CG  TYR d   1      -0.790  15.039 -12.491  0.00  0.00    -0.056 A 
ATOM    219  CD1 TYR d   1      -1.293  15.250 -13.790  0.00  0.00    -0.074 A 
ATOM    220  CE1 TYR d   1      -0.678  16.195 -14.631  0.00  0.00    -0.051 A 
ATOM    221 1H10 TYR d   1      -2.150  14.686 -14.140  0.00  0.00     0.084 H 
ATOM    222  CZ  TYR d   1       0.406  16.962 -14.167  0.00  0.00     0.065 A 
ATOM    223 3H10 TYR d   1      -1.042  16.333 -15.643  0.00  0.00     0.087 H 
ATOM    224  CE2 TYR d   1       0.893  16.772 -12.864  0.00  0.00    -0.051 A 
ATOM    225  CD2 TYR d   1       0.298  15.811 -12.031  0.00  0.00    -0.074 A 
ATOM    226 4H10 TYR d   1       1.725  17.365 -12.502  0.00  0.00     0.087 H 
ATOM    227 2H10 TYR d   1       0.677  15.661 -11.027  0.00  0.00     0.084 H 
BRANCH 222 228
ATOM    228  OH  TYR d   1       0.987  17.893 -14.978  0.00  0.00    -0.361 OA
ATOM    229 5H10 TYR d   1       0.545  17.898 -15.819  0.00  0.00     0.217 HD
ENDBRANCH 222 228
ENDBRANCH 215 218
ENDBRANCH 183 215
ENDBRANCH 181 183
ENDBRANCH 177 179
BRANCH 177 230
ATOM    230  CB  ASP d   1      -4.428  18.742 -12.674  0.00  0.00     0.043 C 
ATOM    231  H95 ASP d   1      -3.872  18.535 -13.600  0.00  0.00     0.052 H 
ATOM    232  H96 ASP d   1      -4.291  19.796 -12.391  0.00  0.00     0.052 H 
BRANCH 230 233
ATOM    233  CG  ASP d   1      -5.915  18.488 -12.925  0.00  0.00     0.175 C 
ATOM    234  OD1 ASP d   1      -6.691  18.647 -11.958  0.00  0.00    -0.648 OA
ATOM    235  OD2 ASP d   1      -6.253  18.139 -14.077  0.00  0.00    -0.648 OA
ENDBRANCH 230 233
ENDBRANCH 177 230
ENDBRANCH 175 177
ENDBRANCH 171 173
BRANCH 171 236
ATOM    236  CB  GLU d   1      -0.198  19.039  -8.652  0.00  0.00    -0.029 C 
ATOM    237  H89 GLU d   1       0.833  18.665  -8.562  0.00  0.00     0.037 H 
ATOM    238  H90 GLU d   1      -0.886  18.340  -8.155  0.00  0.00     0.037 H 
BRANCH 236 239
ATOM    239  CG  GLU d   1      -0.285  20.394  -7.935  0.00  0.00     0.018 C 
ATOM    240  H91 GLU d   1      -1.309  20.785  -8.028  0.00  0.00     0.049 H 
ATOM    241  H92 GLU d   1       0.420  21.095  -8.406  0.00  0.00     0.049 H 
BRANCH 239 242
ATOM    242  CD  GLU d   1       0.062  20.256  -6.458  0.00  0.00     0.172 C 
ATOM    243  OE1 GLU d   1      -0.864  19.933  -5.683  0.00  0.00    -0.648 OA
ATOM    244  OE2 GLU d   1       1.248  20.475  -6.128  0.00  0.00    -0.648 OA
ENDBRANCH 239 242
ENDBRANCH 236 239
ENDBRANCH 171 236
ENDBRANCH 169 171
ENDBRANCH 165 167
BRANCH 165 245
ATOM    245  CB  ASP d   1       2.039  21.065 -13.218  0.00  0.00     0.043 C 
ATOM    246  H85 ASP d   1       0.976  21.110 -13.496  0.00  0.00     0.052 H 
ATOM    247  H86 ASP d   1       2.440  20.070 -13.461  0.00  0.00     0.052 H 
BRANCH 245 248
ATOM    248  CG  ASP d   1       2.800  22.108 -14.032  0.00  0.00     0.175 C 
ATOM    249  OD1 ASP d   1       2.260  23.227 -14.170  0.00  0.00    -0.648 OA
ATOM    250  OD2 ASP d   1       3.909  21.767 -14.500  0.00  0.00    -0.648 OA
ENDBRANCH 245 248
ENDBRANCH 165 245
ENDBRANCH 163 165
ENDBRANCH 159 161
BRANCH 159 251
ATOM    251  CB  ALA d   1       7.009  22.467 -11.504  0.00  0.00    -0.049 C 
ATOM    252  H80 ALA d   1       6.915  23.526 -11.224  0.00  0.00     0.030 H 
ATOM    253  H81 ALA d   1       6.924  22.368 -12.596  0.00  0.00     0.030 H 
ATOM    254  H82 ALA d   1       7.987  22.086 -11.176  0.00  0.00     0.030 H 
ENDBRANCH 159 251
ENDBRANCH 157 159
ENDBRANCH 144 155
ENDBRANCH 130 141
ENDBRANCH   1 127
BRANCH   1 255
ATOM    255  CB  MET d   1      12.880  18.072 -10.461  0.00  0.00    -0.030 C 
ATOM    256  H57 MET d   1      13.777  18.321  -9.874  0.00  0.00     0.037 H 
ATOM    257  H58 MET d   1      12.039  18.700 -10.131  0.00  0.00     0.037 H 
BRANCH 255 258
ATOM    258  CG  MET d   1      13.171  18.412 -11.929  0.00  0.00    -0.021 C 
ATOM    259  H59 MET d   1      12.291  18.136 -12.528  0.00  0.00     0.049 H 
ATOM    260  H60 MET d   1      14.037  17.818 -12.255  0.00  0.00     0.049 H 
BRANCH 258 261
ATOM    261  SD  MET d   1      13.537  20.164 -12.229  0.00  0.00    -0.173 SA
BRANCH 261 262
ATOM    262  CE  MET d   1      15.094  20.352 -11.324  0.00  0.00    -0.035 C 
ATOM    263  H61 MET d   1      15.449  21.389 -11.416  0.00  0.00     0.041 H 
ATOM    264  H62 MET d   1      15.847  19.668 -11.743  0.00  0.00     0.041 H 
ATOM    265  H63 MET d   1      14.932  20.113 -10.262  0.00  0.00     0.041 H 
ENDBRANCH 261 262
ENDBRANCH 258 261
ENDBRANCH 255 258
ENDBRANCH   1 255
TORSDOF 67
