REMARK WARNING: 32 MAX_TORS EXCEEDED!!!
REMARK  37 active torsions:
REMARK  status: ('A' for Active; 'I' for Inactive)
REMARK    1  A    between atoms: C2_2  and  C11_11 
REMARK    2  A    between atoms: C4_4  and  O4_25 
REMARK    3  A    between atoms: C5_5  and  C10_10 
REMARK    4  A    between atoms: C9_9  and  C20_20 
REMARK    5  A    between atoms: C13_13  and  O2_24 
REMARK    6  A    between atoms: C20_20  and  C21_21 
REMARK    7  A    between atoms: C20_20  and  C22_22 
REMARK    8  A    between atoms: C22_22  and  C23_23 
REMARK    9  A    between atoms: C23_23  and  C57_26 
REMARK       I    between atoms: C57_26  and  N59_27 
REMARK   10  A    between atoms: N59_27  and  C74_28 
REMARK   11  A    between atoms: N59_27  and  C68_44 
REMARK   12  A    between atoms: C74_28  and  C75_29 
REMARK   13  A    between atoms: C75_29  and  C76_30 
REMARK   14  A    between atoms: C76_30  and  N77_31 
REMARK       I    between atoms: N77_31  and  C78_32 
REMARK   15  A    between atoms: C78_32  and  C80_33 
REMARK   16  A    between atoms: C80_33  and  O86_34 
REMARK   17  A    between atoms: C80_33  and  C81_35 
REMARK   18  A    between atoms: C81_35  and  O87_36 
REMARK   19  A    between atoms: C81_35  and  C82_37 
REMARK   20  A    between atoms: C82_37  and  O88_38 
REMARK   21  A    between atoms: C82_37  and  C83_39 
REMARK   22  A    between atoms: C83_39  and  O89_40 
REMARK   23  A    between atoms: C83_39  and  C84_41 
REMARK   24  A    between atoms: C84_41  and  O85_42 
REMARK   25  A    between atoms: C68_44  and  C69_45 
REMARK   26  A    between atoms: C69_45  and  C70_46 
REMARK   27  A    between atoms: C70_46  and  N71_47 
REMARK       I    between atoms: N71_47  and  C72_48 
REMARK   28  A    between atoms: C72_48  and  C90_49 
REMARK   29  A    between atoms: C90_49  and  O96_50 
REMARK   30  A    between atoms: C90_49  and  C91_51 
REMARK   31  A    between atoms: C91_51  and  O97_52 
REMARK   32  A    between atoms: C91_51  and  C92_53 
REMARK   33  A    between atoms: C92_53  and  O98_54 
REMARK   34  A    between atoms: C92_53  and  C93_55 
REMARK   35  A    between atoms: C93_55  and  O99_56 
REMARK   36  A    between atoms: C93_55  and  C94_57 
REMARK   37  A    between atoms: C94_57  and  O95_58 
ROOT
ATOM      1  C57 CPQ d   1      22.259  22.908  36.239  0.00  0.00     0.219 C 
ATOM      2  N59 CPQ d   1      22.409  23.597  37.394  0.00  0.00    -0.352 N 
ATOM      3  O58 CPQ d   1      22.694  23.391  35.265  0.00  0.00    -0.273 OA
ENDROOT
BRANCH   2   4
ATOM      4  C74 CPQ d   1      23.141  24.973  37.251  0.00  0.00    -0.001 C 
ATOM      5  H40 CPQ d   1      22.791  25.427  36.312  0.00  0.00     0.064 H 
ATOM      6  H41 CPQ d   1      24.217  24.758  37.176  0.00  0.00     0.064 H 
BRANCH   4   7
ATOM      7  C75 CPQ d   1      22.955  26.121  38.447  0.00  0.00    -0.035 C 
ATOM      8  H42 CPQ d   1      23.349  25.736  39.399  0.00  0.00     0.037 H 
ATOM      9  H43 CPQ d   1      21.890  26.369  38.565  0.00  0.00     0.037 H 
BRANCH   7  10
ATOM     10  C76 CPQ d   1      23.766  27.417  38.011  0.00  0.00    -0.003 C 
ATOM     11  H44 CPQ d   1      23.117  28.130  37.482  0.00  0.00     0.064 H 
ATOM     12  H45 CPQ d   1      24.619  27.152  37.369  0.00  0.00     0.064 H 
BRANCH  10  13
ATOM     13  N77 CPQ d   1      24.229  27.978  39.314  0.00  0.00    -0.359 N 
ATOM     14  C78 CPQ d   1      24.071  29.322  39.739  0.00  0.00     0.249 C 
ATOM     15  O79 CPQ d   1      23.506  30.211  39.065  0.00  0.00    -0.271 OA
ATOM     16  H46 CPQ d   1      24.691  27.352  39.942  0.00  0.00     0.162 HD
BRANCH  14  17
ATOM     17  C80 CPQ d   1      24.665  29.654  41.114  0.00  0.00     0.139 C 
ATOM     18  H47 CPQ d   1      25.462  30.402  40.992  0.00  0.00     0.102 H 
BRANCH  17  19
ATOM     19  O86 CPQ d   1      25.276  28.443  41.697  0.00  0.00    -0.383 OA
ATOM     20  H48 CPQ d   1      25.642  28.653  42.548  0.00  0.00     0.210 HD
ENDBRANCH  17  19
BRANCH  17  21
ATOM     21  C81 CPQ d   1      23.460  30.334  42.015  0.00  0.00     0.096 C 
ATOM     22  H49 CPQ d   1      23.162  31.259  41.500  0.00  0.00     0.091 H 
BRANCH  21  23
ATOM     23  O87 CPQ d   1      22.219  29.500  42.175  0.00  0.00    -0.390 OA
ATOM     24  H50 CPQ d   1      21.588  29.972  42.705  0.00  0.00     0.210 HD
ENDBRANCH  21  23
BRANCH  21  25
ATOM     25  C82 CPQ d   1      24.022  30.734  43.486  0.00  0.00     0.089 C 
ATOM     26  H51 CPQ d   1      24.861  31.438  43.378  0.00  0.00     0.091 H 
BRANCH  25  27
ATOM     27  O88 CPQ d   1      24.494  29.482  44.133  0.00  0.00    -0.390 OA
ATOM     28  H52 CPQ d   1      25.183  29.095  43.606  0.00  0.00     0.210 HD
ENDBRANCH  25  27
BRANCH  25  29
ATOM     29  C83 CPQ d   1      22.892  31.410  44.389  0.00  0.00     0.083 C 
ATOM     30  H53 CPQ d   1      22.050  30.709  44.490  0.00  0.00     0.090 H 
BRANCH  29  31
ATOM     31  O89 CPQ d   1      22.440  32.656  43.717  0.00  0.00    -0.391 OA
ATOM     32  H54 CPQ d   1      21.766  33.071  44.242  0.00  0.00     0.210 HD
ENDBRANCH  29  31
BRANCH  29  33
ATOM     33  C84 CPQ d   1      23.414  31.818  45.851  0.00  0.00     0.043 C 
ATOM     34  H55 CPQ d   1      24.247  32.527  45.736  0.00  0.00     0.078 H 
ATOM     35  H56 CPQ d   1      23.773  30.910  46.357  0.00  0.00     0.078 H 
BRANCH  33  36
ATOM     36  O85 CPQ d   1      22.381  32.447  46.700  0.00  0.00    -0.398 OA
ATOM     37  H57 CPQ d   1      22.756  32.662  47.546  0.00  0.00     0.209 HD
ENDBRANCH  33  36
ENDBRANCH  29  33
ENDBRANCH  25  29
ENDBRANCH  21  25
ENDBRANCH  17  21
ENDBRANCH  14  17
ENDBRANCH  10  13
ENDBRANCH   7  10
ENDBRANCH   4   7
ENDBRANCH   2   4
BRANCH   2  38
ATOM     38  C68 CPQ d   1      22.005  23.276  38.743  0.00  0.00    -0.001 C 
ATOM     39  H58 CPQ d   1      22.551  23.936  39.433  0.00  0.00     0.064 H 
ATOM     40  H59 CPQ d   1      22.277  22.229  38.945  0.00  0.00     0.064 H 
BRANCH  38  41
ATOM     41  C69 CPQ d   1      20.452  23.448  39.014  0.00  0.00    -0.035 C 
ATOM     42  H60 CPQ d   1      19.906  22.768  38.343  0.00  0.00     0.037 H 
ATOM     43  H61 CPQ d   1      20.174  24.488  38.788  0.00  0.00     0.037 H 
BRANCH  41  44
ATOM     44  C70 CPQ d   1      20.043  23.145  40.433  0.00  0.00    -0.003 C 
ATOM     45  H62 CPQ d   1      19.325  22.311  40.435  0.00  0.00     0.064 H 
ATOM     46  H63 CPQ d   1      19.572  24.036  40.875  0.00  0.00     0.064 H 
BRANCH  44  47
ATOM     47  N71 CPQ d   1      21.223  22.774  41.226  0.00  0.00    -0.359 N 
ATOM     48  C72 CPQ d   1      21.224  22.453  42.497  0.00  0.00     0.249 C 
ATOM     49  O73 CPQ d   1      20.184  22.088  43.105  0.00  0.00    -0.271 OA
ATOM     50  H64 CPQ d   1      22.104  22.766  40.754  0.00  0.00     0.162 HD
BRANCH  48  51
ATOM     51  C90 CPQ d   1      22.609  22.529  43.195  0.00  0.00     0.139 C 
ATOM     52  H65 CPQ d   1      23.340  22.018  42.551  0.00  0.00     0.102 H 
BRANCH  51  53
ATOM     53  O96 CPQ d   1      22.620  21.831  44.454  0.00  0.00    -0.383 OA
ATOM     54  H66 CPQ d   1      23.482  21.902  44.846  0.00  0.00     0.210 HD
ENDBRANCH  51  53
BRANCH  51  55
ATOM     55  C91 CPQ d   1      23.040  24.098  43.264  0.00  0.00     0.096 C 
ATOM     56  H67 CPQ d   1      23.643  24.312  42.369  0.00  0.00     0.091 H 
BRANCH  55  57
ATOM     57  O97 CPQ d   1      21.845  24.989  43.263  0.00  0.00    -0.390 OA
ATOM     58  H68 CPQ d   1      22.127  25.895  43.304  0.00  0.00     0.210 HD
ENDBRANCH  55  57
BRANCH  55  59
ATOM     59  C92 CPQ d   1      23.931  24.497  44.593  0.00  0.00     0.089 C 
ATOM     60  H69 CPQ d   1      23.603  23.926  45.474  0.00  0.00     0.091 H 
BRANCH  59  61
ATOM     61  O98 CPQ d   1      23.701  25.938  44.801  0.00  0.00    -0.390 OA
ATOM     62  H70 CPQ d   1      22.775  26.092  44.944  0.00  0.00     0.210 HD
ENDBRANCH  59  61
BRANCH  59  63
ATOM     63  C93 CPQ d   1      25.477  24.179  44.284  0.00  0.00     0.083 C 
ATOM     64  H71 CPQ d   1      25.770  24.710  43.366  0.00  0.00     0.090 H 
BRANCH  63  65
ATOM     65  O99 CPQ d   1      25.557  22.723  44.119  0.00  0.00    -0.391 OA
ATOM     66  H72 CPQ d   1      26.455  22.475  43.933  0.00  0.00     0.210 HD
ENDBRANCH  63  65
BRANCH  63  67
ATOM     67  C94 CPQ d   1      26.546  24.480  45.425  0.00  0.00     0.043 C 
ATOM     68  H73 CPQ d   1      26.315  23.884  46.320  0.00  0.00     0.078 H 
ATOM     69  H74 CPQ d   1      26.528  25.549  45.681  0.00  0.00     0.078 H 
BRANCH  67  70
ATOM     70  O95 CPQ d   1      27.883  24.110  44.906  0.00  0.00    -0.398 OA
ATOM     71  H75 CPQ d   1      27.890  23.186  44.683  0.00  0.00     0.209 HD
ENDBRANCH  67  70
ENDBRANCH  63  67
ENDBRANCH  59  63
ENDBRANCH  55  59
ENDBRANCH  51  55
ENDBRANCH  48  51
ENDBRANCH  44  47
ENDBRANCH  41  44
ENDBRANCH  38  41
ENDBRANCH   2  38
BRANCH   1  72
ATOM     72  C23 CPQ d   1      21.578  21.517  35.992  0.00  0.00     0.010 C 
ATOM     73  H36 CPQ d   1      22.112  20.811  36.646  0.00  0.00     0.047 H 
ATOM     74  H37 CPQ d   1      20.543  21.633  36.345  0.00  0.00     0.047 H 
BRANCH  72  75
ATOM     75  C22 CPQ d   1      21.468  20.812  34.639  0.00  0.00    -0.054 C 
ATOM     76  H34 CPQ d   1      22.458  20.882  34.164  0.00  0.00     0.034 H 
ATOM     77  H35 CPQ d   1      21.235  19.758  34.849  0.00  0.00     0.034 H 
BRANCH  75  78
ATOM     78  C20 CPQ d   1      20.366  21.329  33.521  0.00  0.00    -0.053 C 
ATOM     79  H30 CPQ d   1      19.349  21.265  33.935  0.00  0.00     0.040 H 
BRANCH  78  80
ATOM     80  C9  CPQ d   1      20.473  20.420  32.327  0.00  0.00    -0.041 C 
ATOM     81  C5  CPQ d   1      19.518  20.682  31.157  0.00  0.00    -0.010 C 
ATOM     82  C4  CPQ d   1      19.781  21.816  30.049  0.00  0.00     0.043 C 
ATOM     83  C6  CPQ d   1      19.699  19.217  30.471  0.00  0.00    -0.041 C 
ATOM     84  C3  CPQ d   1      18.937  21.681  28.880  0.00  0.00    -0.036 C 
ATOM     85  H5  CPQ d   1      19.626  22.805  30.506  0.00  0.00     0.084 H 
ATOM     86  C19 CPQ d   1      19.111  20.211  28.177  0.00  0.00    -0.041 C 
ATOM     87  H3  CPQ d   1      19.209  22.459  28.152  0.00  0.00     0.037 H 
ATOM     88  H4  CPQ d   1      17.887  21.811  29.181  0.00  0.00     0.037 H 
ATOM     89  C2  CPQ d   1      18.122  20.048  26.833  0.00  0.00    -0.036 C 
ATOM     90  C18 CPQ d   1      18.803  19.061  29.193  0.00  0.00    -0.046 C 
ATOM     91  H29 CPQ d   1      20.157  20.113  27.850  0.00  0.00     0.042 H 
ATOM     92  C1  CPQ d   1      18.400  21.185  25.754  0.00  0.00    -0.055 C 
ATOM     93  C15 CPQ d   1      18.378  18.589  26.159  0.00  0.00    -0.044 C 
ATOM     94  C12 CPQ d   1      19.778  21.074  25.200  0.00  0.00    -0.040 C 
ATOM     95  H1  CPQ d   1      18.283  22.169  26.231  0.00  0.00     0.034 H 
ATOM     96  H2  CPQ d   1      17.674  21.087  24.933  0.00  0.00     0.034 H 
ATOM     97  C13 CPQ d   1      20.028  19.667  24.540  0.00  0.00     0.036 C 
ATOM     98  H18 CPQ d   1      20.503  21.220  26.015  0.00  0.00     0.036 H 
ATOM     99  H19 CPQ d   1      19.920  21.855  24.439  0.00  0.00     0.036 H 
ATOM    100  C14 CPQ d   1      19.790  18.526  25.580  0.00  0.00    -0.037 C 
ATOM    101  H20 CPQ d   1      19.316  19.544  23.710  0.00  0.00     0.082 H 
ATOM    102  H21 CPQ d   1      20.518  18.629  26.398  0.00  0.00     0.037 H 
ATOM    103  H22 CPQ d   1      19.931  17.554  25.084  0.00  0.00     0.037 H 
ATOM    104  C16 CPQ d   1      18.113  17.451  27.215  0.00  0.00    -0.060 C 
ATOM    105  H23 CPQ d   1      17.665  18.457  25.332  0.00  0.00     0.041 H 
ATOM    106  C17 CPQ d   1      18.969  17.607  28.469  0.00  0.00    -0.061 C 
ATOM    107  H24 CPQ d   1      18.340  16.480  26.752  0.00  0.00     0.033 H 
ATOM    108  H25 CPQ d   1      17.053  17.480  27.506  0.00  0.00     0.033 H 
ATOM    109  H26 CPQ d   1      20.025  17.476  28.189  0.00  0.00     0.033 H 
ATOM    110  H27 CPQ d   1      18.680  16.825  29.187  0.00  0.00     0.033 H 
ATOM    111  H28 CPQ d   1      17.754  19.156  29.509  0.00  0.00     0.041 H 
ATOM    112  C7  CPQ d   1      19.525  18.176  31.593  0.00  0.00    -0.060 C 
ATOM    113  H6  CPQ d   1      20.738  19.134  30.120  0.00  0.00     0.042 H 
ATOM    114  C8  CPQ d   1      20.040  18.881  32.823  0.00  0.00    -0.060 C 
ATOM    115  H7  CPQ d   1      20.116  17.272  31.384  0.00  0.00     0.033 H 
ATOM    116  H8  CPQ d   1      18.466  17.903  31.713  0.00  0.00     0.033 H 
ATOM    117  H9  CPQ d   1      20.914  18.351  33.230  0.00  0.00     0.033 H 
ATOM    118  H10 CPQ d   1      19.254  18.934  33.590  0.00  0.00     0.033 H 
ATOM    119  H11 CPQ d   1      21.511  20.446  31.962  0.00  0.00     0.042 H 
BRANCH  81 120
ATOM    120  C10 CPQ d   1      17.867  20.975  31.668  0.00  0.00    -0.066 C 
ATOM    121  H12 CPQ d   1      17.236  21.155  30.785  0.00  0.00     0.028 H 
ATOM    122  H13 CPQ d   1      17.838  21.857  32.325  0.00  0.00     0.028 H 
ATOM    123  H14 CPQ d   1      17.491  20.097  32.214  0.00  0.00     0.028 H 
ENDBRANCH  81 120
BRANCH  82 124
ATOM    124  O4  CPQ d   1      21.198  21.685  29.535  0.00  0.00    -0.395 OA
ATOM    125  H39 CPQ d   1      21.359  22.353  28.879  0.00  0.00     0.210 HD
ENDBRANCH  82 124
BRANCH  89 126
ATOM    126  C11 CPQ d   1      16.490  20.251  27.418  0.00  0.00    -0.068 C 
ATOM    127  H15 CPQ d   1      16.270  19.476  28.167  0.00  0.00     0.028 H 
ATOM    128  H16 CPQ d   1      15.785  20.159  26.578  0.00  0.00     0.028 H 
ATOM    129  H17 CPQ d   1      16.386  21.245  27.877  0.00  0.00     0.028 H 
ENDBRANCH  89 126
BRANCH  97 130
ATOM    130  O2  CPQ d   1      21.384  19.554  24.009  0.00  0.00    -0.396 OA
ATOM    131  H38 CPQ d   1      21.488  18.709  23.587  0.00  0.00     0.210 HD
ENDBRANCH  97 130
ENDBRANCH  78  80
BRANCH  78 132
ATOM    132  C21 CPQ d   1      20.712  22.953  33.141  0.00  0.00    -0.072 C 
ATOM    133  H31 CPQ d   1      20.619  23.570  34.047  0.00  0.00     0.028 H 
ATOM    134  H32 CPQ d   1      20.003  23.311  32.380  0.00  0.00     0.028 H 
ATOM    135  H33 CPQ d   1      21.738  23.028  32.751  0.00  0.00     0.028 H 
ENDBRANCH  78 132
ENDBRANCH  75  78
ENDBRANCH  72  75
ENDBRANCH   1  72
TORSDOF 37
