REMARK  12 active torsions:
REMARK  status: ('A' for Active; 'I' for Inactive)
REMARK    1  A    between atoms: C1_1  and  C2_3 
REMARK    2  A    between atoms: C7_9  and  N1_10 
REMARK       I    between atoms: N1_10  and  C8_11 
REMARK    3  A    between atoms: C8_11  and  C9_13 
REMARK    4  A    between atoms: C9_13  and  C10_14 
REMARK    5  A    between atoms: C9_13  and  N2_17 
REMARK    6  A    between atoms: C10_14  and  C11_15 
REMARK    7  A    between atoms: C10_14  and  C12_16 
REMARK       I    between atoms: N2_17  and  C13_18 
REMARK    8  A    between atoms: C13_18  and  O4_20 
REMARK    9  A    between atoms: O4_20  and  C14_21 
REMARK   10  A    between atoms: C14_21  and  C15_22 
REMARK   11  A    between atoms: C14_21  and  C16_23 
REMARK   12  A    between atoms: C14_21  and  C17_24 
ROOT
ATOM      1  C9  ICL d   1      -7.134  21.545  34.184  0.00  0.00     0.094 C 
ATOM      2  H6  ICL d   1      -7.659  20.894  33.469  0.00  0.00     0.088 H 
ENDROOT
BRANCH   1   3
ATOM      3  C8  ICL d   1      -8.101  22.241  35.124  0.00  0.00     0.245 C 
ATOM      4  N1  ICL d   1      -9.356  21.746  35.284  0.00  0.00    -0.324 N 
ATOM      5  H5  ICL d   1      -9.576  20.863  34.870  0.00  0.00     0.169 HD
ATOM      6  O2  ICL d   1      -7.773  23.401  35.446  0.00  0.00    -0.271 OA
BRANCH   4   7
ATOM      7  C7  ICL d   1     -10.341  22.404  35.991  0.00  0.00     0.049 A 
ATOM      8  C2  ICL d   1     -10.133  23.211  37.154  0.00  0.00     0.050 A 
ATOM      9  C3  ICL d   1     -11.132  24.091  37.609  0.00  0.00     0.049 A 
ATOM     10 CL   ICL d   1     -10.824  25.084  38.899  0.00  0.00    -0.083 Cl
ATOM     11  C4  ICL d   1     -12.370  24.094  36.959  0.00  0.00    -0.061 A 
ATOM     12  C5  ICL d   1     -12.575  23.298  35.816  0.00  0.00    -0.079 A 
ATOM     13  H2  ICL d   1     -13.176  24.712  37.337  0.00  0.00     0.086 H 
ATOM     14  C6  ICL d   1     -11.562  22.468  35.327  0.00  0.00    -0.056 A 
ATOM     15  H3  ICL d   1     -13.532  23.329  35.308  0.00  0.00     0.083 H 
ATOM     16  H4  ICL d   1     -11.727  21.876  34.434  0.00  0.00     0.086 H 
BRANCH   8  17
ATOM     17  C1  ICL d   1      -8.996  23.067  37.932  0.00  0.00     0.122 C 
ATOM     18  O1  ICL d   1      -8.363  22.012  38.061  0.00  0.00    -0.301 OA
ATOM     19  H1  ICL d   1      -8.634  23.944  38.467  0.00  0.00     0.151 H 
ENDBRANCH   8  17
ENDBRANCH   4   7
ENDBRANCH   1   3
BRANCH   1  20
ATOM     20  C10 ICL d   1      -6.200  20.724  35.108  0.00  0.00    -0.033 C 
ATOM     21  H7  ICL d   1      -6.321  21.125  36.125  0.00  0.00     0.042 H 
BRANCH  20  22
ATOM     22  C11 ICL d   1      -4.722  20.907  34.741  0.00  0.00    -0.071 C 
ATOM     23  H8  ICL d   1      -4.098  20.308  35.421  0.00  0.00     0.028 H 
ATOM     24  H9  ICL d   1      -4.450  21.969  34.834  0.00  0.00     0.028 H 
ATOM     25  H10 ICL d   1      -4.558  20.576  33.705  0.00  0.00     0.028 H 
ENDBRANCH  20  22
BRANCH  20  26
ATOM     26  C12 ICL d   1      -6.638  19.257  35.159  0.00  0.00    -0.071 C 
ATOM     27  H11 ICL d   1      -7.704  19.202  35.427  0.00  0.00     0.028 H 
ATOM     28  H12 ICL d   1      -6.042  18.722  35.913  0.00  0.00     0.028 H 
ATOM     29  H13 ICL d   1      -6.483  18.794  34.173  0.00  0.00     0.028 H 
ENDBRANCH  20  26
ENDBRANCH   1  20
BRANCH   1  30
ATOM     30  N2  ICL d   1      -6.352  22.608  33.458  0.00  0.00    -0.323 N 
ATOM     31  C13 ICL d   1      -6.641  23.084  32.217  0.00  0.00     0.362 C 
ATOM     32  O3  ICL d   1      -7.549  22.660  31.470  0.00  0.00    -0.238 OA
ATOM     33  H14 ICL d   1      -5.557  22.995  33.926  0.00  0.00     0.165 HD
BRANCH  31  34
ATOM     34  O4  ICL d   1      -5.801  24.086  31.955  0.00  0.00    -0.294 OA
BRANCH  34  35
ATOM     35  C14 ICL d   1      -5.930  24.815  30.655  0.00  0.00     0.061 C 
BRANCH  35  36
ATOM     36  C15 ICL d   1      -7.365  25.383  30.496  0.00  0.00    -0.048 C 
ATOM     37  H15 ICL d   1      -7.444  25.916  29.537  0.00  0.00     0.031 H 
ATOM     38  H16 ICL d   1      -7.577  26.079  31.321  0.00  0.00     0.031 H 
ATOM     39  H17 ICL d   1      -8.091  24.557  30.518  0.00  0.00     0.031 H 
ENDBRANCH  35  36
BRANCH  35  40
ATOM     40  C16 ICL d   1      -5.573  23.932  29.439  0.00  0.00    -0.048 C 
ATOM     41  H18 ICL d   1      -5.685  24.518  28.515  0.00  0.00     0.031 H 
ATOM     42  H19 ICL d   1      -6.247  23.063  29.406  0.00  0.00     0.031 H 
ATOM     43  H20 ICL d   1      -4.533  23.586  29.530  0.00  0.00     0.031 H 
ENDBRANCH  35  40
BRANCH  35  44
ATOM     44  C17 ICL d   1      -4.911  25.971  30.710  0.00  0.00    -0.048 C 
ATOM     45  H21 ICL d   1      -4.960  26.547  29.774  0.00  0.00     0.031 H 
ATOM     46  H22 ICL d   1      -3.898  25.561  30.836  0.00  0.00     0.031 H 
ATOM     47  H23 ICL d   1      -5.149  26.629  31.559  0.00  0.00     0.031 H 
ENDBRANCH  35  44
ENDBRANCH  34  35
ENDBRANCH  31  34
ENDBRANCH   1  30
TORSDOF 12
