REMARK  18 active torsions:
REMARK  status: ('A' for Active; 'I' for Inactive)
REMARK    1  A    between atoms: C15_1  and  N3_7 
REMARK    2  A    between atoms: C12_4  and  C11_14 
REMARK    3  A    between atoms: N3_7  and  C18_8 
REMARK    4  A    between atoms: N4_10  and  C19_11 
REMARK    5  A    between atoms: C19_11  and  C20_12 
REMARK    6  A    between atoms: C20_12  and  O9_13 
REMARK    7  A    between atoms: C11_14  and  C1_15 
REMARK    8  A    between atoms: C1_15  and  C2_16 
REMARK    9  A    between atoms: C1_15  and  N1_17 
REMARK   10  A    between atoms: C2_16  and  N2_26 
REMARK   11  A    between atoms: N1_17  and  C9_18 
REMARK   12  A    between atoms: N1_17  and  C7_22 
REMARK   13  A    between atoms: C9_18  and  C10_19 
REMARK   14  A    between atoms: C7_22  and  C8_23 
REMARK   15  A    between atoms: N2_26  and  C5_27 
REMARK   16  A    between atoms: N2_26  and  C3_31 
REMARK   17  A    between atoms: C5_27  and  C6_28 
REMARK   18  A    between atoms: C3_31  and  C4_32 
ROOT
ATOM      1  C1  EOT d   1      56.902   1.044  39.494  0.00  0.00     0.132 C 
ATOM      2  H14 EOT d   1      56.932   1.981  38.919  0.00  0.00     0.087 H 
ENDROOT
BRANCH   1   3
ATOM      3  C11 EOT d   1      58.303   0.779  40.073  0.00  0.00    -0.013 C 
ATOM      4  H12 EOT d   1      58.440   1.449  40.935  0.00  0.00     0.043 H 
ATOM      5  H13 EOT d   1      58.331  -0.267  40.413  0.00  0.00     0.043 H 
BRANCH   3   6
ATOM      6  C12 EOT d   1      59.447   0.983  39.162  0.00  0.00    -0.056 A 
ATOM      7  C17 EOT d   1      59.918   2.266  38.894  0.00  0.00    -0.075 A 
ATOM      8  C16 EOT d   1      60.997   2.435  38.031  0.00  0.00    -0.057 A 
ATOM      9  H2  EOT d   1      59.447   3.127  39.354  0.00  0.00     0.084 H 
ATOM     10  C15 EOT d   1      61.618   1.339  37.421  0.00  0.00     0.034 A 
ATOM     11  H1  EOT d   1      61.363   3.435  37.828  0.00  0.00     0.086 H 
ATOM     12  C14 EOT d   1      61.132   0.068  37.696  0.00  0.00    -0.057 A 
ATOM     13  C13 EOT d   1      60.061  -0.108  38.560  0.00  0.00    -0.075 A 
ATOM     14  H4  EOT d   1      61.594  -0.795  37.231  0.00  0.00     0.086 H 
ATOM     15  H3  EOT d   1      59.699  -1.109  38.768  0.00  0.00     0.084 H 
BRANCH  10  16
ATOM     16  N3  EOT d   1      62.652   1.438  36.575  0.00  0.00    -0.333 N 
ATOM     17  H5  EOT d   1      62.555   1.026  35.669  0.00  0.00     0.168 HD
BRANCH  16  18
ATOM     18  C18 EOT d   1      63.805   2.052  36.862  0.00  0.00     0.172 C 
ATOM     19  S1  EOT d   1      64.155   2.672  38.377  0.00  0.00    -0.041 SA
ATOM     20  N4  EOT d   1      64.688   2.143  35.878  0.00  0.00    -0.365 N 
ATOM     21  H6  EOT d   1      64.479   1.724  34.994  0.00  0.00     0.161 HD
BRANCH  20  22
ATOM     22  C19 EOT d   1      65.965   2.844  36.055  0.00  0.00     0.014 C 
ATOM     23  H7  EOT d   1      66.745   2.122  36.337  0.00  0.00     0.067 H 
ATOM     24  H8  EOT d   1      65.862   3.601  36.847  0.00  0.00     0.067 H 
BRANCH  22  25
ATOM     25  C20 EOT d   1      66.353   3.529  34.739  0.00  0.00     0.031 C 
ATOM     26  H9  EOT d   1      65.591   4.276  34.470  0.00  0.00     0.076 H 
ATOM     27  H10 EOT d   1      66.430   2.779  33.938  0.00  0.00     0.076 H 
BRANCH  25  28
ATOM     28  O9  EOT d   1      67.608   4.168  34.919  0.00  0.00    -0.399 OA
ATOM     29  H11 EOT d   1      67.862   4.598  34.111  0.00  0.00     0.209 HD
ENDBRANCH  25  28
ENDBRANCH  22  25
ENDBRANCH  20  22
ENDBRANCH  16  18
ENDBRANCH  10  16
ENDBRANCH   3   6
ENDBRANCH   1   3
BRANCH   1  30
ATOM     30  C2  EOT d   1      56.487  -0.122  38.549  0.00  0.00     0.111 C 
ATOM     31  H15 EOT d   1      56.504  -1.055  39.131  0.00  0.00     0.079 H 
ATOM     32  H16 EOT d   1      57.227  -0.183  37.737  0.00  0.00     0.079 H 
BRANCH  30  33
ATOM     33  N2  EOT d   1      55.152   0.011  37.940  0.00  0.00    -0.050 N 
ATOM     34  H22 EOT d   1      54.529   0.420  38.619  0.00  0.00     0.281 HD
BRANCH  33  35
ATOM     35  C5  EOT d   1      54.675  -1.353  37.603  0.00  0.00     0.163 C 
ATOM     36  H23 EOT d   1      55.420  -2.079  37.961  0.00  0.00     0.093 H 
ATOM     37  H24 EOT d   1      54.585  -1.428  36.509  0.00  0.00     0.093 H 
BRANCH  35  38
ATOM     38  C6  EOT d   1      53.318  -1.707  38.225  0.00  0.00     0.199 C 
ATOM     39  O3  EOT d   1      52.978  -1.016  39.324  0.00  0.00    -0.647 OA
ATOM     40  O4  EOT d   1      52.610  -2.597  37.754  0.00  0.00    -0.647 OA
ENDBRANCH  35  38
ENDBRANCH  33  35
BRANCH  33  41
ATOM     41  C3  EOT d   1      55.146   0.873  36.733  0.00  0.00     0.163 C 
ATOM     42  H25 EOT d   1      55.581   0.313  35.892  0.00  0.00     0.093 H 
ATOM     43  H26 EOT d   1      55.753   1.768  36.931  0.00  0.00     0.093 H 
BRANCH  41  44
ATOM     44  C4  EOT d   1      53.734   1.306  36.360  0.00  0.00     0.199 C 
ATOM     45  O1  EOT d   1      52.847   1.222  37.374  0.00  0.00    -0.647 OA
ATOM     46  O2  EOT d   1      53.435   1.662  35.219  0.00  0.00    -0.647 OA
ENDBRANCH  41  44
ENDBRANCH  33  41
ENDBRANCH  30  33
ENDBRANCH   1  30
BRANCH   1  47
ATOM     47  N1  EOT d   1      55.885   1.173  40.568  0.00  0.00    -0.046 N 
ATOM     48  H17 EOT d   1      54.990   1.138  40.105  0.00  0.00     0.281 HD
BRANCH  47  49
ATOM     49  C9  EOT d   1      55.911   2.472  41.266  0.00  0.00     0.163 C 
ATOM     50  H18 EOT d   1      56.938   2.672  41.605  0.00  0.00     0.093 H 
ATOM     51  H19 EOT d   1      55.240   2.421  42.136  0.00  0.00     0.093 H 
BRANCH  49  52
ATOM     52  C10 EOT d   1      55.460   3.614  40.365  0.00  0.00     0.199 C 
ATOM     53  O7  EOT d   1      54.506   3.288  39.471  0.00  0.00    -0.647 OA
ATOM     54  O8  EOT d   1      55.987   4.720  40.426  0.00  0.00    -0.647 OA
ENDBRANCH  49  52
ENDBRANCH  47  49
BRANCH  47  55
ATOM     55  C7  EOT d   1      55.917   0.020  41.460  0.00  0.00     0.163 C 
ATOM     56  H20 EOT d   1      56.818   0.067  42.090  0.00  0.00     0.093 H 
ATOM     57  H21 EOT d   1      55.933  -0.905  40.865  0.00  0.00     0.093 H 
BRANCH  55  58
ATOM     58  C8  EOT d   1      54.678   0.035  42.343  0.00  0.00     0.199 C 
ATOM     59  O5  EOT d   1      53.600   0.614  41.773  0.00  0.00    -0.647 OA
ATOM     60  O6  EOT d   1      54.711  -0.388  43.497  0.00  0.00    -0.647 OA
ENDBRANCH  55  58
ENDBRANCH  47  55
ENDBRANCH   1  47
TORSDOF 18
