REMARK  4 active torsions:
REMARK  status: ('A' for Active; 'I' for Inactive)
REMARK    1  A    between atoms: C1_4  and  C'_1 
REMARK    2  A    between atoms: C3_6  and  N3_7 
REMARK       I    between atoms: N3_7  and  C3'_8 
REMARK       I    between atoms: C3'_8  and  N1_9 
REMARK    3  A    between atoms: C4_11  and  N4_12 
REMARK       I    between atoms: N4_12  and  C4'_13 
REMARK    4  A    between atoms: C4'_13  and  CM4_15 
ROOT
ATOM      1  C1  ST4 d   1      32.888 -11.268  65.308  0.00  0.00     0.043 A 
ATOM      2  C2  ST4 d   1      31.606 -10.931  64.886  0.00  0.00    -0.038 A 
ATOM      3  C3  ST4 d   1      31.388  -9.840  64.072  0.00  0.00     0.077 A 
ATOM      4  C4  ST4 d   1      32.476  -9.045  63.669  0.00  0.00     0.062 A 
ATOM      5  C5  ST4 d   1      33.749  -9.365  64.112  0.00  0.00    -0.054 A 
ATOM      6  C6  ST4 d   1      33.947 -10.457  64.924  0.00  0.00    -0.064 A 
ATOM      7  H1  ST4 d   1      30.764 -11.536  65.203  0.00  0.00     0.088 H 
ATOM      8  H11 ST4 d   1      34.593  -8.752  63.817  0.00  0.00     0.087 H 
ATOM      9  H12 ST4 d   1      34.948 -10.688  65.270  0.00  0.00     0.085 H 
ENDROOT
BRANCH   3  10
ATOM     10  N3  ST4 d   1      30.107  -9.567  63.637  0.00  0.00    -0.190 N 
ATOM     11  C3' ST4 d   1      29.399 -10.457  62.949  0.00  0.00     0.669 C 
ATOM     12  N2  ST4 d   1      29.908 -11.644  62.672  0.00  0.00    -0.235 N 
ATOM     13  N1  ST4 d   1      28.195 -10.145  62.493  0.00  0.00    -0.235 N 
ATOM     14  H5  ST4 d   1      30.843 -11.898  63.021  0.00  0.00     0.174 HD
ATOM     15  H6  ST4 d   1      29.370 -12.316  62.107  0.00  0.00     0.174 HD
ATOM     16  H3  ST4 d   1      27.650 -10.838  61.960  0.00  0.00     0.174 HD
ATOM     17  H4  ST4 d   1      27.803  -9.209  62.671  0.00  0.00     0.174 HD
ATOM     18  H2  ST4 d   1      29.689  -8.650  63.851  0.00  0.00     0.184 HD
ENDBRANCH   3  10
BRANCH   4  19
ATOM     19  N4  ST4 d   1      32.297  -7.978  62.784  0.00  0.00    -0.326 N 
ATOM     20  C4' ST4 d   1      31.460  -6.973  63.005  0.00  0.00     0.218 C 
ATOM     21  O4  ST4 d   1      30.870  -6.844  64.077  0.00  0.00    -0.274 OA
ATOM     22  H7  ST4 d   1      32.829  -7.972  61.938  0.00  0.00     0.169 HD
BRANCH  20  23
ATOM     23  CM4 ST4 d   1      31.311  -5.899  61.964  0.00  0.00    -0.003 C 
ATOM     24  H8  ST4 d   1      30.582  -5.151  62.310  0.00  0.00     0.040 H 
ATOM     25  H9  ST4 d   1      30.958  -6.347  61.023  0.00  0.00     0.040 H 
ATOM     26  H10 ST4 d   1      32.283  -5.413  61.797  0.00  0.00     0.040 H 
ENDBRANCH  20  23
ENDBRANCH   4  19
BRANCH   1  27
ATOM     27  C'  ST4 d   1      33.105 -12.458  65.998  0.00  0.00     0.209 C 
ATOM     28  O2' ST4 d   1      32.362 -13.437  65.730  0.00  0.00    -0.644 OA
ATOM     29  O1' ST4 d   1      34.030 -12.525  66.826  0.00  0.00    -0.644 OA
ENDBRANCH   1  27
TORSDOF 4
