REMARK  6 active torsions:
REMARK  status: ('A' for Active; 'I' for Inactive)
REMARK    1  A    between atoms: C1_4  and  C'_1 
REMARK    2  A    between atoms: C3_6  and  N3_7 
REMARK       I    between atoms: N3_7  and  C3'_8 
REMARK    3  A    between atoms: C3'_8  and  CM3_10 
REMARK    4  A    between atoms: CM3_10  and  O3'_11 
REMARK    5  A    between atoms: C4_12  and  N4_13 
REMARK       I    between atoms: N4_13  and  C4'_14 
REMARK    6  A    between atoms: C4'_14  and  CM4_16 
ROOT
ATOM      1  C1  ST5 d   1      48.272  22.739 -21.108  0.00  0.00     0.043 A 
ATOM      2  C2  ST5 d   1      48.007  22.771 -22.476  0.00  0.00    -0.038 A 
ATOM      3  C3  ST5 d   1      47.187  21.818 -23.080  0.00  0.00     0.062 A 
ATOM      4  C4  ST5 d   1      46.621  20.802 -22.296  0.00  0.00     0.061 A 
ATOM      5  C5  ST5 d   1      46.882  20.772 -20.933  0.00  0.00    -0.054 A 
ATOM      6  C6  ST5 d   1      47.699  21.727 -20.347  0.00  0.00    -0.064 A 
ATOM      7  H1  ST5 d   1      48.448  23.553 -23.084  0.00  0.00     0.088 H 
ATOM      8  H10 ST5 d   1      46.442  19.994 -20.320  0.00  0.00     0.087 H 
ATOM      9  H11 ST5 d   1      47.893  21.684 -19.281  0.00  0.00     0.085 H 
ENDROOT
BRANCH   3  10
ATOM     10  N3  ST5 d   1      46.888  21.936 -24.428  0.00  0.00    -0.323 N 
ATOM     11  C3' ST5 d   1      46.250  23.017 -24.876  0.00  0.00     0.245 C 
ATOM     12  O3  ST5 d   1      45.399  23.612 -24.216  0.00  0.00    -0.271 OA
ATOM     13  H2  ST5 d   1      47.151  21.211 -25.064  0.00  0.00     0.169 HD
BRANCH  11  14
ATOM     14  CM3 ST5 d   1      46.582  23.491 -26.274  0.00  0.00     0.090 C 
ATOM     15  H3  ST5 d   1      46.326  22.703 -26.997  0.00  0.00     0.088 H 
ATOM     16  H4  ST5 d   1      47.657  23.713 -26.339  0.00  0.00     0.088 H 
BRANCH  14  17
ATOM     17  O3' ST5 d   1      45.839  24.666 -26.573  0.00  0.00    -0.392 OA
ATOM     18  H5  ST5 d   1      44.910  24.475 -26.518  0.00  0.00     0.210 HD
ENDBRANCH  14  17
ENDBRANCH  11  14
ENDBRANCH   3  10
BRANCH   4  19
ATOM     19  N4  ST5 d   1      45.839  19.804 -22.853  0.00  0.00    -0.326 N 
ATOM     20  C4' ST5 d   1      46.316  18.989 -23.795  0.00  0.00     0.218 C 
ATOM     21  O4  ST5 d   1      47.486  19.058 -24.185  0.00  0.00    -0.274 OA
ATOM     22  H6  ST5 d   1      44.895  19.692 -22.542  0.00  0.00     0.169 HD
BRANCH  20  23
ATOM     23  CM4 ST5 d   1      45.418  17.912 -24.371  0.00  0.00    -0.003 C 
ATOM     24  H7  ST5 d   1      45.972  17.339 -25.129  0.00  0.00     0.040 H 
ATOM     25  H8  ST5 d   1      44.537  18.379 -24.836  0.00  0.00     0.040 H 
ATOM     26  H9  ST5 d   1      45.093  17.236 -23.566  0.00  0.00     0.040 H 
ENDBRANCH  20  23
ENDBRANCH   4  19
BRANCH   1  27
ATOM     27  C'  ST5 d   1      49.117  23.684 -20.520  0.00  0.00     0.209 C 
ATOM     28  O2' ST5 d   1      49.916  24.312 -21.249  0.00  0.00    -0.644 OA
ATOM     29  O1' ST5 d   1      49.072  23.856 -19.283  0.00  0.00    -0.644 OA
ENDBRANCH   1  27
TORSDOF 6
