REMARK  6 active torsions:
REMARK  status: ('A' for Active; 'I' for Inactive)
REMARK    1  A    between atoms: C'_1  and  C1_4 
REMARK    2  A    between atoms: C3_6  and  N3_7 
REMARK       I    between atoms: N3_7  and  C3'_8 
REMARK    3  A    between atoms: C3'_8  and  CM3_10 
REMARK    4  A    between atoms: CM3_10  and  N3'_11 
REMARK    5  A    between atoms: C4_12  and  N4_13 
REMARK       I    between atoms: N4_13  and  C4'_14 
REMARK    6  A    between atoms: C4'_14  and  CM4_16 
ROOT
ATOM      1  C1  ST6 d   1      48.422  22.001 -21.064  0.00  0.00     0.043 A 
ATOM      2  C2  ST6 d   1      48.005  22.350 -22.326  0.00  0.00    -0.038 A 
ATOM      3  C3  ST6 d   1      47.190  21.524 -23.056  0.00  0.00     0.062 A 
ATOM      4  C4  ST6 d   1      46.752  20.325 -22.517  0.00  0.00     0.061 A 
ATOM      5  C5  ST6 d   1      47.176  19.947 -21.260  0.00  0.00    -0.054 A 
ATOM      6  C6  ST6 d   1      47.995  20.787 -20.526  0.00  0.00    -0.064 A 
ATOM      7  H1  ST6 d   1      48.326  23.294 -22.751  0.00  0.00     0.088 H 
ATOM      8  H12 ST6 d   1      46.868  18.993 -20.848  0.00  0.00     0.087 H 
ATOM      9  H13 ST6 d   1      48.306  20.500 -19.528  0.00  0.00     0.085 H 
ENDROOT
BRANCH   3  10
ATOM     10  N3  ST6 d   1      46.704  21.954 -24.250  0.00  0.00    -0.324 N 
ATOM     11  C3' ST6 d   1      45.480  22.463 -24.241  0.00  0.00     0.247 C 
ATOM     12  O3  ST6 d   1      44.676  22.260 -23.322  0.00  0.00    -0.271 OA
ATOM     13  H2  ST6 d   1      47.241  21.890 -25.091  0.00  0.00     0.169 HD
BRANCH  11  14
ATOM     14  CM3 ST6 d   1      45.071  23.304 -25.385  0.00  0.00     0.152 C 
ATOM     15  H3  ST6 d   1      44.731  22.676 -26.222  0.00  0.00     0.090 H 
ATOM     16  H4  ST6 d   1      45.908  23.936 -25.717  0.00  0.00     0.090 H 
BRANCH  14  17
ATOM     17  N3' ST6 d   1      43.963  24.137 -24.882  0.00  0.00    -0.071 N 
ATOM     18  H5  ST6 d   1      43.634  24.740 -25.620  0.00  0.00     0.274 HD
ATOM     19  H6  ST6 d   1      44.288  24.697 -24.110  0.00  0.00     0.274 HD
ATOM     20  H7  ST6 d   1      43.210  23.543 -24.573  0.00  0.00     0.274 HD
ENDBRANCH  14  17
ENDBRANCH  11  14
ENDBRANCH   3  10
BRANCH   4  21
ATOM     21  N4  ST6 d   1      45.880  19.534 -23.230  0.00  0.00    -0.326 N 
ATOM     22  C4' ST6 d   1      46.310  18.606 -24.075  0.00  0.00     0.218 C 
ATOM     23  O4  ST6 d   1      47.512  18.386 -24.248  0.00  0.00    -0.274 OA
ATOM     24  H8  ST6 d   1      44.896  19.662 -23.108  0.00  0.00     0.169 HD
BRANCH  22  25
ATOM     25  CM4 ST6 d   1      45.290  17.776 -24.832  0.00  0.00    -0.003 C 
ATOM     26  H9  ST6 d   1      45.811  17.060 -25.484  0.00  0.00     0.040 H 
ATOM     27  H10 ST6 d   1      44.660  18.438 -25.444  0.00  0.00     0.040 H 
ATOM     28  H11 ST6 d   1      44.659  17.228 -24.116  0.00  0.00     0.040 H 
ENDBRANCH  22  25
ENDBRANCH   4  21
BRANCH   1  29
ATOM     29  C'  ST6 d   1      49.159  22.894 -20.313  0.00  0.00     0.209 C 
ATOM     30  O1' ST6 d   1      48.809  24.097 -20.300  0.00  0.00    -0.644 OA
ATOM     31  O2' ST6 d   1      50.161  22.463 -19.715  0.00  0.00    -0.644 OA
ENDBRANCH   1  29
TORSDOF 6
