REMARK WARNING: 32 MAX_TORS EXCEEDED!!!
REMARK  40 active torsions:
REMARK  status: ('A' for Active; 'I' for Inactive)
REMARK    1  A    between atoms: N_1  and  CA_2 
REMARK    2  A    between atoms: CA_2  and  C_3 
REMARK    3  A    between atoms: CA_2  and  CB_5 
REMARK       I    between atoms: C_3  and  N_7 
REMARK    4  A    between atoms: CB_5  and  OG_6 
REMARK    5  A    between atoms: N_7  and  CA_8 
REMARK    6  A    between atoms: CA_8  and  C_9 
REMARK    7  A    between atoms: CA_8  and  CB_11 
REMARK       I    between atoms: C_9  and  N_13 
REMARK    8  A    between atoms: CB_11  and  OG_12 
REMARK    9  A    between atoms: N_13  and  CA_14 
REMARK   10  A    between atoms: CA_14  and  C_15 
REMARK   11  A    between atoms: CA_14  and  CB_17 
REMARK       I    between atoms: C_15  and  N_20 
REMARK   12  A    between atoms: CB_17  and  CG1_18 
REMARK   13  A    between atoms: CB_17  and  CG2_19 
REMARK   14  A    between atoms: N_20  and  CA_21 
REMARK   15  A    between atoms: CA_21  and  C_22 
REMARK   16  A    between atoms: CA_21  and  CB_24 
REMARK       I    between atoms: C_22  and  N_27 
REMARK   17  A    between atoms: CB_24  and  CG1_25 
REMARK   18  A    between atoms: CB_24  and  CG2_26 
REMARK   19  A    between atoms: N_27  and  CA_28 
REMARK   20  A    between atoms: CA_28  and  C_29 
REMARK       I    between atoms: C_29  and  N_31 
REMARK   21  A    between atoms: N_31  and  CA_32 
REMARK   22  A    between atoms: CA_32  and  C_33 
REMARK   23  A    between atoms: CA_32  and  CB_35 
REMARK       I    between atoms: C_33  and  N_38 
REMARK   24  A    between atoms: CB_35  and  CG1_36 
REMARK   25  A    between atoms: CB_35  and  CG2_37 
REMARK   26  A    between atoms: N_38  and  CA_39 
REMARK   27  A    between atoms: CA_39  and  C_40 
REMARK   28  A    between atoms: CA_39  and  CB_42 
REMARK       I    between atoms: C_40  and  N_52 
REMARK   29  A    between atoms: CB_42  and  CG_43 
REMARK   30  A    between atoms: N_52  and  CA_53 
REMARK   31  A    between atoms: CA_53  and  C_54 
REMARK   32  A    between atoms: CA_53  and  CB_56 
REMARK       I    between atoms: C_54  and  N_64 
REMARK   33  A    between atoms: CB_56  and  CG_57 
REMARK   34  A    between atoms: CZ_62  and  OH_63 
REMARK   35  A    between atoms: N_64  and  CA_65 
REMARK   36  A    between atoms: CA_65  and  C_66 
REMARK   37  A    between atoms: CA_65  and  CB_68 
REMARK   38  A    between atoms: CB_68  and  CG_69 
REMARK   39  A    between atoms: CG_69  and  CD1_70 
REMARK   40  A    between atoms: CG_69  and  CD2_71 
ROOT
ATOM      1  CA  VAL d   1      23.634  19.219 -11.440  0.00  0.00     0.092 C 
ATOM      2  H35 VAL d   1      24.282  19.959 -10.949  0.00  0.00     0.088 H 
ENDROOT
BRANCH   1   3
ATOM      3  N   VAL d   1      23.428  18.048 -10.612  0.00  0.00    -0.346 N 
ATOM      4  C   GLY d   1      23.925  17.925  -9.388  0.00  0.00     0.236 C 
ATOM      5  O   GLY d   1      24.676  18.759  -8.884  0.00  0.00    -0.272 OA
ATOM      6  H34 VAL d   1      22.884  17.295 -10.982  0.00  0.00     0.163 HD
BRANCH   4   7
ATOM      7  CA  GLY d   1      23.559  16.644  -8.643  0.00  0.00     0.069 C 
ATOM      8  H32 GLY d   1      22.625  16.788  -8.080  0.00  0.00     0.078 H 
ATOM      9  H33 GLY d   1      23.434  15.815  -9.355  0.00  0.00     0.078 H 
BRANCH   7  10
ATOM     10  N   GLY d   1      24.651  16.358  -7.732  0.00  0.00    -0.351 N 
ATOM     11  C   VAL d   1      25.670  15.630  -8.150  0.00  0.00     0.241 C 
ATOM     12  O   VAL d   1      25.714  15.107  -9.287  0.00  0.00    -0.271 OA
ATOM     13  H31 GLY d   1      24.632  16.709  -6.796  0.00  0.00     0.163 HD
BRANCH  11  14
ATOM     14  CA  VAL d   1      26.803  15.449  -7.133  0.00  0.00     0.092 C 
ATOM     15  H23 VAL d   1      26.398  15.369  -6.113  0.00  0.00     0.088 H 
BRANCH  14  16
ATOM     16  N   VAL d   1      27.487  14.221  -7.483  0.00  0.00    -0.346 N 
ATOM     17  C   VAL d   1      27.476  13.185  -6.663  0.00  0.00     0.241 C 
ATOM     18  O   VAL d   1      26.928  13.206  -5.575  0.00  0.00    -0.271 OA
ATOM     19  H22 VAL d   1      27.973  14.157  -8.355  0.00  0.00     0.163 HD
BRANCH  17  20
ATOM     20  CA  VAL d   1      28.151  11.924  -7.165  0.00  0.00     0.092 C 
ATOM     21  H14 VAL d   1      28.994  12.118  -7.845  0.00  0.00     0.088 H 
BRANCH  20  22
ATOM     22  N   VAL d   1      28.612  11.216  -5.973  0.00  0.00    -0.346 N 
ATOM     23  C   SER d   1      29.885  11.170  -5.565  0.00  0.00     0.243 C 
ATOM     24  O   SER d   1      30.828  11.679  -6.182  0.00  0.00    -0.271 OA
ATOM     25  H13 VAL d   1      27.929  10.733  -5.425  0.00  0.00     0.163 HD
BRANCH  23  26
ATOM     26  CA  SER d   1      30.119  10.412  -4.262  0.00  0.00     0.109 C 
ATOM     27  H9  SER d   1      29.602   9.445  -4.346  0.00  0.00     0.090 H 
BRANCH  26  28
ATOM     28  N   SER d   1      31.521  10.133  -3.934  0.00  0.00    -0.344 N 
ATOM     29  C   SER d   1      32.208   9.139  -4.503  0.00  0.00     0.251 C 
ATOM     30  O   SER d   1      31.730   8.383  -5.356  0.00  0.00    -0.271 OA
ATOM     31  H8  SER d   1      31.980  10.709  -3.258  0.00  0.00     0.163 HD
BRANCH  29  32
ATOM     32  CA  SER d   1      33.644   8.948  -4.014  0.00  0.00     0.195 C 
ATOM     33  H4  SER d   1      33.852   9.635  -3.180  0.00  0.00     0.102 H 
BRANCH  32  34
ATOM     34  N   SER d   1      33.756   7.526  -3.550  0.00  0.00    -0.064 N 
ATOM     35  H1  SER d   1      34.692   7.354  -3.217  0.00  0.00     0.275 HD
ATOM     36  H2  SER d   1      33.553   6.905  -4.318  0.00  0.00     0.275 HD
ATOM     37  H3  SER d   1      33.099   7.363  -2.804  0.00  0.00     0.275 HD
ENDBRANCH  32  34
BRANCH  32  38
ATOM     38  CB  SER d   1      34.636   9.213  -5.148  0.00  0.00     0.051 C 
ATOM     39  H5  SER d   1      34.381   8.576  -6.008  0.00  0.00     0.077 H 
ATOM     40  H6  SER d   1      35.653   8.973  -4.803  0.00  0.00     0.077 H 
BRANCH  38  41
ATOM     41  OG  SER d   1      34.586  10.572  -5.543  0.00  0.00    -0.398 OA
ATOM     42  H7  SER d   1      34.808  11.124  -4.803  0.00  0.00     0.209 HD
ENDBRANCH  38  41
ENDBRANCH  32  38
ENDBRANCH  29  32
ENDBRANCH  26  28
BRANCH  26  43
ATOM     43  CB  SER d   1      29.496  11.206  -3.118  0.00  0.00     0.044 C 
ATOM     44  H10 SER d   1      29.532  10.607  -2.196  0.00  0.00     0.077 H 
ATOM     45  H11 SER d   1      28.449  11.439  -3.363  0.00  0.00     0.077 H 
BRANCH  43  46
ATOM     46  OG  SER d   1      30.214  12.416  -2.922  0.00  0.00    -0.398 OA
ATOM     47  H12 SER d   1      31.118  12.216  -2.709  0.00  0.00     0.209 HD
ENDBRANCH  43  46
ENDBRANCH  26  43
ENDBRANCH  23  26
ENDBRANCH  20  22
BRANCH  20  48
ATOM     48  CB  VAL d   1      26.950  11.256  -7.917  0.00  0.00    -0.033 C 
ATOM     49  H15 VAL d   1      26.076  11.910  -7.783  0.00  0.00     0.042 H 
BRANCH  48  50
ATOM     50  CG1 VAL d   1      27.227  11.201  -9.412  0.00  0.00    -0.071 C 
ATOM     51  H16 VAL d   1      26.376  10.730  -9.925  0.00  0.00     0.028 H 
ATOM     52  H17 VAL d   1      28.137  10.611  -9.595  0.00  0.00     0.028 H 
ATOM     53  H18 VAL d   1      27.368  12.222  -9.797  0.00  0.00     0.028 H 
ENDBRANCH  48  50
BRANCH  48  54
ATOM     54  CG2 VAL d   1      26.598   9.954  -7.307  0.00  0.00    -0.071 C 
ATOM     55  H19 VAL d   1      26.416  10.091  -6.231  0.00  0.00     0.028 H 
ATOM     56  H20 VAL d   1      27.427   9.245  -7.452  0.00  0.00     0.028 H 
ATOM     57  H21 VAL d   1      25.690   9.559  -7.785  0.00  0.00     0.028 H 
ENDBRANCH  48  54
ENDBRANCH  20  48
ENDBRANCH  17  20
ENDBRANCH  14  16
BRANCH  14  58
ATOM     58  CB  VAL d   1      27.718  16.680  -7.224  0.00  0.00    -0.033 C 
ATOM     59  H24 VAL d   1      27.127  17.573  -6.974  0.00  0.00     0.042 H 
BRANCH  58  60
ATOM     60  CG1 VAL d   1      28.867  16.570  -6.219  0.00  0.00    -0.071 C 
ATOM     61  H25 VAL d   1      29.510  17.459  -6.299  0.00  0.00     0.028 H 
ATOM     62  H26 VAL d   1      29.459  15.668  -6.436  0.00  0.00     0.028 H 
ATOM     63  H27 VAL d   1      28.458  16.504  -5.200  0.00  0.00     0.028 H 
ENDBRANCH  58  60
BRANCH  58  64
ATOM     64  CG2 VAL d   1      28.234  16.831  -8.628  0.00  0.00    -0.071 C 
ATOM     65  H28 VAL d   1      27.386  16.907  -9.324  0.00  0.00     0.028 H 
ATOM     66  H29 VAL d   1      28.846  15.955  -8.890  0.00  0.00     0.028 H 
ATOM     67  H30 VAL d   1      28.848  17.741  -8.697  0.00  0.00     0.028 H 
ENDBRANCH  58  64
ENDBRANCH  14  58
ENDBRANCH  11  14
ENDBRANCH   7  10
ENDBRANCH   4   7
ENDBRANCH   1   3
BRANCH   1  68
ATOM     68  C   VAL d   1      22.201  19.751 -11.586  0.00  0.00     0.241 C 
ATOM     69  O   VAL d   1      21.748  20.537 -10.761  0.00  0.00    -0.271 OA
ATOM     70  N   TRP d   1      21.456  19.302 -12.591  0.00  0.00    -0.346 N 
ATOM     71  H43 TRP d   1      21.838  18.649 -13.245  0.00  0.00     0.163 HD
BRANCH  70  72
ATOM     72  CA  TRP d   1      20.071  19.766 -12.740  0.00  0.00     0.093 C 
ATOM     73  H44 TRP d   1      20.073  20.864 -12.809  0.00  0.00     0.088 H 
BRANCH  72  74
ATOM     74  C   TRP d   1      19.222  19.358 -11.541  0.00  0.00     0.241 C 
ATOM     75  O   TRP d   1      19.402  18.271 -10.981  0.00  0.00    -0.271 OA
ATOM     76  N   TYR d   1      18.293  20.226 -11.155  0.00  0.00    -0.346 N 
ATOM     77  H53 TYR d   1      18.192  21.081 -11.663  0.00  0.00     0.163 HD
BRANCH  76  78
ATOM     78  CA  TYR d   1      17.418  19.978 -10.022  0.00  0.00     0.093 C 
ATOM     79  H54 TYR d   1      17.985  19.416  -9.265  0.00  0.00     0.088 H 
BRANCH  78  80
ATOM     80  C   TYR d   1      16.206  19.161 -10.426  0.00  0.00     0.241 C 
ATOM     81  O   TYR d   1      15.909  19.007 -11.614  0.00  0.00    -0.271 OA
ATOM     82  N   LEU d   1      15.531  18.607  -9.424  0.00  0.00    -0.345 N 
ATOM     83  H62 LEU d   1      15.856  18.727  -8.486  0.00  0.00     0.163 HD
BRANCH  82  84
ATOM     84  CA  LEU d   1      14.328  17.830  -9.670  0.00  0.00     0.096 C 
ATOM     85  H63 LEU d   1      14.546  17.024 -10.386  0.00  0.00     0.089 H 
BRANCH  84  86
ATOM     86  C   LEU d   1      13.267  18.767 -10.252  0.00  0.00     0.196 C 
ATOM     87  O   LEU d   1      13.439  20.003 -10.117  0.00  0.00    -0.646 OA
ATOM     88  OXT LEU d   1      12.275  18.246 -10.809  0.00  0.00    -0.646 OA
ENDBRANCH  84  86
BRANCH  84  89
ATOM     89  CB  LEU d   1      13.819  17.223  -8.359  0.00  0.00    -0.034 C 
ATOM     90  H64 LEU d   1      12.848  16.743  -8.553  0.00  0.00     0.037 H 
ATOM     91  H65 LEU d   1      13.687  18.035  -7.629  0.00  0.00     0.037 H 
BRANCH  89  92
ATOM     92  CG  LEU d   1      14.761  16.178  -7.753  0.00  0.00    -0.059 C 
ATOM     93  H66 LEU d   1      15.738  16.640  -7.548  0.00  0.00     0.038 H 
BRANCH  92  94
ATOM     94  CD1 LEU d   1      14.168  15.655  -6.432  0.00  0.00    -0.073 C 
ATOM     95  H67 LEU d   1      14.845  14.905  -5.998  0.00  0.00     0.028 H 
ATOM     96  H68 LEU d   1      13.188  15.195  -6.627  0.00  0.00     0.028 H 
ATOM     97  H69 LEU d   1      14.047  16.491  -5.728  0.00  0.00     0.028 H 
ENDBRANCH  92  94
BRANCH  92  98
ATOM     98  CD2 LEU d   1      14.946  15.039  -8.765  0.00  0.00    -0.073 C 
ATOM     99  H70 LEU d   1      15.370  15.442  -9.697  0.00  0.00     0.028 H 
ATOM    100  H71 LEU d   1      13.972  14.575  -8.976  0.00  0.00     0.028 H 
ATOM    101  H72 LEU d   1      15.629  14.285  -8.347  0.00  0.00     0.028 H 
ENDBRANCH  92  98
ENDBRANCH  89  92
ENDBRANCH  84  89
ENDBRANCH  82  84
ENDBRANCH  78  80
BRANCH  78 102
ATOM    102  CB  TYR d   1      16.935  21.303  -9.399  0.00  0.00    -0.014 C 
ATOM    103  H55 TYR d   1      16.389  21.073  -8.472  0.00  0.00     0.043 H 
ATOM    104  H56 TYR d   1      16.257  21.796 -10.111  0.00  0.00     0.043 H 
BRANCH 102 105
ATOM    105  CG  TYR d   1      18.057  22.258  -9.068  0.00  0.00    -0.056 A 
ATOM    106  CD1 TYR d   1      18.306  23.374  -9.864  0.00  0.00    -0.074 A 
ATOM    107  CE1 TYR d   1      19.340  24.251  -9.565  0.00  0.00    -0.051 A 
ATOM    108  H57 TYR d   1      17.682  23.561 -10.731  0.00  0.00     0.084 H 
ATOM    109  CZ  TYR d   1      20.144  24.008  -8.466  0.00  0.00     0.065 A 
ATOM    110  H59 TYR d   1      19.516  25.120 -10.188  0.00  0.00     0.087 H 
ATOM    111  CE2 TYR d   1      19.925  22.903  -7.658  0.00  0.00    -0.051 A 
ATOM    112  CD2 TYR d   1      18.887  22.037  -7.957  0.00  0.00    -0.074 A 
ATOM    113  H60 TYR d   1      20.561  22.719  -6.800  0.00  0.00     0.087 H 
ATOM    114  H58 TYR d   1      18.712  21.175  -7.324  0.00  0.00     0.084 H 
BRANCH 109 115
ATOM    115  OH  TYR d   1      21.181  24.859  -8.190  0.00  0.00    -0.361 OA
ATOM    116  H61 TYR d   1      21.065  25.226  -7.322  0.00  0.00     0.217 HD
ENDBRANCH 109 115
ENDBRANCH 102 105
ENDBRANCH  78 102
ENDBRANCH  76  78
ENDBRANCH  72  74
BRANCH  72 117
ATOM    117  CB  TRP d   1      19.480  19.190 -14.033  0.00  0.00    -0.012 C 
ATOM    118  H45 TRP d   1      18.477  19.609 -14.199  0.00  0.00     0.044 H 
ATOM    119  H46 TRP d   1      19.411  18.095 -13.951  0.00  0.00     0.044 H 
BRANCH 117 120
ATOM    120  CG  TRP d   1      20.348  19.543 -15.151  0.00  0.00    -0.028 A 
ATOM    121  CD1 TRP d   1      20.411  20.759 -15.785  0.00  0.00    -0.015 A 
ATOM    122  NE1 TRP d   1      21.513  20.812 -16.590  0.00  0.00    -0.365 N 
ATOM    123  H47 TRP d   1      19.688  21.564 -15.664  0.00  0.00     0.112 H 
ATOM    124  CE2 TRP d   1      22.180  19.622 -16.505  0.00  0.00     0.042 A 
ATOM    125  H48 TRP d   1      21.795  21.617 -17.167  0.00  0.00     0.165 HD
ATOM    126  CD2 TRP d   1      21.466  18.796 -15.614  0.00  0.00    -0.002 A 
ATOM    127  CZ2 TRP d   1      23.348  19.205 -17.137  0.00  0.00    -0.056 A 
ATOM    128  CE3 TRP d   1      21.945  17.509 -15.352  0.00  0.00    -0.070 A 
ATOM    129  CZ3 TRP d   1      23.108  17.093 -15.980  0.00  0.00    -0.082 A 
ATOM    130  H49 TRP d   1      21.418  16.850 -14.672  0.00  0.00     0.084 H 
ATOM    131  CH2 TRP d   1      23.800  17.938 -16.862  0.00  0.00    -0.081 A 
ATOM    132  H51 TRP d   1      23.490  16.097 -15.787  0.00  0.00     0.083 H 
ATOM    133  H52 TRP d   1      24.709  17.583 -17.335  0.00  0.00     0.083 H 
ATOM    134  H50 TRP d   1      23.881  19.856 -17.821  0.00  0.00     0.086 H 
ENDBRANCH 117 120
ENDBRANCH  72 117
ENDBRANCH  70  72
ENDBRANCH   1  68
BRANCH   1 135
ATOM    135  CB  VAL d   1      24.259  18.795 -12.777  0.00  0.00    -0.033 C 
ATOM    136  H36 VAL d   1      23.574  18.107 -13.293  0.00  0.00     0.042 H 
BRANCH 135 137
ATOM    137  CG1 VAL d   1      24.527  20.004 -13.685  0.00  0.00    -0.071 C 
ATOM    138  H37 VAL d   1      24.973  19.661 -14.630  0.00  0.00     0.028 H 
ATOM    139  H38 VAL d   1      25.220  20.694 -13.182  0.00  0.00     0.028 H 
ATOM    140  H39 VAL d   1      23.580  20.523 -13.894  0.00  0.00     0.028 H 
ENDBRANCH 135 137
BRANCH 135 141
ATOM    141  CG2 VAL d   1      25.567  18.084 -12.482  0.00  0.00    -0.071 C 
ATOM    142  H40 VAL d   1      25.375  17.218 -11.832  0.00  0.00     0.028 H 
ATOM    143  H41 VAL d   1      26.255  18.777 -11.976  0.00  0.00     0.028 H 
ATOM    144  H42 VAL d   1      26.019  17.741 -13.425  0.00  0.00     0.028 H 
ENDBRANCH 135 141
ENDBRANCH   1 135
TORSDOF 40
