REMARK WARNING: 32 MAX_TORS EXCEEDED!!!
REMARK  38 active torsions:
REMARK  status: ('A' for Active; 'I' for Inactive)
REMARK    1  A    between atoms: CA_2  and  N_1 
REMARK    2  A    between atoms: CA_2  and  CB_5 
REMARK    3  A    between atoms: C_3  and  CA_2 
REMARK       I    between atoms: N_6  and  C_3 
REMARK    4  A    between atoms: CA_7  and  N_6 
REMARK    5  A    between atoms: CA_7  and  CB_10 
REMARK    6  A    between atoms: C_8  and  CA_7 
REMARK       I    between atoms: N_14  and  C_8 
REMARK    7  A    between atoms: CB_10  and  CG_11 
REMARK    8  A    between atoms: CG_11  and  CD1_12 
REMARK    9  A    between atoms: CG_11  and  CD2_13 
REMARK   10  A    between atoms: CA_15  and  N_14 
REMARK   11  A    between atoms: CA_15  and  CB_18 
REMARK   12  A    between atoms: C_16  and  CA_15 
REMARK       I    between atoms: N_23  and  C_16 
REMARK   13  A    between atoms: CB_18  and  CG_19 
REMARK   14  A    between atoms: CG_19  and  CD_20 
REMARK   15  A    between atoms: CD_20  and  CE_21 
REMARK   16  A    between atoms: CE_21  and  NZ_22 
REMARK   17  A    between atoms: CA_24  and  N_23 
REMARK   18  A    between atoms: CA_24  and  CB_27 
REMARK   19  A    between atoms: C_25  and  CA_24 
REMARK       I    between atoms: N_34  and  C_25 
REMARK   20  A    between atoms: CB_27  and  CG_28 
REMARK   21  A    between atoms: CG_28  and  CD_29 
REMARK   22  A    between atoms: CD_29  and  NE_30 
REMARK       I    between atoms: NE_30  and  CZ_31 
REMARK       I    between atoms: CZ_31  and  NH2_33 
REMARK       I    between atoms: CZ_31  and  NH1_32 
REMARK   23  A    between atoms: CA_35  and  N_34 
REMARK   24  A    between atoms: CA_35  and  CB_38 
REMARK   25  A    between atoms: C_36  and  CA_35 
REMARK       I    between atoms: N_45  and  C_36 
REMARK   26  A    between atoms: CB_38  and  CG_39 
REMARK   27  A    between atoms: CG_39  and  CD_40 
REMARK   28  A    between atoms: CD_40  and  NE_41 
REMARK       I    between atoms: NE_41  and  CZ_42 
REMARK       I    between atoms: CZ_42  and  NH1_43 
REMARK   29  A    between atoms: CA_46  and  N_45 
REMARK   30  A    between atoms: CA_46  and  CB_49 
REMARK   31  A    between atoms: C_47  and  CA_46 
REMARK       I    between atoms: C_47  and  N_53 
REMARK   32  A    between atoms: CB_49  and  CG_50 
REMARK       I    between atoms: CG_50  and  ND2_52 
REMARK   33  A    between atoms: N_53  and  CA_54 
REMARK   34  A    between atoms: CA_54  and  CB_57 
REMARK   35  A    between atoms: CA_54  and  C_55 
REMARK   36  A    between atoms: C_55  and  O1_60 
REMARK   37  A    between atoms: CB_57  and  CG2_59 
REMARK   38  A    between atoms: CB_57  and  CG1_58 
ROOT
ATOM      1  CA  ARG d   1      42.611  57.128  40.407  0.00  0.00     0.089 C 
ATOM      2  H33 ARG d   1      43.706  57.028  40.448  0.00  0.00     0.087 H 
ENDROOT
BRANCH   1   3
ATOM      3  N   ARG d   1      42.045  55.838  40.760  0.00  0.00    -0.346 N 
ATOM      4  C   LYS d   1      42.799  54.912  41.339  0.00  0.00     0.241 C 
ATOM      5  O   LYS d   1      43.980  55.093  41.602  0.00  0.00    -0.271 OA
ATOM      6  H32 ARG d   1      41.083  55.647  40.566  0.00  0.00     0.163 HD
BRANCH   4   7
ATOM      7  CA  LYS d   1      42.141  53.585  41.682  0.00  0.00     0.089 C 
ATOM      8  H20 LYS d   1      41.047  53.690  41.645  0.00  0.00     0.087 H 
BRANCH   7   9
ATOM      9  N   LYS d   1      42.562  52.566  40.714  0.00  0.00    -0.346 N 
ATOM     10  C   LEU d   1      42.158  52.559  39.440  0.00  0.00     0.241 C 
ATOM     11  O   LEU d   1      41.389  53.404  38.962  0.00  0.00    -0.271 OA
ATOM     12  H19 LYS d   1      43.180  51.843  41.022  0.00  0.00     0.163 HD
BRANCH  10  13
ATOM     13  CA  LEU d   1      42.710  51.425  38.568  0.00  0.00     0.089 C 
ATOM     14  H9  LEU d   1      42.910  51.821  37.561  0.00  0.00     0.087 H 
BRANCH  13  15
ATOM     15  N   LEU d   1      43.962  50.908  39.118  0.00  0.00    -0.346 N 
ATOM     16  C   MET d   1      45.064  51.656  39.173  0.00  0.00     0.248 C 
ATOM     17  O   MET d   1      45.108  52.819  38.764  0.00  0.00    -0.271 OA
ATOM     18  H8  LEU d   1      43.992  49.969  39.462  0.00  0.00     0.163 HD
BRANCH  16  19
ATOM     19  CA  MET d   1      46.307  51.001  39.780  0.00  0.00     0.172 C 
ATOM     20  H4  MET d   1      45.999  50.083  40.303  0.00  0.00     0.098 H 
BRANCH  19  21
ATOM     21  N   MET d   1      47.297  50.636  38.717  0.00  0.00    -0.067 N 
ATOM     22  H1  MET d   1      48.104  50.208  39.142  0.00  0.00     0.275 HD
ATOM     23  H2  MET d   1      47.580  51.467  38.221  0.00  0.00     0.275 HD
ATOM     24  H3  MET d   1      46.873  49.988  38.072  0.00  0.00     0.275 HD
ENDBRANCH  19  21
BRANCH  19  25
ATOM     25  CB  MET d   1      46.960  51.953  40.793  0.00  0.00    -0.042 C 
ATOM     26  H5  MET d   1      46.229  52.218  41.571  0.00  0.00     0.030 H 
ATOM     27  H6  MET d   1      47.293  52.866  40.277  0.00  0.00     0.030 H 
ATOM     28  H7  MET d   1      47.826  51.458  41.257  0.00  0.00     0.030 H 
ENDBRANCH  19  25
ENDBRANCH  16  19
ENDBRANCH  13  15
BRANCH  13  29
ATOM     29  CB  LEU d   1      41.663  50.309  38.459  0.00  0.00    -0.035 C 
ATOM     30  H10 LEU d   1      40.731  50.777  38.110  0.00  0.00     0.037 H 
ATOM     31  H11 LEU d   1      41.515  49.908  39.473  0.00  0.00     0.037 H 
BRANCH  29  32
ATOM     32  CG  LEU d   1      41.931  49.113  37.542  0.00  0.00    -0.059 C 
ATOM     33  H12 LEU d   1      42.809  48.563  37.911  0.00  0.00     0.038 H 
BRANCH  32  34
ATOM     34  CD1 LEU d   1      40.711  48.200  37.586  0.00  0.00    -0.073 C 
ATOM     35  H13 LEU d   1      40.880  47.331  36.933  0.00  0.00     0.028 H 
ATOM     36  H14 LEU d   1      39.826  48.753  37.238  0.00  0.00     0.028 H 
ATOM     37  H15 LEU d   1      40.547  47.857  38.618  0.00  0.00     0.028 H 
ENDBRANCH  32  34
BRANCH  32  38
ATOM     38  CD2 LEU d   1      42.211  49.580  36.104  0.00  0.00    -0.073 C 
ATOM     39  H16 LEU d   1      43.094  50.236  36.097  0.00  0.00     0.028 H 
ATOM     40  H17 LEU d   1      41.340  50.133  35.722  0.00  0.00     0.028 H 
ATOM     41  H18 LEU d   1      42.399  48.705  35.464  0.00  0.00     0.028 H 
ENDBRANCH  32  38
ENDBRANCH  29  32
ENDBRANCH  13  29
ENDBRANCH  10  13
ENDBRANCH   7   9
BRANCH   7  42
ATOM     42  CB  LYS d   1      42.571  53.202  43.102  0.00  0.00    -0.038 C 
ATOM     43  H21 LYS d   1      42.293  54.027  43.774  0.00  0.00     0.036 H 
ATOM     44  H22 LYS d   1      43.664  53.081  43.103  0.00  0.00     0.036 H 
BRANCH  42  45
ATOM     45  CG  LYS d   1      41.962  51.931  43.650  0.00  0.00    -0.061 C 
ATOM     46  H23 LYS d   1      42.769  51.257  43.973  0.00  0.00     0.033 H 
ATOM     47  H24 LYS d   1      41.373  51.445  42.858  0.00  0.00     0.033 H 
BRANCH  45  48
ATOM     48  CD  LYS d   1      41.057  52.220  44.832  0.00  0.00    -0.043 C 
ATOM     49  H25 LYS d   1      40.197  52.815  44.490  0.00  0.00     0.035 H 
ATOM     50  H26 LYS d   1      41.620  52.789  45.586  0.00  0.00     0.035 H 
BRANCH  48  51
ATOM     51  CE  LYS d   1      40.554  50.932  45.455  0.00  0.00     0.080 C 
ATOM     52  H27 LYS d   1      41.414  50.371  45.849  0.00  0.00     0.075 H 
ATOM     53  H28 LYS d   1      40.053  50.336  44.678  0.00  0.00     0.075 H 
BRANCH  51  54
ATOM     54  NZ  LYS d   1      39.597  51.175  46.560  0.00  0.00    -0.079 N 
ATOM     55  H29 LYS d   1      39.292  50.293  46.941  0.00  0.00     0.274 HD
ATOM     56  H30 LYS d   1      38.800  51.683  46.209  0.00  0.00     0.274 HD
ATOM     57  H31 LYS d   1      40.048  51.715  47.282  0.00  0.00     0.274 HD
ENDBRANCH  51  54
ENDBRANCH  48  51
ENDBRANCH  45  48
ENDBRANCH  42  45
ENDBRANCH   7  42
ENDBRANCH   4   7
ENDBRANCH   1   3
BRANCH   1  58
ATOM     58  CB  ARG d   1      42.226  57.506  38.971  0.00  0.00    -0.036 C 
ATOM     59  H34 ARG d   1      42.701  56.783  38.291  0.00  0.00     0.036 H 
ATOM     60  H35 ARG d   1      42.619  58.513  38.768  0.00  0.00     0.036 H 
BRANCH  58  61
ATOM     61  CG  ARG d   1      40.745  57.517  38.678  0.00  0.00    -0.048 C 
ATOM     62  H36 ARG d   1      40.246  58.197  39.384  0.00  0.00     0.035 H 
ATOM     63  H37 ARG d   1      40.347  56.499  38.806  0.00  0.00     0.035 H 
BRANCH  61  64
ATOM     64  CD  ARG d   1      40.464  57.980  37.267  0.00  0.00     0.009 C 
ATOM     65  H38 ARG d   1      40.048  57.137  36.696  0.00  0.00     0.064 H 
ATOM     66  H39 ARG d   1      41.409  58.304  36.807  0.00  0.00     0.064 H 
BRANCH  64  67
ATOM     67  NE  ARG d   1      39.515  59.092  37.220  0.00  0.00    -0.227 N 
ATOM     68  CZ  ARG d   1      38.273  59.036  37.697  0.00  0.00     0.665 C 
ATOM     69  NH2 ARG d   1      37.483  60.098  37.615  0.00  0.00    -0.235 N 
ATOM     70  NH1 ARG d   1      37.817  57.917  38.262  0.00  0.00    -0.235 N 
ATOM     71  H43 ARG d   1      37.829  60.965  37.180  0.00  0.00     0.174 HD
ATOM     72  H44 ARG d   1      36.523  60.056  37.986  0.00  0.00     0.174 HD
ATOM     73  H41 ARG d   1      36.855  57.880  38.629  0.00  0.00     0.174 HD
ATOM     74  H42 ARG d   1      38.427  57.090  38.331  0.00  0.00     0.174 HD
ATOM     75  H40 ARG d   1      39.827  59.975  36.791  0.00  0.00     0.177 HD
ENDBRANCH  64  67
ENDBRANCH  61  64
ENDBRANCH  58  61
ENDBRANCH   1  58
BRANCH   1  76
ATOM     76  C   ARG d   1      42.222  58.238  41.369  0.00  0.00     0.241 C 
ATOM     77  O   ARG d   1      41.039  58.501  41.591  0.00  0.00    -0.271 OA
ATOM     78  N   ARG d   1      43.244  58.882  41.935  0.00  0.00    -0.346 N 
ATOM     79  H45 ARG d   1      44.175  58.599  41.704  0.00  0.00     0.163 HD
BRANCH  78  80
ATOM     80  CA  ARG d   1      43.062  59.982  42.876  0.00  0.00     0.089 C 
ATOM     81  H46 ARG d   1      42.173  59.766  43.487  0.00  0.00     0.087 H 
BRANCH  80  82
ATOM     82  CB  ARG d   1      44.280  60.105  43.811  0.00  0.00    -0.036 C 
ATOM     83  H47 ARG d   1      44.209  61.066  44.341  0.00  0.00     0.036 H 
ATOM     84  H48 ARG d   1      45.189  60.094  43.192  0.00  0.00     0.036 H 
BRANCH  82  85
ATOM     85  CG  ARG d   1      44.400  58.998  44.850  0.00  0.00    -0.048 C 
ATOM     86  H49 ARG d   1      44.408  58.027  44.333  0.00  0.00     0.035 H 
ATOM     87  H50 ARG d   1      43.531  59.048  45.522  0.00  0.00     0.035 H 
BRANCH  85  88
ATOM     88  CD  ARG d   1      45.666  59.120  45.680  0.00  0.00     0.009 C 
ATOM     89  H51 ARG d   1      45.639  60.074  46.227  0.00  0.00     0.064 H 
ATOM     90  H52 ARG d   1      46.534  59.110  45.004  0.00  0.00     0.064 H 
BRANCH  88  91
ATOM     91  NE  ARG d   1      45.810  58.026  46.647  0.00  0.00    -0.227 N 
ATOM     92  CZ  ARG d   1      45.136  57.926  47.792  0.00  0.00     0.665 C 
ATOM     93  NH2 ARG d   1      45.339  56.885  48.589  0.00  0.00    -0.235 N 
ATOM     94  NH1 ARG d   1      44.256  58.859  48.141  0.00  0.00    -0.235 N 
ATOM     95  H56 ARG d   1      46.020  56.159  48.324  0.00  0.00     0.174 HD
ATOM     96  H57 ARG d   1      44.816  56.803  49.473  0.00  0.00     0.174 HD
ATOM     97  H54 ARG d   1      43.739  58.774  49.028  0.00  0.00     0.174 HD
ATOM     98  H55 ARG d   1      44.091  59.667  47.525  0.00  0.00     0.174 HD
ATOM     99  H53 ARG d   1      46.483  57.279  46.424  0.00  0.00     0.177 HD
ENDBRANCH  88  91
ENDBRANCH  85  88
ENDBRANCH  82  85
ENDBRANCH  80  82
BRANCH  80 100
ATOM    100  C   ARG d   1      42.836  61.308  42.149  0.00  0.00     0.241 C 
ATOM    101  O   ARG d   1      43.699  62.190  42.149  0.00  0.00    -0.271 OA
ATOM    102  N   ASN d   1      41.666  61.439  41.528  0.00  0.00    -0.346 N 
ATOM    103  H58 ASN d   1      41.024  60.673  41.543  0.00  0.00     0.163 HD
BRANCH 102 104
ATOM    104  CA  ASN d   1      41.286  62.662  40.825  0.00  0.00     0.097 C 
ATOM    105  H59 ASN d   1      41.972  62.858  39.987  0.00  0.00     0.088 H 
BRANCH 104 106
ATOM    106  CB  ASN d   1      39.849  62.493  40.279  0.00  0.00     0.036 C 
ATOM    107  H60 ASN d   1      39.393  61.619  40.767  0.00  0.00     0.051 H 
ATOM    108  H61 ASN d   1      39.908  62.318  39.195  0.00  0.00     0.051 H 
BRANCH 106 109
ATOM    109  CG  ASN d   1      38.944  63.713  40.525  0.00  0.00     0.217 C 
ATOM    110  ND2 ASN d   1      38.501  64.341  39.437  0.00  0.00    -0.370 N 
ATOM    111  H62 ASN d   1      37.909  65.141  39.528  0.00  0.00     0.159 HD
ATOM    112  H63 ASN d   1      38.761  64.012  38.529  0.00  0.00     0.159 HD
ATOM    113  OD1 ASN d   1      38.635  64.071  41.674  0.00  0.00    -0.274 OA
ENDBRANCH 106 109
ENDBRANCH 104 106
BRANCH 104 114
ATOM    114  C   ASN d   1      41.397  63.785  41.862  0.00  0.00     0.241 C 
ATOM    115  O   ASN d   1      41.184  64.964  41.561  0.00  0.00    -0.271 OA
ATOM    116  N   VAL d   1      41.782  63.374  43.074  0.00  0.00    -0.344 N 
ATOM    117  H64 VAL d   1      41.958  62.396  43.189  0.00  0.00     0.163 HD
BRANCH 116 118
ATOM    118  CA  VAL d   1      41.969  64.224  44.245  0.00  0.00     0.096 C 
ATOM    119  H65 VAL d   1      41.985  63.557  45.120  0.00  0.00     0.090 H 
BRANCH 118 120
ATOM    120  CB  VAL d   1      43.353  64.963  44.199  0.00  0.00    -0.032 C 
ATOM    121  H66 VAL d   1      43.373  65.726  44.991  0.00  0.00     0.042 H 
BRANCH 120 122
ATOM    122  CG2 VAL d   1      43.567  65.652  42.850  0.00  0.00    -0.071 C 
ATOM    123  H70 VAL d   1      42.757  66.376  42.675  0.00  0.00     0.028 H 
ATOM    124  H71 VAL d   1      43.565  64.898  42.049  0.00  0.00     0.028 H 
ATOM    125  H72 VAL d   1      44.533  66.178  42.856  0.00  0.00     0.028 H 
ENDBRANCH 120 122
BRANCH 120 126
ATOM    126  CG1 VAL d   1      44.468  63.963  44.446  0.00  0.00    -0.071 C 
ATOM    127  H67 VAL d   1      45.438  64.480  44.414  0.00  0.00     0.028 H 
ATOM    128  H68 VAL d   1      44.441  63.185  43.669  0.00  0.00     0.028 H 
ATOM    129  H69 VAL d   1      44.332  63.499  45.434  0.00  0.00     0.028 H 
ENDBRANCH 120 126
ENDBRANCH 118 120
BRANCH 118 130
ATOM    130  C   VAL d   1      40.828  65.218  44.470  0.00  0.00     0.163 C 
ATOM    131  O   VAL d   1      40.063  64.978  45.439  0.00  0.00    -0.648 OA
BRANCH 130 132
ATOM    132  O1  VAL d   1      40.655  66.277  43.684  0.00  0.00    -0.775 OA
ATOM    133  H73 VAL d   1      41.328  66.286  43.014  0.00  0.00     0.167 HD
ENDBRANCH 130 132
ENDBRANCH 118 130
ENDBRANCH 116 118
ENDBRANCH 104 114
ENDBRANCH 102 104
ENDBRANCH  80 100
ENDBRANCH  78  80
ENDBRANCH   1  76
TORSDOF 38
