REMARK WARNING: 32 MAX_TORS EXCEEDED!!!
REMARK  46 active torsions:
REMARK  status: ('A' for Active; 'I' for Inactive)
REMARK    1  A    between atoms: N_1  and  CA_2 
REMARK    2  A    between atoms: CA_2  and  C_3 
REMARK    3  A    between atoms: CA_2  and  CB_5 
REMARK       I    between atoms: C_3  and  N_9 
REMARK    4  A    between atoms: CB_5  and  CG_6 
REMARK    5  A    between atoms: CG_6  and  CD1_7 
REMARK    6  A    between atoms: CG_6  and  CD2_8 
REMARK    7  A    between atoms: N_9  and  CA_10 
REMARK    8  A    between atoms: CA_10  and  C_11 
REMARK    9  A    between atoms: CA_10  and  CB_13 
REMARK       I    between atoms: C_11  and  N_16 
REMARK   10  A    between atoms: CB_13  and  CG1_14 
REMARK   11  A    between atoms: CB_13  and  CG2_15 
REMARK   12  A    between atoms: N_16  and  CA_17 
REMARK   13  A    between atoms: CA_17  and  C_18 
REMARK   14  A    between atoms: CA_17  and  CB_20 
REMARK       I    between atoms: C_18  and  N_24 
REMARK   15  A    between atoms: CB_20  and  CG1_21 
REMARK   16  A    between atoms: CB_20  and  CG2_22 
REMARK   17  A    between atoms: CG1_21  and  CD1_23 
REMARK   18  A    between atoms: N_24  and  CA_25 
REMARK   19  A    between atoms: CA_25  and  C_26 
REMARK   20  A    between atoms: CA_25  and  CB_28 
REMARK       I    between atoms: C_26  and  N_29 
REMARK   21  A    between atoms: N_29  and  CA_30 
REMARK   22  A    between atoms: CA_30  and  C_31 
REMARK       I    between atoms: C_31  and  N_33 
REMARK   23  A    between atoms: N_33  and  CA_34 
REMARK   24  A    between atoms: CA_34  and  C_35 
REMARK   25  A    between atoms: CA_34  and  CB_37 
REMARK       I    between atoms: C_35  and  N_41 
REMARK   26  A    between atoms: CB_37  and  CG_38 
REMARK       I    between atoms: CG_38  and  ND2_40 
REMARK   27  A    between atoms: CA_42  and  C_43 
REMARK       I    between atoms: C_43  and  N_48 
REMARK   28  A    between atoms: N_48  and  CA_49 
REMARK   29  A    between atoms: CA_49  and  C_50 
REMARK   30  A    between atoms: CA_49  and  CB_52 
REMARK       I    between atoms: C_50  and  N_53 
REMARK   31  A    between atoms: N_53  and  CA_54 
REMARK   32  A    between atoms: CA_54  and  C_55 
REMARK   33  A    between atoms: CA_54  and  CB_57 
REMARK       I    between atoms: C_55  and  N_69 
REMARK   34  A    between atoms: CB_57  and  CG_58 
REMARK   35  A    between atoms: CZ_63  and  OH_64 
REMARK   36  A    between atoms: OH_64  and  P_65 
REMARK   37  A    between atoms: N_69  and  CA_70 
REMARK   38  A    between atoms: CA_70  and  C_71 
REMARK   39  A    between atoms: CA_70  and  CB_73 
REMARK       I    between atoms: C_71  and  N_80 
REMARK   40  A    between atoms: CB_73  and  CG_74 
REMARK   41  A    between atoms: CG_74  and  CD_75 
REMARK   42  A    between atoms: CD_75  and  NE_76 
REMARK       I    between atoms: NE_76  and  CZ_77 
REMARK       I    between atoms: CZ_77  and  NH1_78 
REMARK   43  A    between atoms: N_80  and  CA_81 
REMARK   44  A    between atoms: CA_81  and  C_82 
REMARK   45  A    between atoms: CA_81  and  CB_84 
REMARK   46  A    between atoms: CB_84  and  OG_85 
ROOT
ATOM      1  C   ASN d   1      -7.930  -5.090  -6.547  0.00  0.00     0.243 C 
ATOM      2  O   ASN d   1      -7.884  -5.035  -7.760  0.00  0.00    -0.271 OA
ATOM      3  N   PRO d   1      -9.060  -5.091  -5.870  0.00  0.00    -0.337 N 
ATOM      4  CA  PRO d   1     -10.376  -5.026  -6.525  0.00  0.00     0.091 C 
ATOM      5  CB  PRO d   1     -11.391  -5.373  -5.442  0.00  0.00    -0.036 C 
ATOM      6  CG  PRO d   1     -10.662  -4.962  -4.142  0.00  0.00    -0.048 C 
ATOM      7  CD  PRO d   1      -9.148  -5.159  -4.393  0.00  0.00    -0.001 C 
ATOM      8  H48 PRO d   1     -10.427  -5.756  -7.346  0.00  0.00     0.087 H 
ATOM      9  H49 PRO d   1     -11.620  -6.449  -5.444  0.00  0.00     0.036 H 
ATOM     10  H50 PRO d   1     -12.321  -4.800  -5.573  0.00  0.00     0.036 H 
ATOM     11  H51 PRO d   1     -10.992  -5.596  -3.306  0.00  0.00     0.035 H 
ATOM     12  H52 PRO d   1     -10.872  -3.908  -3.908  0.00  0.00     0.035 H 
ATOM     13  H53 PRO d   1      -8.559  -4.358  -3.922  0.00  0.00     0.064 H 
ATOM     14  H54 PRO d   1      -8.806  -6.135  -4.018  0.00  0.00     0.064 H 
ENDROOT
BRANCH   1  15
ATOM     15  CA  ASN d   1      -6.622  -5.174  -5.735  0.00  0.00     0.097 C 
ATOM     16  H43 ASN d   1      -6.843  -5.096  -4.660  0.00  0.00     0.088 H 
BRANCH  15  17
ATOM     17  N   ASN d   1      -5.959  -6.475  -6.025  0.00  0.00    -0.346 N 
ATOM     18  C   GLY d   1      -5.918  -7.410  -5.118  0.00  0.00     0.236 C 
ATOM     19  O   GLY d   1      -6.413  -7.250  -4.020  0.00  0.00    -0.272 OA
ATOM     20  H42 ASN d   1      -5.543  -6.632  -6.921  0.00  0.00     0.163 HD
BRANCH  18  21
ATOM     21  CA  GLY d   1      -5.221  -8.717  -5.495  0.00  0.00     0.069 C 
ATOM     22  H40 GLY d   1      -5.862  -9.286  -6.184  0.00  0.00     0.078 H 
ATOM     23  H41 GLY d   1      -4.264  -8.491  -5.987  0.00  0.00     0.078 H 
BRANCH  21  24
ATOM     24  N   GLY d   1      -4.967  -9.529  -4.272  0.00  0.00    -0.351 N 
ATOM     25  C   ALA d   1      -3.788 -10.052  -4.082  0.00  0.00     0.240 C 
ATOM     26  O   ALA d   1      -2.896  -9.885  -4.886  0.00  0.00    -0.271 OA
ATOM     27  H39 GLY d   1      -5.695  -9.672  -3.602  0.00  0.00     0.163 HD
BRANCH  25  28
ATOM     28  CA  ALA d   1      -3.565 -10.881  -2.815  0.00  0.00     0.086 C 
ATOM     29  H35 ALA d   1      -4.213 -11.770  -2.836  0.00  0.00     0.086 H 
BRANCH  28  30
ATOM     30  N   ALA d   1      -2.137 -11.304  -2.758  0.00  0.00    -0.346 N 
ATOM     31  C   ILE d   1      -1.823 -12.542  -2.477  0.00  0.00     0.241 C 
ATOM     32  O   ILE d   1      -2.679 -13.376  -2.257  0.00  0.00    -0.271 OA
ATOM     33  H34 ALA d   1      -1.414 -10.636  -2.936  0.00  0.00     0.163 HD
BRANCH  31  34
ATOM     34  CA  ILE d   1      -0.333 -12.897  -2.439  0.00  0.00     0.092 C 
ATOM     35  H24 ILE d   1       0.219 -12.064  -1.979  0.00  0.00     0.088 H 
BRANCH  34  36
ATOM     36  N   ILE d   1      -0.122 -14.131  -1.629  0.00  0.00    -0.346 N 
ATOM     37  C   VAL d   1       0.740 -14.123  -0.648  0.00  0.00     0.241 C 
ATOM     38  O   VAL d   1       1.378 -13.124  -0.380  0.00  0.00    -0.271 OA
ATOM     39  H23 ILE d   1      -0.639 -14.962  -1.836  0.00  0.00     0.163 HD
BRANCH  37  40
ATOM     40  CA  VAL d   1       0.925 -15.416   0.149  0.00  0.00     0.092 C 
ATOM     41  H15 VAL d   1       0.204 -16.171  -0.198  0.00  0.00     0.088 H 
BRANCH  40  42
ATOM     42  N   VAL d   1       2.314 -15.915  -0.056  0.00  0.00    -0.346 N 
ATOM     43  C   LEU d   1       2.750 -16.154  -1.261  0.00  0.00     0.249 C 
ATOM     44  O   LEU d   1       2.042 -15.978  -2.233  0.00  0.00    -0.271 OA
ATOM     45  H14 VAL d   1       2.912 -16.067   0.731  0.00  0.00     0.163 HD
BRANCH  43  46
ATOM     46  CA  LEU d   1       4.187 -16.661  -1.398  0.00  0.00     0.176 C 
ATOM     47  H4  LEU d   1       4.842 -16.080  -0.732  0.00  0.00     0.099 H 
BRANCH  46  48
ATOM     48  N   LEU d   1       4.245 -18.101  -1.016  0.00  0.00    -0.066 N 
ATOM     49  H1  LEU d   1       5.192 -18.435  -1.106  0.00  0.00     0.275 HD
ATOM     50  H2  LEU d   1       3.642 -18.634  -1.622  0.00  0.00     0.275 HD
ATOM     51  H3  LEU d   1       3.941 -18.208  -0.061  0.00  0.00     0.275 HD
ENDBRANCH  46  48
BRANCH  46  52
ATOM     52  CB  LEU d   1       4.663 -16.498  -2.845  0.00  0.00    -0.028 C 
ATOM     53  H5  LEU d   1       3.792 -16.380  -3.507  0.00  0.00     0.037 H 
ATOM     54  H6  LEU d   1       5.234 -17.389  -3.146  0.00  0.00     0.037 H 
BRANCH  52  55
ATOM     55  CG  LEU d   1       5.555 -15.260  -2.949  0.00  0.00    -0.059 C 
ATOM     56  H7  LEU d   1       5.523 -14.703  -2.001  0.00  0.00     0.038 H 
BRANCH  55  57
ATOM     57  CD1 LEU d   1       6.993 -15.692  -3.239  0.00  0.00    -0.073 C 
ATOM     58  H8  LEU d   1       7.635 -14.802  -3.314  0.00  0.00     0.028 H 
ATOM     59  H9  LEU d   1       7.025 -16.248  -4.188  0.00  0.00     0.028 H 
ATOM     60  H10 LEU d   1       7.354 -16.337  -2.424  0.00  0.00     0.028 H 
ENDBRANCH  55  57
BRANCH  55  61
ATOM     61  CD2 LEU d   1       5.053 -14.364  -4.085  0.00  0.00    -0.073 C 
ATOM     62  H11 LEU d   1       4.019 -14.053  -3.877  0.00  0.00     0.028 H 
ATOM     63  H12 LEU d   1       5.085 -14.921  -5.033  0.00  0.00     0.028 H 
ATOM     64  H13 LEU d   1       5.695 -13.474  -4.161  0.00  0.00     0.028 H 
ENDBRANCH  55  61
ENDBRANCH  52  55
ENDBRANCH  46  52
ENDBRANCH  43  46
ENDBRANCH  40  42
BRANCH  40  65
ATOM     65  CB  VAL d   1       0.702 -15.141   1.638  0.00  0.00    -0.033 C 
ATOM     66  H16 VAL d   1       1.289 -14.261   1.939  0.00  0.00     0.042 H 
BRANCH  65  67
ATOM     67  CG1 VAL d   1      -0.781 -14.875   1.896  0.00  0.00    -0.071 C 
ATOM     68  H17 VAL d   1      -0.937 -14.678   2.967  0.00  0.00     0.028 H 
ATOM     69  H18 VAL d   1      -1.369 -15.755   1.596  0.00  0.00     0.028 H 
ATOM     70  H19 VAL d   1      -1.104 -14.001   1.311  0.00  0.00     0.028 H 
ENDBRANCH  65  67
BRANCH  65  71
ATOM     71  CG2 VAL d   1       1.150 -16.356   2.456  0.00  0.00    -0.071 C 
ATOM     72  H20 VAL d   1       2.217 -16.549   2.272  0.00  0.00     0.028 H 
ATOM     73  H21 VAL d   1       0.561 -17.236   2.158  0.00  0.00     0.028 H 
ATOM     74  H22 VAL d   1       0.993 -16.156   3.526  0.00  0.00     0.028 H 
ENDBRANCH  65  71
ENDBRANCH  40  65
ENDBRANCH  37  40
ENDBRANCH  34  36
BRANCH  34  75
ATOM     75  CB  ILE d   1       0.204 -13.131  -3.858  0.00  0.00    -0.030 C 
ATOM     76  H25 ILE d   1       1.211 -13.568  -3.789  0.00  0.00     0.043 H 
BRANCH  75  77
ATOM     77  CG1 ILE d   1       0.293 -11.790  -4.599  0.00  0.00    -0.063 C 
ATOM     78  H26 ILE d   1       1.226 -11.758  -5.181  0.00  0.00     0.033 H 
ATOM     79  H27 ILE d   1       0.290 -10.969  -3.866  0.00  0.00     0.033 H 
BRANCH  77  80
ATOM     80  CD1 ILE d   1      -0.897 -11.628  -5.543  0.00  0.00    -0.076 C 
ATOM     81  H31 ILE d   1      -0.821 -10.664  -6.067  0.00  0.00     0.027 H 
ATOM     82  H32 ILE d   1      -1.831 -11.657  -4.963  0.00  0.00     0.027 H 
ATOM     83  H33 ILE d   1      -0.896 -12.446  -6.278  0.00  0.00     0.027 H 
ENDBRANCH  77  80
ENDBRANCH  75  77
BRANCH  75  84
ATOM     84  CG2 ILE d   1      -0.703 -14.102  -4.626  0.00  0.00    -0.071 C 
ATOM     85  H28 ILE d   1      -0.758 -15.058  -4.085  0.00  0.00     0.028 H 
ATOM     86  H29 ILE d   1      -0.290 -14.273  -5.631  0.00  0.00     0.028 H 
ATOM     87  H30 ILE d   1      -1.711 -13.671  -4.713  0.00  0.00     0.028 H 
ENDBRANCH  75  84
ENDBRANCH  34  75
ENDBRANCH  31  34
ENDBRANCH  28  30
BRANCH  28  88
ATOM     88  CB  ALA d   1      -3.900 -10.033  -1.586  0.00  0.00    -0.049 C 
ATOM     89  H36 ALA d   1      -4.954  -9.723  -1.631  0.00  0.00     0.030 H 
ATOM     90  H37 ALA d   1      -3.256  -9.142  -1.569  0.00  0.00     0.030 H 
ATOM     91  H38 ALA d   1      -3.731 -10.625  -0.675  0.00  0.00     0.030 H 
ENDBRANCH  28  88
ENDBRANCH  25  28
ENDBRANCH  21  24
ENDBRANCH  18  21
ENDBRANCH  15  17
BRANCH  15  92
ATOM     92  CB  ASN d   1      -5.687  -4.041  -6.157  0.00  0.00     0.036 C 
ATOM     93  H44 ASN d   1      -5.969  -3.690  -7.161  0.00  0.00     0.051 H 
ATOM     94  H45 ASN d   1      -4.651  -4.410  -6.175  0.00  0.00     0.051 H 
BRANCH  92  95
ATOM     95  CG  ASN d   1      -5.796  -2.883  -5.165  0.00  0.00     0.217 C 
ATOM     96  OD1 ASN d   1      -4.999  -2.772  -4.255  0.00  0.00    -0.274 OA
ATOM     97  ND2 ASN d   1      -6.753  -2.007  -5.306  0.00  0.00    -0.370 N 
ATOM     98  H46 ASN d   1      -6.833  -1.246  -4.662  0.00  0.00     0.159 HD
ATOM     99  H47 ASN d   1      -7.406  -2.097  -6.058  0.00  0.00     0.159 HD
ENDBRANCH  92  95
ENDBRANCH  15  92
ENDBRANCH   1  15
BRANCH   4 100
ATOM    100  C   PRO d   1     -10.653  -3.621  -7.077  0.00  0.00     0.241 C 
ATOM    101  O   PRO d   1     -11.220  -3.466  -8.140  0.00  0.00    -0.271 OA
ATOM    102  N   ALA d   1     -10.269  -2.597  -6.363  0.00  0.00    -0.346 N 
ATOM    103  H55 ALA d   1      -9.803  -2.744  -5.490  0.00  0.00     0.163 HD
BRANCH 102 104
ATOM    104  CA  ALA d   1     -10.524  -1.206  -6.848  0.00  0.00     0.086 C 
ATOM    105  H56 ALA d   1     -11.556  -1.143  -7.224  0.00  0.00     0.086 H 
BRANCH 104 106
ATOM    106  C   ALA d   1      -9.556  -0.817  -7.980  0.00  0.00     0.240 C 
ATOM    107  O   ALA d   1      -9.628   0.278  -8.500  0.00  0.00    -0.271 OA
ATOM    108  N   PTR d   1      -8.653  -1.681  -8.371  0.00  0.00    -0.346 N 
ATOM    109  H60 PTR d   1      -8.599  -2.581  -7.938  0.00  0.00     0.163 HD
BRANCH 108 110
ATOM    110  CA  PTR d   1      -7.703  -1.318  -9.468  0.00  0.00     0.093 C 
ATOM    111  H61 PTR d   1      -7.192  -0.378  -9.211  0.00  0.00     0.088 H 
BRANCH 110 112
ATOM    112  C   PTR d   1      -8.467  -1.135 -10.784  0.00  0.00     0.241 C 
ATOM    113  O   PTR d   1      -8.063  -0.375 -11.638  0.00  0.00    -0.271 OA
ATOM    114  N   ARG d   1      -9.566  -1.828 -10.944  0.00  0.00    -0.346 N 
ATOM    115  H68 ARG d   1      -9.867  -2.445 -10.216  0.00  0.00     0.163 HD
BRANCH 114 116
ATOM    116  CA  ARG d   1     -10.380  -1.716 -12.193  0.00  0.00     0.089 C 
ATOM    117  H69 ARG d   1     -11.345  -2.216 -12.025  0.00  0.00     0.087 H 
BRANCH 116 118
ATOM    118  C   ARG d   1      -9.667  -2.417 -13.364  0.00  0.00     0.241 C 
ATOM    119  O   ARG d   1      -9.978  -3.545 -13.689  0.00  0.00    -0.271 OA
ATOM    120  N   SER d   1      -8.721  -1.777 -14.004  0.00  0.00    -0.343 N 
ATOM    121  H81 SER d   1      -8.470  -0.848 -13.731  0.00  0.00     0.163 HD
BRANCH 120 122
ATOM    122  CA  SER d   1      -8.019  -2.437 -15.141  0.00  0.00     0.116 C 
ATOM    123  H82 SER d   1      -7.310  -1.729 -15.596  0.00  0.00     0.093 H 
BRANCH 122 124
ATOM    124  C   SER d   1      -9.043  -2.877 -16.189  0.00  0.00     0.198 C 
ATOM    125  O   SER d   1     -10.194  -2.497 -16.059  0.00  0.00    -0.646 OA
ATOM    126  OXT SER d   1      -8.658  -3.588 -17.102  0.00  0.00    -0.646 OA
ENDBRANCH 122 124
BRANCH 122 127
ATOM    127  CB  SER d   1      -7.260  -3.658 -14.626  0.00  0.00     0.045 C 
ATOM    128  H83 SER d   1      -7.204  -3.619 -13.528  0.00  0.00     0.077 H 
ATOM    129  H84 SER d   1      -6.243  -3.662 -15.045  0.00  0.00     0.077 H 
BRANCH 127 130
ATOM    130  OG  SER d   1      -7.943  -4.839 -15.025  0.00  0.00    -0.398 OA
ATOM    131  H85 SER d   1      -7.991  -4.871 -15.973  0.00  0.00     0.209 HD
ENDBRANCH 127 130
ENDBRANCH 122 127
ENDBRANCH 120 122
ENDBRANCH 116 118
BRANCH 116 132
ATOM    132  CB  ARG d   1     -10.649  -0.242 -12.526  0.00  0.00    -0.036 C 
ATOM    133  H70 ARG d   1     -11.448  -0.177 -13.279  0.00  0.00     0.036 H 
ATOM    134  H71 ARG d   1      -9.732   0.217 -12.924  0.00  0.00     0.036 H 
BRANCH 132 135
ATOM    135  CG  ARG d   1     -11.081   0.498 -11.261  0.00  0.00    -0.048 C 
ATOM    136  H72 ARG d   1     -10.217   0.612 -10.590  0.00  0.00     0.035 H 
ATOM    137  H73 ARG d   1     -11.868  -0.076 -10.751  0.00  0.00     0.035 H 
BRANCH 135 138
ATOM    138  CD  ARG d   1     -11.620   1.880 -11.636  0.00  0.00     0.009 C 
ATOM    139  H74 ARG d   1     -10.798   2.503 -12.019  0.00  0.00     0.064 H 
ATOM    140  H75 ARG d   1     -12.058   2.357 -10.746  0.00  0.00     0.064 H 
BRANCH 138 141
ATOM    141  NE  ARG d   1     -12.666   1.737 -12.688  0.00  0.00    -0.227 N 
ATOM    142  CZ  ARG d   1     -12.661   2.531 -13.725  0.00  0.00     0.665 C 
ATOM    143  NH1 ARG d   1     -11.821   2.322 -14.702  0.00  0.00    -0.235 N 
ATOM    144  NH2 ARG d   1     -13.495   3.532 -13.786  0.00  0.00    -0.235 N 
ATOM    145  H77 ARG d   1     -11.816   2.948 -15.520  0.00  0.00     0.174 HD
ATOM    146  H78 ARG d   1     -11.163   1.531 -14.655  0.00  0.00     0.174 HD
ATOM    147  H79 ARG d   1     -14.158   3.697 -13.015  0.00  0.00     0.174 HD
ATOM    148  H80 ARG d   1     -13.491   4.157 -14.605  0.00  0.00     0.174 HD
ATOM    149  H76 ARG d   1     -13.392   1.012 -12.597  0.00  0.00     0.177 HD
ENDBRANCH 138 141
ENDBRANCH 135 138
ENDBRANCH 132 135
ENDBRANCH 116 132
ENDBRANCH 114 116
ENDBRANCH 110 112
BRANCH 110 150
ATOM    150  CB  PTR d   1      -6.667  -2.432  -9.631  0.00  0.00    -0.014 C 
ATOM    151  H62 PTR d   1      -7.174  -3.360  -9.934  0.00  0.00     0.043 H 
ATOM    152  H63 PTR d   1      -6.151  -2.592  -8.673  0.00  0.00     0.043 H 
BRANCH 150 153
ATOM    153  CG  PTR d   1      -5.656  -2.048 -10.685  0.00  0.00    -0.056 A 
ATOM    154  CD1 PTR d   1      -4.888  -0.889 -10.529  0.00  0.00    -0.074 A 
ATOM    155  CE1 PTR d   1      -3.949  -0.534 -11.504  0.00  0.00    -0.050 A 
ATOM    156  H64 PTR d   1      -5.020  -0.266  -9.652  0.00  0.00     0.084 H 
ATOM    157  CZ  PTR d   1      -3.778  -1.338 -12.636  0.00  0.00     0.082 A 
ATOM    158  H66 PTR d   1      -3.354   0.364 -11.382  0.00  0.00     0.087 H 
ATOM    159  CE2 PTR d   1      -4.546  -2.498 -12.793  0.00  0.00    -0.050 A 
ATOM    160  CD2 PTR d   1      -5.485  -2.853 -11.817  0.00  0.00    -0.074 A 
ATOM    161  H67 PTR d   1      -4.414  -3.121 -13.670  0.00  0.00     0.087 H 
ATOM    162  H65 PTR d   1      -6.080  -3.751 -11.938  0.00  0.00     0.084 H 
BRANCH 157 163
ATOM    163  OH  PTR d   1      -2.837  -0.983 -13.611  0.00  0.00    -0.240 OA
BRANCH 163 164
ATOM    164  P   PTR d   1      -3.347  -0.711 -15.059  0.00  0.00     0.427 P 
ATOM    165  O1P PTR d   1      -3.783  -2.102 -15.587  0.00  0.00    -0.617 OA
ATOM    166  O2P PTR d   1      -2.086  -0.252 -15.835  0.00  0.00    -0.617 OA
ATOM    167  O3P PTR d   1      -4.506   0.377 -14.879  0.00  0.00    -0.617 OA
ENDBRANCH 163 164
ENDBRANCH 157 163
ENDBRANCH 150 153
ENDBRANCH 110 150
ENDBRANCH 108 110
ENDBRANCH 104 106
BRANCH 104 168
ATOM    168  CB  ALA d   1     -10.348  -0.230  -5.683  0.00  0.00    -0.049 C 
ATOM    169  H57 ALA d   1     -10.534   0.796  -6.033  0.00  0.00     0.030 H 
ATOM    170  H58 ALA d   1      -9.322  -0.304  -5.294  0.00  0.00     0.030 H 
ATOM    171  H59 ALA d   1     -11.062  -0.480  -4.884  0.00  0.00     0.030 H 
ENDBRANCH 104 168
ENDBRANCH 102 104
ENDBRANCH   4 100
TORSDOF 46
