REMARK  22 active torsions:
REMARK  status: ('A' for Active; 'I' for Inactive)
REMARK    1  A    between atoms: C7_16  and  C1_1 
REMARK       I    between atoms: C1_1  and  N1_3 
REMARK    2  A    between atoms: N1_3  and  C2_4 
REMARK    3  A    between atoms: C_6  and  CA_5 
REMARK       I    between atoms: N_41  and  C_6 
REMARK    4  A    between atoms: CB_8  and  CG_9 
REMARK    5  A    between atoms: CZ_14  and  OH_15 
REMARK    6  A    between atoms: OH_15  and  P_17 
REMARK    7  A    between atoms: CA_42  and  N_41 
REMARK    8  A    between atoms: C_43  and  CA_42 
REMARK    9  A    between atoms: CA_42  and  CB_45 
REMARK       I    between atoms: N_51  and  C_43 
REMARK   10  A    between atoms: CB_45  and  CG_46 
REMARK   11  A    between atoms: CG_46  and  CD_47 
REMARK   12  A    between atoms: CA_52  and  N_51 
REMARK   13  A    between atoms: C_53  and  CA_52 
REMARK   14  A    between atoms: CA_52  and  CB_55 
REMARK       I    between atoms: C_53  and  N_61 
REMARK   15  A    between atoms: CB_55  and  CG_56 
REMARK   16  A    between atoms: CG_56  and  CD_57 
REMARK   17  A    between atoms: N_61  and  CA_62 
REMARK   18  A    between atoms: CA_62  and  C_63 
REMARK   19  A    between atoms: CA_62  and  CB_65 
REMARK   20  A    between atoms: CB_65  and  CG1_66 
REMARK   21  A    between atoms: CB_65  and  CG2_67 
REMARK   22  A    between atoms: CG1_66  and  CD1_68 
ROOT
ATOM      1  H13 GLU d   1      10.206  26.634  21.619  0.00  0.00     0.087 H 
ATOM      2  CA  GLU d   1      11.108  26.876  21.038  0.00  0.00     0.090 C 
ENDROOT
BRANCH   2   3
ATOM      3  C   GLU d   1      11.410  28.338  21.351  0.00  0.00     0.241 C 
ATOM      4  O   GLU d   1      11.854  29.103  20.502  0.00  0.00    -0.271 OA
ATOM      5  N   GLU d   1      11.171  28.693  22.606  0.00  0.00    -0.346 N 
ATOM      6  H18 GLU d   1      10.800  28.008  23.233  0.00  0.00     0.163 HD
BRANCH   5   7
ATOM      7  CA  GLU d   1      11.425  30.040  23.114  0.00  0.00     0.090 C 
ATOM      8  H19 GLU d   1      11.808  30.673  22.300  0.00  0.00     0.087 H 
BRANCH   7   9
ATOM      9  C   GLU d   1      12.459  29.963  24.239  0.00  0.00     0.241 C 
ATOM     10  O   GLU d   1      12.524  28.955  24.958  0.00  0.00    -0.271 OA
ATOM     11  N   ILE d   1      13.282  31.005  24.380  0.00  0.00    -0.344 N 
ATOM     12  H24 ILE d   1      13.206  31.774  23.746  0.00  0.00     0.163 HD
BRANCH  11  13
ATOM     13  CA  ILE d   1      14.295  31.052  25.440  0.00  0.00     0.099 C 
ATOM     14  H25 ILE d   1      14.335  30.083  25.959  0.00  0.00     0.090 H 
BRANCH  13  15
ATOM     15  C   ILE d   1      13.874  32.174  26.395  0.00  0.00     0.197 C 
ATOM     16  O2  ILE d   1      13.871  32.039  27.648  0.00  0.00    -0.646 OA
ATOM     17  O   ILE d   1      13.532  33.240  25.824  0.00  0.00    -0.646 OA
ENDBRANCH  13  15
BRANCH  13  18
ATOM     18  CB  ILE d   1      15.721  31.430  24.913  0.00  0.00    -0.029 C 
ATOM     19  H26 ILE d   1      15.672  32.428  24.454  0.00  0.00     0.043 H 
BRANCH  18  20
ATOM     20  CG1 ILE d   1      16.212  30.431  23.876  0.00  0.00    -0.063 C 
ATOM     21  H27 ILE d   1      15.487  30.389  23.050  0.00  0.00     0.033 H 
ATOM     22  H28 ILE d   1      16.291  29.439  24.345  0.00  0.00     0.033 H 
BRANCH  20  23
ATOM     23  CD1 ILE d   1      17.560  30.820  23.324  0.00  0.00    -0.076 C 
ATOM     24  H32 ILE d   1      17.880  30.076  22.580  0.00  0.00     0.027 H 
ATOM     25  H33 ILE d   1      18.294  30.859  24.142  0.00  0.00     0.027 H 
ATOM     26  H34 ILE d   1      17.489  31.809  22.847  0.00  0.00     0.027 H 
ENDBRANCH  20  23
ENDBRANCH  18  20
BRANCH  18  27
ATOM     27  CG2 ILE d   1      16.733  31.454  26.071  0.00  0.00    -0.070 C 
ATOM     28  H29 ILE d   1      16.399  32.171  26.835  0.00  0.00     0.028 H 
ATOM     29  H30 ILE d   1      17.719  31.758  25.690  0.00  0.00     0.028 H 
ATOM     30  H31 ILE d   1      16.805  30.451  26.516  0.00  0.00     0.028 H 
ENDBRANCH  18  27
ENDBRANCH  13  18
ENDBRANCH  11  13
ENDBRANCH   7   9
BRANCH   7  31
ATOM     31  CB  GLU d   1      10.141  30.641  23.666  0.00  0.00    -0.029 C 
ATOM     32  H20 GLU d   1      10.414  31.406  24.407  0.00  0.00     0.037 H 
ATOM     33  H21 GLU d   1       9.573  29.838  24.160  0.00  0.00     0.037 H 
BRANCH  31  34
ATOM     34  CG  GLU d   1       9.250  31.280  22.645  0.00  0.00     0.018 C 
ATOM     35  H22 GLU d   1       8.981  30.531  21.886  0.00  0.00     0.049 H 
ATOM     36  H23 GLU d   1       9.791  32.110  22.167  0.00  0.00     0.049 H 
BRANCH  34  37
ATOM     37  CD  GLU d   1       7.975  31.821  23.281  0.00  0.00     0.172 C 
ATOM     38  OE1 GLU d   1       8.079  32.610  24.259  0.00  0.00    -0.648 OA
ATOM     39  OE2 GLU d   1       6.871  31.453  22.805  0.00  0.00    -0.648 OA
ENDBRANCH  34  37
ENDBRANCH  31  34
ENDBRANCH   7  31
ENDBRANCH   5   7
ENDBRANCH   2   3
BRANCH   2  40
ATOM     40  CB  GLU d   1      12.261  26.041  21.615  0.00  0.00    -0.029 C 
ATOM     41  H14 GLU d   1      12.405  26.340  22.664  0.00  0.00     0.037 H 
ATOM     42  H15 GLU d   1      13.169  26.273  21.040  0.00  0.00     0.037 H 
BRANCH  40  43
ATOM     43  CG  GLU d   1      12.058  24.547  21.581  0.00  0.00     0.018 C 
ATOM     44  H16 GLU d   1      12.997  24.059  21.881  0.00  0.00     0.049 H 
ATOM     45  H17 GLU d   1      11.804  24.251  20.552  0.00  0.00     0.049 H 
BRANCH  43  46
ATOM     46  CD  GLU d   1      10.952  24.078  22.506  0.00  0.00     0.172 C 
ATOM     47  OE1 GLU d   1      11.037  24.306  23.736  0.00  0.00    -0.648 OA
ATOM     48  OE2 GLU d   1      10.000  23.466  21.991  0.00  0.00    -0.648 OA
ENDBRANCH  43  46
ENDBRANCH  40  43
ENDBRANCH   2  40
BRANCH   2  49
ATOM     49  N   GLU d   1      10.791  26.452  19.664  0.00  0.00    -0.347 N 
ATOM     50  C   AY0 d   1       9.687  26.883  19.066  0.00  0.00     0.224 C 
ATOM     51  O   AY0 d   1       8.916  27.666  19.639  0.00  0.00    -0.273 OA
ATOM     52  H12 GLU d   1      11.411  25.836  19.178  0.00  0.00     0.163 HD
BRANCH  50  53
ATOM     53  CA  AY0 d   1       9.301  26.355  17.651  0.00  0.00     0.044 A 
ATOM     54  C7  AY0 d   1       7.895  26.219  17.128  0.00  0.00     0.044 A 
ATOM     55  CB  AY0 d   1       8.637  27.418  16.666  0.00  0.00    -0.004 A 
ATOM     56  H11 AY0 d   1       6.997  26.370  17.744  0.00  0.00     0.057 H 
ATOM     57  H6  AY0 d   1       8.311  28.427  16.960  0.00  0.00     0.050 H 
ATOM     58  H5  AY0 d   1      10.066  25.643  17.308  0.00  0.00     0.057 H 
BRANCH  54  59
ATOM     59  C1  AY0 d   1       7.837  24.900  16.381  0.00  0.00     0.223 C 
ATOM     60  N1  AY0 d   1       6.588  24.651  15.896  0.00  0.00    -0.365 N 
ATOM     61  H1  AY0 d   1       5.964  25.413  15.721  0.00  0.00     0.161 HD
ATOM     62  O1  AY0 d   1       8.781  24.148  16.212  0.00  0.00    -0.273 OA
BRANCH  60  63
ATOM     63  C2  AY0 d   1       6.153  23.289  15.631  0.00  0.00    -0.018 C 
ATOM     64  H2  AY0 d   1       5.122  23.302  15.247  0.00  0.00     0.056 H 
ATOM     65  H3  AY0 d   1       6.191  22.704  16.562  0.00  0.00     0.056 H 
ATOM     66  H4  AY0 d   1       6.817  22.831  14.883  0.00  0.00     0.056 H 
ENDBRANCH  60  63
ENDBRANCH  54  59
BRANCH  55  67
ATOM     67  CG  AY0 d   1       9.410  27.418  15.329  0.00  0.00    -0.052 A 
ATOM     68  CD2 AY0 d   1       8.621  27.424  14.156  0.00  0.00    -0.074 A 
ATOM     69  CE2 AY0 d   1       9.170  27.418  12.865  0.00  0.00    -0.050 A 
ATOM     70  H8  AY0 d   1       7.542  27.434  14.259  0.00  0.00     0.084 H 
ATOM     71  CZ  AY0 d   1      10.582  27.406  12.753  0.00  0.00     0.082 A 
ATOM     72  H10 AY0 d   1       8.537  27.422  11.985  0.00  0.00     0.087 H 
ATOM     73  CE1 AY0 d   1      11.390  27.391  13.878  0.00  0.00    -0.050 A 
ATOM     74  CD1 AY0 d   1      10.836  27.396  15.182  0.00  0.00    -0.074 A 
ATOM     75  H9  AY0 d   1      12.467  27.375  13.758  0.00  0.00     0.087 H 
ATOM     76  H7  AY0 d   1      11.480  27.383  16.054  0.00  0.00     0.084 H 
BRANCH  71  77
ATOM     77  OH  AY0 d   1      11.166  27.418  11.450  0.00  0.00    -0.240 OA
BRANCH  77  78
ATOM     78  P   AY0 d   1      11.053  26.216  10.355  0.00  0.00     0.427 P 
ATOM     79  O3P AY0 d   1      12.155  26.577   9.336  0.00  0.00    -0.617 OA
ATOM     80  O2P AY0 d   1      11.293  24.947  11.121  0.00  0.00    -0.617 OA
ATOM     81  O1P AY0 d   1       9.666  26.307   9.679  0.00  0.00    -0.617 OA
ENDBRANCH  77  78
ENDBRANCH  71  77
ENDBRANCH  55  67
ENDBRANCH  50  53
ENDBRANCH   2  49
TORSDOF 22
