REMARK WARNING: 32 MAX_TORS EXCEEDED!!!
REMARK  36 active torsions:
REMARK  status: ('A' for Active; 'I' for Inactive)
REMARK    1  A    between atoms: P1_5  and  O4_9 
REMARK    2  A    between atoms: C11_29  and  O1_6 
REMARK    3  A    between atoms: C13_31  and  O2_7 
REMARK    4  A    between atoms: C15_33  and  O3_8 
REMARK    5  A    between atoms: O3_8  and  C45_55 
REMARK    6  A    between atoms: O4_9  and  C17_35 
REMARK    7  A    between atoms: C21_39  and  O9_14 
REMARK    8  A    between atoms: C2_20  and  C1_19 
REMARK    9  A    between atoms: C3_21  and  C2_20 
REMARK   10  A    between atoms: C4_22  and  C3_21 
REMARK   11  A    between atoms: C3_21  and  C50_60 
REMARK   12  A    between atoms: C5_23  and  C4_22 
REMARK   13  A    between atoms: C6_24  and  C5_23 
REMARK   14  A    between atoms: C7_25  and  C6_24 
REMARK   15  A    between atoms: C8_26  and  C7_25 
REMARK   16  A    between atoms: C7_25  and  C49_59 
REMARK   17  A    between atoms: C8_26  and  C48_58 
REMARK   18  A    between atoms: C10_28  and  C9_27 
REMARK   19  A    between atoms: C11_29  and  C10_28 
REMARK   20  A    between atoms: C10_28  and  C47_57 
REMARK   21  A    between atoms: C12_30  and  C11_29 
REMARK   22  A    between atoms: C13_31  and  C12_30 
REMARK   23  A    between atoms: C12_30  and  C46_56 
REMARK   24  A    between atoms: C14_32  and  C13_31 
REMARK   25  A    between atoms: C15_33  and  C14_32 
REMARK   26  A    between atoms: C16_34  and  C15_33 
REMARK   27  A    between atoms: C18_36  and  C44_54 
REMARK   28  A    between atoms: C18_36  and  C43_53 
REMARK   29  A    between atoms: C22_40  and  C42_52 
REMARK   30  A    between atoms: C23_41  and  C24_42 
REMARK   31  A    between atoms: C24_42  and  C25_43 
REMARK   32  A    between atoms: C26_44  and  C27_45 
REMARK   33  A    between atoms: C29_46  and  C30_48 
REMARK   34  A    between atoms: C30_48  and  C41_51 
REMARK   35  A    between atoms: C30_48  and  C31_49 
REMARK   36  A    between atoms: C31_49  and  C32_50 
ROOT
ATOM      1  O8  CYU d   1      40.692  17.015  37.045  0.00  0.00    -0.344 OA
ATOM      2  O10 CYU d   1      41.279  15.290  35.520  0.00  0.00    -0.348 OA
ATOM      3  C16 CYU d   1      39.806  17.895  36.283  0.00  0.00     0.093 C 
ATOM      4  C17 CYU d   1      40.402  18.035  34.860  0.00  0.00     0.090 C 
ATOM      5  C18 CYU d   1      41.890  17.600  35.057  0.00  0.00     0.038 C 
ATOM      6  C19 CYU d   1      41.729  16.567  36.234  0.00  0.00     0.176 C 
ATOM      7  C20 CYU d   1      43.061  16.243  37.025  0.00  0.00     0.012 C 
ATOM      8  C21 CYU d   1      42.875  14.981  37.981  0.00  0.00     0.046 C 
ATOM      9  C22 CYU d   1      42.420  13.737  37.006  0.00  0.00    -0.007 C 
ATOM     10  C23 CYU d   1      41.073  14.199  36.487  0.00  0.00     0.050 C 
ATOM     11  H16 CYU d   1      39.847  18.896  36.738  0.00  0.00     0.091 H 
ATOM     12  H17 CYU d   1      40.347  19.069  34.490  0.00  0.00     0.089 H 
ATOM     13  H18 CYU d   1      43.337  17.116  37.634  0.00  0.00     0.044 H 
ATOM     14  H19 CYU d   1      43.864  16.030  36.303  0.00  0.00     0.044 H 
ATOM     15  H20 CYU d   1      43.850  14.735  38.426  0.00  0.00     0.083 H 
ATOM     16  H21 CYU d   1      42.250  12.843  37.624  0.00  0.00     0.047 H 
ATOM     17  H22 CYU d   1      40.373  14.450  37.297  0.00  0.00     0.084 H 
ENDROOT
BRANCH   3  18
ATOM     18  C15 CYU d   1      38.348  17.432  36.415  0.00  0.00     0.067 C 
ATOM     19  H15 CYU d   1      38.118  16.575  35.765  0.00  0.00     0.087 H 
BRANCH  18  20
ATOM     20  O3  CYU d   1      38.110  17.159  37.845  0.00  0.00    -0.388 OA
BRANCH  20  21
ATOM     21  C45 CYU d   1      37.992  15.697  38.096  0.00  0.00     0.005 C 
ATOM     22  H46 CYU d   1      37.815  15.522  39.167  0.00  0.00     0.066 H 
ATOM     23  H47 CYU d   1      38.923  15.196  37.791  0.00  0.00     0.066 H 
ATOM     24  H48 CYU d   1      37.151  15.292  37.515  0.00  0.00     0.066 H 
ENDBRANCH  20  21
ENDBRANCH  18  20
BRANCH  18  25
ATOM     25  C14 CYU d   1      37.454  18.667  36.139  0.00  0.00    -0.014 C 
ATOM     26  H13 CYU d   1      37.785  19.182  35.225  0.00  0.00     0.040 H 
ATOM     27  H14 CYU d   1      37.494  19.365  36.988  0.00  0.00     0.040 H 
BRANCH  25  28
ATOM     28  C13 CYU d   1      35.984  18.108  35.955  0.00  0.00     0.043 C 
ATOM     29  H12 CYU d   1      35.688  17.533  36.845  0.00  0.00     0.083 H 
BRANCH  28  30
ATOM     30  O2  CYU d   1      35.933  17.300  34.805  0.00  0.00    -0.395 OA
ATOM     31  H2  CYU d   1      36.174  17.817  34.045  0.00  0.00     0.210 HD
ENDBRANCH  28  30
BRANCH  28  32
ATOM     32  C12 CYU d   1      34.922  19.374  35.696  0.00  0.00    -0.007 C 
ATOM     33  H11 CYU d   1      33.890  19.029  35.538  0.00  0.00     0.047 H 
BRANCH  32  34
ATOM     34  C46 CYU d   1      35.450  20.212  34.436  0.00  0.00    -0.068 C 
ATOM     35  H49 CYU d   1      35.352  19.604  33.524  0.00  0.00     0.028 H 
ATOM     36  H50 CYU d   1      36.507  20.476  34.588  0.00  0.00     0.028 H 
ATOM     37  H51 CYU d   1      34.854  21.130  34.331  0.00  0.00     0.028 H 
ENDBRANCH  32  34
BRANCH  32  38
ATOM     38  C11 CYU d   1      35.063  20.254  37.026  0.00  0.00     0.047 C 
ATOM     39  H10 CYU d   1      36.094  20.630  37.101  0.00  0.00     0.084 H 
BRANCH  38  40
ATOM     40  O1  CYU d   1      34.782  19.385  38.177  0.00  0.00    -0.394 OA
ATOM     41  H1  CYU d   1      33.900  19.039  38.104  0.00  0.00     0.210 HD
ENDBRANCH  38  40
BRANCH  38  42
ATOM     42  C10 CYU d   1      34.009  21.576  37.001  0.00  0.00    -0.015 C 
ATOM     43  H9  CYU d   1      34.139  22.233  36.128  0.00  0.00     0.049 H 
BRANCH  42  44
ATOM     44  C47 CYU d   1      34.286  22.308  38.343  0.00  0.00    -0.067 C 
ATOM     45  H52 CYU d   1      33.638  23.194  38.418  0.00  0.00     0.028 H 
ATOM     46  H53 CYU d   1      35.340  22.621  38.379  0.00  0.00     0.028 H 
ATOM     47  H54 CYU d   1      34.076  21.628  39.182  0.00  0.00     0.028 H 
ENDBRANCH  42  44
BRANCH  42  48
ATOM     48  C9  CYU d   1      32.560  20.890  37.048  0.00  0.00    -0.091 C 
ATOM     49  C8  CYU d   1      31.668  21.418  36.208  0.00  0.00    -0.059 C 
ATOM     50  H8  CYU d   1      32.323  20.060  37.712  0.00  0.00     0.078 H 
BRANCH  49  51
ATOM     51  C48 CYU d   1      31.858  22.704  35.431  0.00  0.00    -0.051 C 
ATOM     52  H55 CYU d   1      32.822  23.158  35.704  0.00  0.00     0.033 H 
ATOM     53  H56 CYU d   1      31.043  23.402  35.672  0.00  0.00     0.033 H 
ATOM     54  H57 CYU d   1      31.847  22.486  34.353  0.00  0.00     0.033 H 
ENDBRANCH  49  51
BRANCH  49  55
ATOM     55  C7  CYU d   1      30.514  20.471  36.162  0.00  0.00    -0.056 C 
BRANCH  55  56
ATOM     56  C49 CYU d   1      30.222  19.193  37.028  0.00  0.00    -0.051 C 
ATOM     57  H58 CYU d   1      31.116  18.936  37.615  0.00  0.00     0.033 H 
ATOM     58  H59 CYU d   1      29.963  18.353  36.367  0.00  0.00     0.033 H 
ATOM     59  H60 CYU d   1      29.382  19.395  37.709  0.00  0.00     0.033 H 
ENDBRANCH  55  56
BRANCH  55  60
ATOM     60  C6  CYU d   1      29.461  21.003  35.293  0.00  0.00    -0.077 C 
ATOM     61  H7  CYU d   1      29.526  21.973  34.802  0.00  0.00     0.084 H 
BRANCH  60  62
ATOM     62  C5  CYU d   1      28.199  20.018  35.134  0.00  0.00    -0.082 C 
ATOM     63  H6  CYU d   1      28.042  19.049  35.606  0.00  0.00     0.083 H 
BRANCH  62  64
ATOM     64  C4  CYU d   1      27.291  20.737  34.189  0.00  0.00    -0.077 C 
ATOM     65  H5  CYU d   1      27.406  21.720  33.735  0.00  0.00     0.084 H 
BRANCH  64  66
ATOM     66  C3  CYU d   1      26.083  19.656  34.019  0.00  0.00    -0.052 C 
BRANCH  66  67
ATOM     67  C50 CYU d   1      26.013  18.157  34.325  0.00  0.00    -0.051 C 
ATOM     68  H61 CYU d   1      26.840  17.881  34.996  0.00  0.00     0.033 H 
ATOM     69  H62 CYU d   1      26.095  17.587  33.388  0.00  0.00     0.033 H 
ATOM     70  H63 CYU d   1      25.054  17.926  34.811  0.00  0.00     0.033 H 
ENDBRANCH  66  67
BRANCH  66  71
ATOM     71  C2  CYU d   1      24.983  20.013  33.129  0.00  0.00    -0.001 C 
ATOM     72  H4  CYU d   1      24.195  19.271  33.005  0.00  0.00     0.101 H 
BRANCH  71  73
ATOM     73  C1  CYU d   1      24.837  21.198  32.425  0.00  0.00     0.088 C 
ATOM     74  N1  CYU d   1      24.981  22.290  31.960  0.00  0.00    -0.192 NA
ENDBRANCH  71  73
ENDBRANCH  66  71
ENDBRANCH  64  66
ENDBRANCH  62  64
ENDBRANCH  60  62
ENDBRANCH  55  60
ENDBRANCH  49  55
ENDBRANCH  42  48
ENDBRANCH  38  42
ENDBRANCH  32  38
ENDBRANCH  28  32
ENDBRANCH  25  28
ENDBRANCH  18  25
ENDBRANCH   3  18
BRANCH   4  75
ATOM     75  O4  CYU d   1      39.649  17.166  33.993  0.00  0.00    -0.274 OA
BRANCH  75  76
ATOM     76  P1  CYU d   1      39.056  17.565  32.568  0.00  0.00     0.422 P 
ATOM     77  O7  CYU d   1      37.707  18.157  32.754  0.00  0.00    -0.617 OA
ATOM     78  O6  CYU d   1      38.957  16.229  31.807  0.00  0.00    -0.617 OA
ATOM     79  O5  CYU d   1      40.040  18.467  31.932  0.00  0.00    -0.617 OA
ENDBRANCH  75  76
ENDBRANCH   4  75
BRANCH   5  80
ATOM     80  C44 CYU d   1      42.480  17.087  33.673  0.00  0.00    -0.062 C 
ATOM     81  H43 CYU d   1      41.882  16.237  33.312  0.00  0.00     0.028 H 
ATOM     82  H44 CYU d   1      43.523  16.768  33.815  0.00  0.00     0.028 H 
ATOM     83  H45 CYU d   1      42.443  17.901  32.934  0.00  0.00     0.028 H 
ENDBRANCH   5  80
BRANCH   5  84
ATOM     84  C43 CYU d   1      42.689  18.786  35.604  0.00  0.00    -0.062 C 
ATOM     85  H40 CYU d   1      42.825  19.535  34.809  0.00  0.00     0.028 H 
ATOM     86  H41 CYU d   1      43.673  18.437  35.950  0.00  0.00     0.028 H 
ATOM     87  H42 CYU d   1      42.144  19.239  36.445  0.00  0.00     0.028 H 
ENDBRANCH   5  84
BRANCH  10  88
ATOM     88  C24 CYU d   1      40.562  13.058  35.508  0.00  0.00    -0.025 C 
ATOM     89  H23 CYU d   1      41.418  12.668  34.938  0.00  0.00     0.042 H 
ATOM     90  H24 CYU d   1      39.825  13.488  34.814  0.00  0.00     0.042 H 
BRANCH  88  91
ATOM     91  C25 CYU d   1      39.892  11.874  36.290  0.00  0.00    -0.098 C 
ATOM     92  C26 CYU d   1      38.616  11.759  36.527  0.00  0.00    -0.057 C 
ATOM     93  H26 CYU d   1      37.896  12.371  35.986  0.00  0.00     0.086 H 
ATOM     94  H25 CYU d   1      40.545  11.087  36.664  0.00  0.00     0.077 H 
BRANCH  92  95
ATOM     95  C27 CYU d   1      38.175  10.817  37.509  0.00  0.00     0.081 A 
ATOM     96  N2  CYU d   1      39.022   9.958  38.290  0.00  0.00    -0.227 NA
ATOM     97  C29 CYU d   1      38.392   9.162  39.148  0.00  0.00     0.149 A 
ATOM     98  O11 CYU d   1      37.012   9.441  38.990  0.00  0.00    -0.305 OA
ATOM     99  C28 CYU d   1      36.925  10.423  38.018  0.00  0.00     0.048 A 
ATOM    100  H27 CYU d   1      35.981  10.848  37.681  0.00  0.00     0.127 H 
BRANCH  97 101
ATOM    101  C30 CYU d   1      38.486   7.909  39.771  0.00  0.00     0.006 C 
ATOM    102  H28 CYU d   1      37.500   7.576  40.127  0.00  0.00     0.052 H 
BRANCH 101 103
ATOM    103  C41 CYU d   1      39.019   6.898  38.748  0.00  0.00    -0.066 C 
ATOM    104  H34 CYU d   1      38.299   6.798  37.922  0.00  0.00     0.028 H 
ATOM    105  H35 CYU d   1      39.157   5.921  39.235  0.00  0.00     0.028 H 
ATOM    106  H36 CYU d   1      39.983   7.250  38.353  0.00  0.00     0.028 H 
ENDBRANCH 101 103
BRANCH 101 107
ATOM    107  C31 CYU d   1      39.477   8.132  41.036  0.00  0.00    -0.058 C 
ATOM    108  H29 CYU d   1      40.450   8.520  40.701  0.00  0.00     0.033 H 
ATOM    109  H30 CYU d   1      39.626   7.188  41.581  0.00  0.00     0.033 H 
BRANCH 107 110
ATOM    110  C32 CYU d   1      38.717   9.229  41.983  0.00  0.00    -0.076 C 
ATOM    111  H31 CYU d   1      39.332   9.435  42.871  0.00  0.00     0.027 H 
ATOM    112  H32 CYU d   1      37.742   8.829  42.297  0.00  0.00     0.027 H 
ATOM    113  H33 CYU d   1      38.566  10.160  41.417  0.00  0.00     0.027 H 
ENDBRANCH 107 110
ENDBRANCH 101 107
ENDBRANCH  97 101
ENDBRANCH  92  95
ENDBRANCH  88  91
ENDBRANCH  10  88
BRANCH   8 114
ATOM    114  O9  CYU d   1      42.024  15.200  38.997  0.00  0.00    -0.395 OA
ATOM    115  H3  CYU d   1      41.168  15.423  38.650  0.00  0.00     0.210 HD
ENDBRANCH   8 114
BRANCH   9 116
ATOM    116  C42 CYU d   1      43.486  13.353  36.017  0.00  0.00    -0.068 C 
ATOM    117  H37 CYU d   1      44.393  13.044  36.557  0.00  0.00     0.028 H 
ATOM    118  H38 CYU d   1      43.718  14.215  35.374  0.00  0.00     0.028 H 
ATOM    119  H39 CYU d   1      43.127  12.519  35.396  0.00  0.00     0.028 H 
ENDBRANCH   9 116
TORSDOF 36
