REMARK  3 active torsions:
REMARK  status: ('A' for Active; 'I' for Inactive)
REMARK    1  A    between atoms: CA_1  and  CB2_6 
REMARK    2  A    between atoms: CA_1  and  CB1_5 
REMARK    3  A    between atoms: CA_1  and  C_2 
ROOT
ATOM      1  CA  ALQ d   1       3.575  29.654  -1.773  0.00  0.00     0.024 C 
ATOM      2  H1  ALQ d   1       2.858  29.750  -2.602  0.00  0.00     0.055 H 
ENDROOT
BRANCH   1   3
ATOM      3  CB2 ALQ d   1       3.905  31.067  -1.235  0.00  0.00    -0.064 C 
ATOM      4  H5  ALQ d   1       2.986  31.540  -0.860  0.00  0.00     0.028 H 
ATOM      5  H6  ALQ d   1       4.328  31.679  -2.046  0.00  0.00     0.028 H 
ATOM      6  H7  ALQ d   1       4.636  30.986  -0.417  0.00  0.00     0.028 H 
ENDBRANCH   1   3
BRANCH   1   7
ATOM      7  CB1 ALQ d   1       4.861  28.992  -2.298  0.00  0.00    -0.064 C 
ATOM      8  H2  ALQ d   1       5.305  29.623  -3.082  0.00  0.00     0.028 H 
ATOM      9  H3  ALQ d   1       4.620  28.003  -2.716  0.00  0.00     0.028 H 
ATOM     10  H4  ALQ d   1       5.577  28.876  -1.472  0.00  0.00     0.028 H 
ENDBRANCH   1   7
BRANCH   1  11
ATOM     11  C   ALQ d   1       2.939  28.770  -0.664  0.00  0.00     0.176 C 
ATOM     12  O2  ALQ d   1       2.422  27.628  -0.976  0.00  0.00    -0.648 OA
ATOM     13  O1  ALQ d   1       2.914  29.162   0.568  0.00  0.00    -0.648 OA
ENDBRANCH   1  11
TORSDOF 3
