REMARK WARNING: 32 MAX_TORS EXCEEDED!!!
REMARK  82 active torsions:
REMARK  status: ('A' for Active; 'I' for Inactive)
REMARK    1  A    between atoms: CA_2  and  N_1 
REMARK    2  A    between atoms: CA_2  and  CB_5 
REMARK    3  A    between atoms: C_3  and  CA_2 
REMARK       I    between atoms: N_6  and  C_3 
REMARK    4  A    between atoms: CA_7  and  N_6 
REMARK    5  A    between atoms: CA_7  and  CB_10 
REMARK    6  A    between atoms: C_8  and  CA_7 
REMARK       I    between atoms: N_11  and  C_8 
REMARK    7  A    between atoms: CA_12  and  N_11 
REMARK    8  A    between atoms: CA_12  and  CB_15 
REMARK    9  A    between atoms: C_13  and  CA_12 
REMARK       I    between atoms: N_16  and  C_13 
REMARK   10  A    between atoms: CA_17  and  N_16 
REMARK   11  A    between atoms: CA_17  and  CB_20 
REMARK   12  A    between atoms: C_18  and  CA_17 
REMARK       I    between atoms: N_27  and  C_18 
REMARK   13  A    between atoms: CB_20  and  CG_21 
REMARK   14  A    between atoms: CA_28  and  N_27 
REMARK   15  A    between atoms: CA_28  and  CB_31 
REMARK   16  A    between atoms: C_29  and  CA_28 
REMARK       I    between atoms: N_33  and  C_29 
REMARK   17  A    between atoms: CB_31  and  OG_32 
REMARK   18  A    between atoms: CA_34  and  N_33 
REMARK   19  A    between atoms: CA_34  and  CB_37 
REMARK   20  A    between atoms: C_35  and  CA_34 
REMARK       I    between atoms: N_44  and  C_35 
REMARK   21  A    between atoms: CB_37  and  CG_38 
REMARK   22  A    between atoms: CA_45  and  N_44 
REMARK   23  A    between atoms: CA_45  and  CB_48 
REMARK   24  A    between atoms: C_46  and  CA_45 
REMARK       I    between atoms: N_53  and  C_46 
REMARK   25  A    between atoms: CB_48  and  CG_49 
REMARK   26  A    between atoms: CG_49  and  CD_50 
REMARK   27  A    between atoms: CD_50  and  CE_51 
REMARK   28  A    between atoms: CE_51  and  NZ_52 
REMARK   29  A    between atoms: CA_54  and  N_53 
REMARK   30  A    between atoms: CA_54  and  CB_57 
REMARK   31  A    between atoms: C_55  and  CA_54 
REMARK       I    between atoms: N_62  and  C_55 
REMARK   32  A    between atoms: CB_57  and  CG_58 
REMARK   33  A    between atoms: CG_58  and  CD_59 
REMARK   34  A    between atoms: CD_59  and  CE_60 
REMARK   35  A    between atoms: CE_60  and  NZ_61 
REMARK   36  A    between atoms: CA_63  and  N_62 
REMARK   37  A    between atoms: CA_63  and  CB_66 
REMARK   38  A    between atoms: C_64  and  CA_63 
REMARK       I    between atoms: N_68  and  C_64 
REMARK   39  A    between atoms: CB_66  and  OG_67 
REMARK   40  A    between atoms: CA_69  and  N_68 
REMARK   41  A    between atoms: CA_69  and  CB_72 
REMARK   42  A    between atoms: C_70  and  CA_69 
REMARK       I    between atoms: N_79  and  C_70 
REMARK   43  A    between atoms: CB_72  and  CG_73 
REMARK   44  A    between atoms: CA_80  and  N_79 
REMARK   45  A    between atoms: CA_80  and  CB_83 
REMARK   46  A    between atoms: C_81  and  CA_80 
REMARK       I    between atoms: N_88  and  C_81 
REMARK   47  A    between atoms: CB_83  and  CG_84 
REMARK   48  A    between atoms: CG_84  and  CD_85 
REMARK   49  A    between atoms: CD_85  and  CE_86 
REMARK   50  A    between atoms: CE_86  and  NZ_87 
REMARK   51  A    between atoms: CA_89  and  N_88 
REMARK   52  A    between atoms: CA_89  and  CB_92 
REMARK   53  A    between atoms: C_90  and  CA_89 
REMARK       I    between atoms: N_96  and  C_90 
REMARK   54  A    between atoms: CB_92  and  CG_93 
REMARK   55  A    between atoms: CG_93  and  CD1_94 
REMARK   56  A    between atoms: CG_93  and  CD2_95 
REMARK   57  A    between atoms: CA_97  and  N_96 
REMARK   58  A    between atoms: CA_97  and  CB_100 
REMARK   59  A    between atoms: C_98  and  CA_97 
REMARK       I    between atoms: N_102  and  C_98 
REMARK   60  A    between atoms: CB_100  and  OG_101 
REMARK   61  A    between atoms: CA_103  and  N_102 
REMARK   62  A    between atoms: C_104  and  CA_103 
REMARK       I    between atoms: N_106  and  C_104 
REMARK   63  A    between atoms: CA_107  and  N_106 
REMARK   64  A    between atoms: CA_107  and  CB_110 
REMARK   65  A    between atoms: C_108  and  CA_107 
REMARK       I    between atoms: N_117  and  C_108 
REMARK   66  A    between atoms: CB_110  and  CG_111 
REMARK   67  A    between atoms: CA_118  and  N_117 
REMARK   68  A    between atoms: CA_118  and  CB_121 
REMARK   69  A    between atoms: C_119  and  CA_118 
REMARK       I    between atoms: N_123  and  C_119 
REMARK   70  A    between atoms: CB_121  and  OG_122 
REMARK   71  A    between atoms: CA_124  and  N_123 
REMARK   72  A    between atoms: CA_124  and  CB_127 
REMARK   73  A    between atoms: C_125  and  CA_124 
REMARK       I    between atoms: C_125  and  N_134 
REMARK   74  A    between atoms: CB_127  and  CG_128 
REMARK   75  A    between atoms: N_134  and  CA_135 
REMARK   76  A    between atoms: CA_135  and  CB_138 
REMARK   77  A    between atoms: CA_135  and  C_136 
REMARK   78  A    between atoms: C_136  and  O1_143 
REMARK   79  A    between atoms: CB_138  and  CG_139 
REMARK   80  A    between atoms: CG_139  and  CD_140 
REMARK   81  A    between atoms: CD_140  and  CE_141 
REMARK   82  A    between atoms: CE_141  and  NZ_142 
ROOT
ATOM      1  CA  PHE d   1       5.826  38.856 101.340  0.00  0.00     0.093 C 
ATOM      2  H73 PHE d   1       5.911  38.013 102.042  0.00  0.00     0.088 H 
ENDROOT
BRANCH   1   3
ATOM      3  N   PHE d   1       6.546  38.553 100.117  0.00  0.00    -0.346 N 
ATOM      4  C   SER d   1       6.326  37.443  99.428  0.00  0.00     0.243 C 
ATOM      5  O   SER d   1       5.552  36.569  99.783  0.00  0.00    -0.271 OA
ATOM      6  H72 PHE d   1       7.230  39.202  99.784  0.00  0.00     0.163 HD
BRANCH   4   7
ATOM      7  CA  SER d   1       7.098  37.315  98.130  0.00  0.00     0.109 C 
ATOM      8  H68 SER d   1       7.924  38.041  98.132  0.00  0.00     0.090 H 
BRANCH   7   9
ATOM      9  N   SER d   1       7.657  35.988  98.001  0.00  0.00    -0.344 N 
ATOM     10  C   LYS d   1       8.947  35.767  98.146  0.00  0.00     0.241 C 
ATOM     11  O   LYS d   1       9.731  36.656  98.394  0.00  0.00    -0.271 OA
ATOM     12  H67 SER d   1       7.050  35.220  97.797  0.00  0.00     0.163 HD
BRANCH  10  13
ATOM     13  CA  LYS d   1       9.419  34.326  98.000  0.00  0.00     0.089 C 
ATOM     14  H55 LYS d   1       8.524  33.714  97.814  0.00  0.00     0.087 H 
BRANCH  13  15
ATOM     15  N   LYS d   1      10.320  34.125  96.866  0.00  0.00    -0.346 N 
ATOM     16  C   LYS d   1       9.825  33.999  95.645  0.00  0.00     0.241 C 
ATOM     17  O   LYS d   1       8.602  34.065  95.409  0.00  0.00    -0.271 OA
ATOM     18  H54 LYS d   1      11.308  34.083  97.013  0.00  0.00     0.163 HD
BRANCH  16  19
ATOM     19  CA  LYS d   1      10.831  33.793  94.515  0.00  0.00     0.089 C 
ATOM     20  H42 LYS d   1      11.835  33.683  94.950  0.00  0.00     0.087 H 
BRANCH  19  21
ATOM     21  N   LYS d   1      10.519  32.604  93.749  0.00  0.00    -0.346 N 
ATOM     22  C   PHE d   1      11.458  31.916  93.117  0.00  0.00     0.241 C 
ATOM     23  O   PHE d   1      12.641  32.196  93.189  0.00  0.00    -0.271 OA
ATOM     24  H41 LYS d   1       9.570  32.294  93.696  0.00  0.00     0.163 HD
BRANCH  22  25
ATOM     25  CA  PHE d   1      10.989  30.691  92.339  0.00  0.00     0.093 C 
ATOM     26  H33 PHE d   1       9.941  30.829  92.034  0.00  0.00     0.088 H 
BRANCH  25  27
ATOM     27  N   PHE d   1      11.805  30.492  91.140  0.00  0.00    -0.346 N 
ATOM     28  C   SER d   1      11.327  30.525  89.884  0.00  0.00     0.243 C 
ATOM     29  O   SER d   1      10.152  30.694  89.607  0.00  0.00    -0.271 OA
ATOM     30  H32 PHE d   1      12.782  30.320  91.263  0.00  0.00     0.163 HD
BRANCH  28  31
ATOM     31  CA  SER d   1      12.356  30.315  88.747  0.00  0.00     0.109 C 
ATOM     32  H28 SER d   1      12.350  31.217  88.118  0.00  0.00     0.090 H 
BRANCH  31  33
ATOM     33  N   SER d   1      13.722  30.163  89.294  0.00  0.00    -0.344 N 
ATOM     34  C   PHE d   1      14.224  29.004  89.724  0.00  0.00     0.241 C 
ATOM     35  O   PHE d   1      13.610  27.953  89.667  0.00  0.00    -0.271 OA
ATOM     36  H27 SER d   1      14.303  30.976  89.344  0.00  0.00     0.163 HD
BRANCH  34  37
ATOM     37  CA  PHE d   1      15.660  29.023  90.272  0.00  0.00     0.093 C 
ATOM     38  H19 PHE d   1      15.972  30.068  90.413  0.00  0.00     0.088 H 
BRANCH  37  39
ATOM     39  N   PHE d   1      15.754  28.338  91.559  0.00  0.00    -0.346 N 
ATOM     40  C   ARG d   1      15.063  28.762  92.614  0.00  0.00     0.240 C 
ATOM     41  O   ARG d   1      14.362  29.784  92.574  0.00  0.00    -0.271 OA
ATOM     42  H18 PHE d   1      16.347  27.538  91.648  0.00  0.00     0.163 HD
BRANCH  40  43
ATOM     43  CA  ARG d   1      15.232  27.939  93.913  0.00  0.00     0.086 C 
ATOM     44  H14 ARG d   1      16.013  27.182  93.749  0.00  0.00     0.086 H 
BRANCH  43  45
ATOM     45  N   ARG d   1      15.667  28.843  94.984  0.00  0.00    -0.346 N 
ATOM     46  C   LYS d   1      16.750  28.619  95.731  0.00  0.00     0.240 C 
ATOM     47  O   LYS d   1      17.458  27.612  95.609  0.00  0.00    -0.271 OA
ATOM     48  H13 ARG d   1      15.127  29.665  95.162  0.00  0.00     0.163 HD
BRANCH  46  49
ATOM     49  CA  LYS d   1      17.101  29.728  96.744  0.00  0.00     0.086 C 
ATOM     50  H9  LYS d   1      16.274  30.453  96.725  0.00  0.00     0.086 H 
BRANCH  49  51
ATOM     51  N   LYS d   1      17.259  29.301  98.122  0.00  0.00    -0.346 N 
ATOM     52  C   LYS d   1      16.312  28.664  98.792  0.00  0.00     0.248 C 
ATOM     53  O   LYS d   1      15.142  28.603  98.423  0.00  0.00    -0.271 OA
ATOM     54  H8  LYS d   1      18.123  29.497  98.586  0.00  0.00     0.163 HD
BRANCH  52  55
ATOM     55  CA  LYS d   1      16.709  28.147 100.157  0.00  0.00     0.172 C 
ATOM     56  H4  LYS d   1      17.757  28.410 100.361  0.00  0.00     0.098 H 
BRANCH  55  57
ATOM     57  N   LYS d   1      15.828  28.812 101.153  0.00  0.00    -0.067 N 
ATOM     58  H1  LYS d   1      16.065  28.490 102.079  0.00  0.00     0.275 HD
ATOM     59  H2  LYS d   1      14.866  28.586 100.955  0.00  0.00     0.275 HD
ATOM     60  H3  LYS d   1      15.956  29.811 101.101  0.00  0.00     0.275 HD
ENDBRANCH  55  57
BRANCH  55  61
ATOM     61  CB  LYS d   1      16.560  26.611 100.217  0.00  0.00    -0.042 C 
ATOM     62  H5  LYS d   1      17.223  26.149  99.470  0.00  0.00     0.030 H 
ATOM     63  H6  LYS d   1      15.517  26.335 100.002  0.00  0.00     0.030 H 
ATOM     64  H7  LYS d   1      16.834  26.255 101.221  0.00  0.00     0.030 H 
ENDBRANCH  55  61
ENDBRANCH  52  55
ENDBRANCH  49  51
BRANCH  49  65
ATOM     65  CB  LYS d   1      18.383  30.445  96.288  0.00  0.00    -0.049 C 
ATOM     66  H10 LYS d   1      18.269  30.771  95.244  0.00  0.00     0.030 H 
ATOM     67  H11 LYS d   1      19.236  29.755  96.366  0.00  0.00     0.030 H 
ATOM     68  H12 LYS d   1      18.561  31.322  96.928  0.00  0.00     0.030 H 
ENDBRANCH  49  65
ENDBRANCH  46  49
ENDBRANCH  43  45
BRANCH  43  69
ATOM     69  CB  ARG d   1      13.954  27.221  94.303  0.00  0.00    -0.049 C 
ATOM     70  H15 ARG d   1      13.647  26.550  93.487  0.00  0.00     0.030 H 
ATOM     71  H16 ARG d   1      13.160  27.960  94.489  0.00  0.00     0.030 H 
ATOM     72  H17 ARG d   1      14.128  26.633  95.216  0.00  0.00     0.030 H 
ENDBRANCH  43  69
ENDBRANCH  40  43
ENDBRANCH  37  39
BRANCH  37  73
ATOM     73  CB  PHE d   1      16.578  28.363  89.233  0.00  0.00    -0.014 C 
ATOM     74  H20 PHE d   1      16.243  27.327  89.076  0.00  0.00     0.043 H 
ATOM     75  H21 PHE d   1      17.606  28.360  89.624  0.00  0.00     0.043 H 
BRANCH  73  76
ATOM     76  CG  PHE d   1      16.571  29.074  87.911  0.00  0.00    -0.056 A 
ATOM     77  CD1 PHE d   1      17.150  30.333  87.798  0.00  0.00    -0.077 A 
ATOM     78  CE1 PHE d   1      17.123  31.026  86.586  0.00  0.00    -0.082 A 
ATOM     79  H22 PHE d   1      17.628  30.782  88.661  0.00  0.00     0.084 H 
ATOM     80  CZ  PHE d   1      16.507  30.463  85.484  0.00  0.00    -0.083 A 
ATOM     81  H24 PHE d   1      17.584  32.004  86.509  0.00  0.00     0.083 H 
ATOM     82  CE2 PHE d   1      15.924  29.193  85.591  0.00  0.00    -0.082 A 
ATOM     83  H26 PHE d   1      16.475  31.000  84.543  0.00  0.00     0.083 H 
ATOM     84  CD2 PHE d   1      15.952  28.516  86.798  0.00  0.00    -0.077 A 
ATOM     85  H25 PHE d   1      15.450  28.740  84.727  0.00  0.00     0.083 H 
ATOM     86  H23 PHE d   1      15.486  27.540  86.876  0.00  0.00     0.084 H 
ENDBRANCH  73  76
ENDBRANCH  37  73
ENDBRANCH  34  37
ENDBRANCH  31  33
BRANCH  31  87
ATOM     87  CB  SER d   1      11.950  29.125  87.856  0.00  0.00     0.044 C 
ATOM     88  H29 SER d   1      12.858  28.709  87.395  0.00  0.00     0.077 H 
ATOM     89  H30 SER d   1      11.275  29.493  87.069  0.00  0.00     0.077 H 
BRANCH  87  90
ATOM     90  OG  SER d   1      11.291  28.090  88.565  0.00  0.00    -0.398 OA
ATOM     91  H31 SER d   1      11.867  27.756  89.243  0.00  0.00     0.209 HD
ENDBRANCH  87  90
ENDBRANCH  31  87
ENDBRANCH  28  31
ENDBRANCH  25  27
BRANCH  25  92
ATOM     92  CB  PHE d   1      11.091  29.486  93.285  0.00  0.00    -0.014 C 
ATOM     93  H34 PHE d   1      10.583  29.742  94.227  0.00  0.00     0.043 H 
ATOM     94  H35 PHE d   1      12.155  29.291  93.484  0.00  0.00     0.043 H 
BRANCH  92  95
ATOM     95  CG  PHE d   1      10.473  28.226  92.741  0.00  0.00    -0.056 A 
ATOM     96  CD1 PHE d   1      11.130  27.490  91.772  0.00  0.00    -0.077 A 
ATOM     97  CE1 PHE d   1      10.571  26.341  91.265  0.00  0.00    -0.082 A 
ATOM     98  H36 PHE d   1      12.096  27.823  91.409  0.00  0.00     0.084 H 
ATOM     99  CZ  PHE d   1       9.366  25.892  91.737  0.00  0.00    -0.083 A 
ATOM    100  H38 PHE d   1      11.086  25.788  90.488  0.00  0.00     0.083 H 
ATOM    101  CE2 PHE d   1       8.697  26.619  92.721  0.00  0.00    -0.082 A 
ATOM    102  H40 PHE d   1       8.935  24.977  91.348  0.00  0.00     0.083 H 
ATOM    103  CD2 PHE d   1       9.253  27.771  93.214  0.00  0.00    -0.077 A 
ATOM    104  H39 PHE d   1       7.740  26.274  93.095  0.00  0.00     0.083 H 
ATOM    105  H37 PHE d   1       8.733  28.332  93.982  0.00  0.00     0.084 H 
ENDBRANCH  92  95
ENDBRANCH  25  92
ENDBRANCH  22  25
ENDBRANCH  19  21
BRANCH  19 106
ATOM    106  CB  LYS d   1      10.816  35.000  93.590  0.00  0.00    -0.038 C 
ATOM    107  H43 LYS d   1       9.769  35.239  93.353  0.00  0.00     0.036 H 
ATOM    108  H44 LYS d   1      11.349  34.733  92.666  0.00  0.00     0.036 H 
BRANCH 106 109
ATOM    109  CG  LYS d   1      11.469  36.245  94.174  0.00  0.00    -0.061 C 
ATOM    110  H45 LYS d   1      11.982  36.789  93.367  0.00  0.00     0.033 H 
ATOM    111  H46 LYS d   1      12.203  35.939  94.934  0.00  0.00     0.033 H 
BRANCH 109 112
ATOM    112  CD  LYS d   1      10.460  37.159  94.813  0.00  0.00    -0.043 C 
ATOM    113  H47 LYS d   1      10.182  36.737  95.790  0.00  0.00     0.035 H 
ATOM    114  H48 LYS d   1       9.572  37.199  94.165  0.00  0.00     0.035 H 
BRANCH 112 115
ATOM    115  CE  LYS d   1      10.951  38.571  95.030  0.00  0.00     0.080 C 
ATOM    116  H49 LYS d   1      11.290  39.008  94.079  0.00  0.00     0.075 H 
ATOM    117  H50 LYS d   1      11.779  38.580  95.754  0.00  0.00     0.075 H 
BRANCH 115 118
ATOM    118  NZ  LYS d   1       9.778  39.342  95.569  0.00  0.00    -0.079 N 
ATOM    119  H51 LYS d   1      10.051  40.298  95.733  0.00  0.00     0.274 HD
ATOM    120  H52 LYS d   1       9.472  38.927  96.435  0.00  0.00     0.274 HD
ATOM    121  H53 LYS d   1       9.024  39.318  94.900  0.00  0.00     0.274 HD
ENDBRANCH 115 118
ENDBRANCH 112 115
ENDBRANCH 109 112
ENDBRANCH 106 109
ENDBRANCH  19 106
ENDBRANCH  16  19
ENDBRANCH  13  15
BRANCH  13 122
ATOM    122  CB  LYS d   1      10.059  33.821  99.284  0.00  0.00    -0.038 C 
ATOM    123  H56 LYS d   1       9.314  33.849 100.093  0.00  0.00     0.036 H 
ATOM    124  H57 LYS d   1      10.907  34.472  99.544  0.00  0.00     0.036 H 
BRANCH 122 125
ATOM    125  CG  LYS d   1      10.550  32.420  99.119  0.00  0.00    -0.061 C 
ATOM    126  H58 LYS d   1      11.468  32.441  98.513  0.00  0.00     0.033 H 
ATOM    127  H59 LYS d   1       9.777  31.839  98.594  0.00  0.00     0.033 H 
BRANCH 125 128
ATOM    128  CD  LYS d   1      10.850  31.750 100.396  0.00  0.00    -0.043 C 
ATOM    129  H60 LYS d   1       9.940  31.714 101.013  0.00  0.00     0.035 H 
ATOM    130  H61 LYS d   1      11.633  32.310 100.928  0.00  0.00     0.035 H 
BRANCH 128 131
ATOM    131  CE  LYS d   1      11.334  30.338 100.128  0.00  0.00     0.080 C 
ATOM    132  H62 LYS d   1      10.570  29.801  99.547  0.00  0.00     0.075 H 
ATOM    133  H63 LYS d   1      11.493  29.825 101.088  0.00  0.00     0.075 H 
BRANCH 131 134
ATOM    134  NZ  LYS d   1      12.626  30.346  99.354  0.00  0.00    -0.079 N 
ATOM    135  H64 LYS d   1      12.925  29.398  99.190  0.00  0.00     0.274 HD
ATOM    136  H65 LYS d   1      13.332  30.834  99.883  0.00  0.00     0.274 HD
ATOM    137  H66 LYS d   1      12.486  30.812  98.471  0.00  0.00     0.274 HD
ENDBRANCH 131 134
ENDBRANCH 128 131
ENDBRANCH 125 128
ENDBRANCH 122 125
ENDBRANCH  13 122
ENDBRANCH  10  13
ENDBRANCH   7   9
BRANCH   7 138
ATOM    138  CB  SER d   1       6.166  37.638  96.975  0.00  0.00     0.044 C 
ATOM    139  H69 SER d   1       5.596  36.734  96.714  0.00  0.00     0.077 H 
ATOM    140  H70 SER d   1       6.767  37.955  96.110  0.00  0.00     0.077 H 
BRANCH 138 141
ATOM    141  OG  SER d   1       5.248  38.683  97.309  0.00  0.00    -0.398 OA
ATOM    142  H71 SER d   1       4.683  38.857  96.565  0.00  0.00     0.209 HD
ENDBRANCH 138 141
ENDBRANCH   7 138
ENDBRANCH   4   7
ENDBRANCH   1   3
BRANCH   1 143
ATOM    143  CB  PHE d   1       6.392  40.120 101.986  0.00  0.00    -0.014 C 
ATOM    144  H74 PHE d   1       5.935  40.992 101.495  0.00  0.00     0.043 H 
ATOM    145  H75 PHE d   1       7.479  40.134 101.820  0.00  0.00     0.043 H 
BRANCH 143 146
ATOM    146  CG  PHE d   1       6.138  40.228 103.480  0.00  0.00    -0.056 A 
ATOM    147  CD1 PHE d   1       5.294  39.349 104.143  0.00  0.00    -0.077 A 
ATOM    148  CE1 PHE d   1       5.051  39.447 105.488  0.00  0.00    -0.082 A 
ATOM    149  H76 PHE d   1       4.811  38.559 103.579  0.00  0.00     0.084 H 
ATOM    150  CZ  PHE d   1       5.681  40.409 106.207  0.00  0.00    -0.083 A 
ATOM    151  H78 PHE d   1       4.363  38.763 105.972  0.00  0.00     0.083 H 
ATOM    152  CE2 PHE d   1       6.537  41.305 105.558  0.00  0.00    -0.082 A 
ATOM    153  H80 PHE d   1       5.522  40.483 107.277  0.00  0.00     0.083 H 
ATOM    154  CD2 PHE d   1       6.755  41.195 104.198  0.00  0.00    -0.077 A 
ATOM    155  H79 PHE d   1       7.030  42.087 106.123  0.00  0.00     0.083 H 
ATOM    156  H77 PHE d   1       7.425  41.888 103.703  0.00  0.00     0.084 H 
ENDBRANCH 143 146
ENDBRANCH   1 143
BRANCH   1 157
ATOM    157  C   PHE d   1       4.353  39.093 100.977  0.00  0.00     0.241 C 
ATOM    158  O   PHE d   1       3.460  38.522 101.595  0.00  0.00    -0.271 OA
ATOM    159  N   LYS d   1       4.142  39.904  99.937  0.00  0.00    -0.346 N 
ATOM    160  H81 LYS d   1       4.937  40.270  99.453  0.00  0.00     0.163 HD
BRANCH 159 161
ATOM    161  CA  LYS d   1       2.812  40.286  99.468  0.00  0.00     0.089 C 
ATOM    162  H82 LYS d   1       2.345  40.901 100.251  0.00  0.00     0.087 H 
BRANCH 161 163
ATOM    163  CB  LYS d   1       2.896  41.111  98.185  0.00  0.00    -0.038 C 
ATOM    164  H83 LYS d   1       3.452  40.535  97.430  0.00  0.00     0.036 H 
ATOM    165  H84 LYS d   1       3.433  42.046  98.401  0.00  0.00     0.036 H 
BRANCH 163 166
ATOM    166  CG  LYS d   1       1.527  41.453  97.626  0.00  0.00    -0.061 C 
ATOM    167  H85 LYS d   1       0.943  41.979  98.395  0.00  0.00     0.033 H 
ATOM    168  H86 LYS d   1       1.009  40.525  97.343  0.00  0.00     0.033 H 
BRANCH 166 169
ATOM    169  CD  LYS d   1       1.662  42.350  96.394  0.00  0.00    -0.043 C 
ATOM    170  H87 LYS d   1       2.332  41.864  95.670  0.00  0.00     0.035 H 
ATOM    171  H88 LYS d   1       2.092  43.315  96.701  0.00  0.00     0.035 H 
BRANCH 169 172
ATOM    172  CE  LYS d   1       0.303  42.600  95.725  0.00  0.00     0.080 C 
ATOM    173  H89 LYS d   1      -0.359  43.120  96.433  0.00  0.00     0.075 H 
ATOM    174  H90 LYS d   1      -0.145  41.636  95.443  0.00  0.00     0.075 H 
BRANCH 172 175
ATOM    175  NZ  LYS d   1       0.472  43.442  94.499  0.00  0.00    -0.079 N 
ATOM    176  H91 LYS d   1      -0.427  43.597  94.072  0.00  0.00     0.274 HD
ATOM    177  H92 LYS d   1       1.077  42.968  93.847  0.00  0.00     0.274 HD
ATOM    178  H93 LYS d   1       0.880  44.328  94.753  0.00  0.00     0.274 HD
ENDBRANCH 172 175
ENDBRANCH 169 172
ENDBRANCH 166 169
ENDBRANCH 163 166
ENDBRANCH 161 163
BRANCH 161 179
ATOM    179  C   LYS d   1       1.931  39.113  99.209  0.00  0.00     0.241 C 
ATOM    180  O   LYS d   1       0.881  38.981  99.833  0.00  0.00    -0.271 OA
ATOM    181  N   LEU d   1       2.339  38.278  98.260  0.00  0.00    -0.346 N 
ATOM    182  H94 LEU d   1       3.183  38.479  97.763  0.00  0.00     0.163 HD
BRANCH 181 183
ATOM    183  CA  LEU d   1       1.588  37.081  97.927  0.00  0.00     0.089 C 
ATOM    184  H95 LEU d   1       0.584  37.380  97.592  0.00  0.00     0.087 H 
BRANCH 183 185
ATOM    185  CB  LEU d   1       2.276  36.307  96.790  0.00  0.00    -0.035 C 
ATOM    186  H96 LEU d   1       1.762  35.342  96.674  0.00  0.00     0.037 H 
ATOM    187  H97 LEU d   1       3.322  36.132  97.081  0.00  0.00     0.037 H 
BRANCH 185 188
ATOM    188  CG  LEU d   1       2.272  37.003  95.451  0.00  0.00    -0.059 C 
ATOM    189  H98 LEU d   1       2.949  37.869  95.481  0.00  0.00     0.038 H 
BRANCH 188 190
ATOM    190  CD1 LEU d   1       2.751  36.024  94.420  0.00  0.00    -0.073 C 
ATOM    191  H99 LEU d   1       2.758  36.507  93.431  0.00  0.00     0.028 H 
ATOM    192 0H10 LEU d   1       2.077  35.155  94.399  0.00  0.00     0.028 H 
ATOM    193 1H10 LEU d   1       3.769  35.693  94.674  0.00  0.00     0.028 H 
ENDBRANCH 188 190
BRANCH 188 194
ATOM    194  CD2 LEU d   1       0.863  37.478  95.113  0.00  0.00    -0.073 C 
ATOM    195 2H10 LEU d   1       0.525  38.194  95.876  0.00  0.00     0.028 H 
ATOM    196 3H10 LEU d   1       0.181  36.616  95.092  0.00  0.00     0.028 H 
ATOM    197 4H10 LEU d   1       0.867  37.967  94.128  0.00  0.00     0.028 H 
ENDBRANCH 188 194
ENDBRANCH 185 188
ENDBRANCH 183 185
BRANCH 183 198
ATOM    198  C   LEU d   1       1.449  36.181  99.155  0.00  0.00     0.241 C 
ATOM    199  O   LEU d   1       0.431  35.522  99.332  0.00  0.00    -0.271 OA
ATOM    200  N   SER d   1       2.456  36.154 100.019  0.00  0.00    -0.344 N 
ATOM    201 5H10 SER d   1       3.280  36.692  99.840  0.00  0.00     0.163 HD
BRANCH 200 202
ATOM    202  CA  SER d   1       2.367  35.343 101.230  0.00  0.00     0.109 C 
ATOM    203 6H10 SER d   1       2.080  34.316 100.960  0.00  0.00     0.090 H 
BRANCH 202 204
ATOM    204  CB  SER d   1       3.733  35.321 101.950  0.00  0.00     0.044 C 
ATOM    205 7H10 SER d   1       3.592  34.877 102.947  0.00  0.00     0.077 H 
ATOM    206 8H10 SER d   1       4.085  36.358 102.056  0.00  0.00     0.077 H 
BRANCH 204 207
ATOM    207  OG  SER d   1       4.746  34.566 101.256  0.00  0.00    -0.398 OA
ATOM    208 9H10 SER d   1       4.887  34.943 100.395  0.00  0.00     0.209 HD
ENDBRANCH 204 207
ENDBRANCH 202 204
BRANCH 202 209
ATOM    209  C   SER d   1       1.294  35.948 102.183  0.00  0.00     0.242 C 
ATOM    210  O   SER d   1       0.649  35.253 102.956  0.00  0.00    -0.271 OA
ATOM    211  N   GLY d   1       1.170  37.265 102.166  0.00  0.00    -0.350 N 
ATOM    212 0H11 GLY d   1       1.752  37.811 101.564  0.00  0.00     0.163 HD
BRANCH 211 213
ATOM    213  CA  GLY d   1       0.196  37.921 103.014  0.00  0.00     0.069 C 
ATOM    214 1H11 GLY d   1       0.279  39.012 102.903  0.00  0.00     0.078 H 
ATOM    215 2H11 GLY d   1       0.369  37.645 104.065  0.00  0.00     0.078 H 
BRANCH 213 216
ATOM    216  C   GLY d   1      -1.195  37.458 102.577  0.00  0.00     0.236 C 
ATOM    217  O   GLY d   1      -1.952  36.876 103.349  0.00  0.00    -0.272 OA
ATOM    218  N   PHE d   1      -1.506  37.675 101.306  0.00  0.00    -0.346 N 
ATOM    219 3H11 PHE d   1      -0.842  38.117 100.703  0.00  0.00     0.163 HD
BRANCH 218 220
ATOM    220  CA  PHE d   1      -2.820  37.271 100.774  0.00  0.00     0.093 C 
ATOM    221 4H11 PHE d   1      -3.595  37.848 101.300  0.00  0.00     0.088 H 
BRANCH 220 222
ATOM    222  CB  PHE d   1      -2.921  37.584  99.288  0.00  0.00    -0.014 C 
ATOM    223 5H11 PHE d   1      -3.774  37.028  98.872  0.00  0.00     0.043 H 
ATOM    224 6H11 PHE d   1      -1.994  37.253  98.798  0.00  0.00     0.043 H 
BRANCH 222 225
ATOM    225  CG  PHE d   1      -3.116  39.035  99.000  0.00  0.00    -0.056 A 
ATOM    226  CD1 PHE d   1      -2.044  39.827  98.664  0.00  0.00    -0.077 A 
ATOM    227  CE1 PHE d   1      -2.210  41.166  98.410  0.00  0.00    -0.082 A 
ATOM    228 7H11 PHE d   1      -1.055  39.389  98.599  0.00  0.00     0.084 H 
ATOM    229  CZ  PHE d   1      -3.474  41.728  98.494  0.00  0.00    -0.083 A 
ATOM    230 9H11 PHE d   1      -1.357  41.780  98.145  0.00  0.00     0.083 H 
ATOM    231  CE2 PHE d   1      -4.561  40.944  98.836  0.00  0.00    -0.082 A 
ATOM    232 1H12 PHE d   1      -3.611  42.784  98.291  0.00  0.00     0.083 H 
ATOM    233  CD2 PHE d   1      -4.377  39.608  99.090  0.00  0.00    -0.077 A 
ATOM    234 0H12 PHE d   1      -5.551  41.382  98.903  0.00  0.00     0.083 H 
ATOM    235 8H11 PHE d   1      -5.226  38.993  99.364  0.00  0.00     0.084 H 
ENDBRANCH 222 225
ENDBRANCH 220 222
BRANCH 220 236
ATOM    236  C   PHE d   1      -3.071  35.793 101.031  0.00  0.00     0.241 C 
ATOM    237  O   PHE d   1      -4.193  35.389 101.322  0.00  0.00    -0.271 OA
ATOM    238  N   SER d   1      -2.008  34.990 100.980  0.00  0.00    -0.344 N 
ATOM    239 2H12 SER d   1      -1.107  35.383 100.799  0.00  0.00     0.163 HD
BRANCH 238 240
ATOM    240  CA  SER d   1      -2.131  33.548 101.183  0.00  0.00     0.109 C 
ATOM    241 3H12 SER d   1      -2.909  33.159 100.510  0.00  0.00     0.090 H 
BRANCH 240 242
ATOM    242  CB  SER d   1      -0.792  32.830 100.871  0.00  0.00     0.044 C 
ATOM    243 4H12 SER d   1      -0.918  31.753 101.053  0.00  0.00     0.077 H 
ATOM    244 5H12 SER d   1      -0.014  33.227 101.540  0.00  0.00     0.077 H 
BRANCH 242 245
ATOM    245  OG  SER d   1      -0.380  33.018  99.536  0.00  0.00    -0.398 OA
ATOM    246 6H12 SER d   1      -0.262  33.946  99.370  0.00  0.00     0.209 HD
ENDBRANCH 242 245
ENDBRANCH 240 242
BRANCH 240 247
ATOM    247  C   SER d   1      -2.530  33.272 102.612  0.00  0.00     0.243 C 
ATOM    248  O   SER d   1      -2.962  32.160 102.952  0.00  0.00    -0.271 OA
ATOM    249  N   PHE d   1      -2.361  34.275 103.468  0.00  0.00    -0.346 N 
ATOM    250 7H12 PHE d   1      -2.011  35.150 103.133  0.00  0.00     0.163 HD
BRANCH 249 251
ATOM    251  CA  PHE d   1      -2.674  34.128 104.881  0.00  0.00     0.093 C 
ATOM    252 8H12 PHE d   1      -2.985  33.087 105.055  0.00  0.00     0.088 H 
BRANCH 251 253
ATOM    253  CB  PHE d   1      -1.433  34.418 105.724  0.00  0.00    -0.014 C 
ATOM    254 9H12 PHE d   1      -1.618  34.059 106.747  0.00  0.00     0.043 H 
ATOM    255 0H13 PHE d   1      -1.273  35.506 105.741  0.00  0.00     0.043 H 
BRANCH 253 256
ATOM    256  CG  PHE d   1      -0.183  33.766 105.215  0.00  0.00    -0.056 A 
ATOM    257  CD1 PHE d   1       1.052  34.137 105.728  0.00  0.00    -0.077 A 
ATOM    258  CE1 PHE d   1       2.222  33.550 105.276  0.00  0.00    -0.082 A 
ATOM    259 1H13 PHE d   1       1.102  34.900 106.496  0.00  0.00     0.084 H 
ATOM    260  CZ  PHE d   1       2.166  32.578 104.299  0.00  0.00    -0.083 A 
ATOM    261 3H13 PHE d   1       3.178  33.853 105.688  0.00  0.00     0.083 H 
ATOM    262  CE2 PHE d   1       0.940  32.187 103.774  0.00  0.00    -0.082 A 
ATOM    263 5H13 PHE d   1       3.080  32.118 103.940  0.00  0.00     0.083 H 
ATOM    264  CD2 PHE d   1      -0.226  32.781 104.234  0.00  0.00    -0.077 A 
ATOM    265 4H13 PHE d   1       0.895  31.421 103.008  0.00  0.00     0.083 H 
ATOM    266 2H13 PHE d   1      -1.181  32.474 103.824  0.00  0.00     0.084 H 
ENDBRANCH 253 256
ENDBRANCH 251 253
BRANCH 251 267
ATOM    267  C   PHE d   1      -3.808  35.049 105.334  0.00  0.00     0.241 C 
ATOM    268  O   PHE d   1      -4.032  36.120 104.763  0.00  0.00    -0.271 OA
ATOM    269  N   LYS d   1      -4.504  34.637 106.385  0.00  0.00    -0.345 N 
ATOM    270 6H13 LYS d   1      -4.264  33.771 106.824  0.00  0.00     0.163 HD
BRANCH 269 271
ATOM    271  CA  LYS d   1      -5.613  35.425 106.912  0.00  0.00     0.093 C 
ATOM    272 7H13 LYS d   1      -5.657  36.370 106.351  0.00  0.00     0.089 H 
BRANCH 271 273
ATOM    273  CB  LYS d   1      -6.968  34.702 106.748  0.00  0.00    -0.037 C 
ATOM    274 8H13 LYS d   1      -6.928  33.759 107.314  0.00  0.00     0.036 H 
ATOM    275 9H13 LYS d   1      -7.116  34.483 105.680  0.00  0.00     0.036 H 
BRANCH 273 276
ATOM    276  CG  LYS d   1      -8.189  35.524 107.253  0.00  0.00    -0.061 C 
ATOM    277 0H14 LYS d   1      -8.131  36.534 106.821  0.00  0.00     0.033 H 
ATOM    278 1H14 LYS d   1      -8.134  35.590 108.350  0.00  0.00     0.033 H 
BRANCH 276 279
ATOM    279  CD  LYS d   1      -9.544  34.909 106.870  0.00  0.00    -0.043 C 
ATOM    280 2H14 LYS d   1      -9.414  34.310 105.956  0.00  0.00     0.035 H 
ATOM    281 3H14 LYS d   1     -10.259  35.723 106.677  0.00  0.00     0.035 H 
BRANCH 279 282
ATOM    282  CE  LYS d   1     -10.110  34.010 107.968  0.00  0.00     0.080 C 
ATOM    283 4H14 LYS d   1      -9.281  33.417 108.382  0.00  0.00     0.075 H 
ATOM    284 5H14 LYS d   1     -10.849  33.337 107.508  0.00  0.00     0.075 H 
BRANCH 282 285
ATOM    285  NZ  LYS d   1     -10.783  34.730 109.111  0.00  0.00    -0.079 N 
ATOM    286 6H14 LYS d   1     -11.121  34.056 109.780  0.00  0.00     0.274 HD
ATOM    287 7H14 LYS d   1     -11.557  35.271 108.758  0.00  0.00     0.274 HD
ATOM    288 8H14 LYS d   1     -10.120  35.344 109.558  0.00  0.00     0.274 HD
ENDBRANCH 282 285
ENDBRANCH 279 282
ENDBRANCH 276 279
ENDBRANCH 273 276
ENDBRANCH 271 273
BRANCH 271 289
ATOM    289  C   LYS d   1      -5.389  35.739 108.363  0.00  0.00     0.163 C 
ATOM    290  O   LYS d   1      -5.856  36.805 108.758  0.00  0.00    -0.648 OA
BRANCH 289 291
ATOM    291  O1  LYS d   1      -4.727  34.915 109.170  0.00  0.00    -0.775 OA
ATOM    292 9H14 LYS d   1      -5.295  34.647 109.882  0.00  0.00     0.167 HD
ENDBRANCH 289 291
ENDBRANCH 271 289
ENDBRANCH 269 271
ENDBRANCH 251 267
ENDBRANCH 249 251
ENDBRANCH 240 247
ENDBRANCH 238 240
ENDBRANCH 220 236
ENDBRANCH 218 220
ENDBRANCH 213 216
ENDBRANCH 211 213
ENDBRANCH 202 209
ENDBRANCH 200 202
ENDBRANCH 183 198
ENDBRANCH 181 183
ENDBRANCH 161 179
ENDBRANCH 159 161
ENDBRANCH   1 157
TORSDOF 82
