REMARK  11 active torsions:
REMARK  status: ('A' for Active; 'I' for Inactive)
REMARK    1  A    between atoms: C2_2  and  C10_10 
REMARK    2  A    between atoms: C3_3  and  C11_18 
REMARK    3  A    between atoms: C5_5  and  O12_19 
REMARK    4  A    between atoms: C10_10  and  C31_12 
REMARK    5  A    between atoms: N32_13  and  C30_14 
REMARK    6  A    between atoms: O12_19  and  C13_20 
REMARK    7  A    between atoms: C13_20  and  C14_21 
REMARK    8  A    between atoms: C14_21  and  C15_22 
REMARK    9  A    between atoms: C15_22  and  N16_23 
REMARK   10  A    between atoms: N16_23  and  C17_24 
REMARK   11  A    between atoms: C17_24  and  C18_25 
ROOT
ATOM      1  O1  R64 d   1      11.968  49.155  -4.241  0.00  0.00    -0.305 OA
ATOM      2  C2  R64 d   1      11.936  49.381  -2.888  0.00  0.00     0.137 A 
ATOM      3  C3  R64 d   1      13.103  48.967  -2.316  0.00  0.00    -0.008 A 
ATOM      4  C4  R64 d   1      13.903  48.431  -3.334  0.00  0.00     0.040 A 
ATOM      5  C5  R64 d   1      15.169  47.780  -3.310  0.00  0.00     0.082 A 
ATOM      6  C6  R64 d   1      15.733  47.458  -4.519  0.00  0.00    -0.050 A 
ATOM      7  C7  R64 d   1      15.045  47.735  -5.730  0.00  0.00    -0.078 A 
ATOM      8  C8  R64 d   1      13.802  48.329  -5.730  0.00  0.00    -0.049 A 
ATOM      9  C9  R64 d   1      13.218  48.633  -4.500  0.00  0.00     0.089 A 
ATOM     10  H1  R64 d   1      16.710  46.989  -4.550  0.00  0.00     0.087 H 
ATOM     11  H2  R64 d   1      15.508  47.473  -6.675  0.00  0.00     0.083 H 
ATOM     12  H3  R64 d   1      13.292  48.554  -6.660  0.00  0.00     0.087 H 
ENDROOT
BRANCH   5  13
ATOM     13  O12 R64 d   1      15.805  47.487  -2.109  0.00  0.00    -0.350 OA
BRANCH  13  14
ATOM     14  C13 R64 d   1      16.916  46.588  -2.020  0.00  0.00     0.028 C 
ATOM     15  H12 R64 d   1      17.738  46.959  -2.649  0.00  0.00     0.075 H 
ATOM     16  H13 R64 d   1      16.609  45.591  -2.368  0.00  0.00     0.075 H 
BRANCH  14  17
ATOM     17  C14 R64 d   1      17.379  46.499  -0.592  0.00  0.00    -0.022 C 
ATOM     18  H14 R64 d   1      17.579  47.505  -0.194  0.00  0.00     0.038 H 
ATOM     19  H15 R64 d   1      18.292  45.890  -0.525  0.00  0.00     0.038 H 
BRANCH  17  20
ATOM     20  C15 R64 d   1      16.283  45.860   0.162  0.00  0.00     0.084 C 
ATOM     21  H16 R64 d   1      16.201  44.812  -0.162  0.00  0.00     0.075 H 
ATOM     22  H17 R64 d   1      15.346  46.389  -0.068  0.00  0.00     0.075 H 
BRANCH  20  23
ATOM     23  N16 R64 d   1      16.488  45.884   1.628  0.00  0.00    -0.071 N 
ATOM     24  H18 R64 d   1      16.507  46.833   1.967  0.00  0.00     0.277 HD
ATOM     25  H19 R64 d   1      17.350  45.423   1.872  0.00  0.00     0.277 HD
BRANCH  23  26
ATOM     26  C17 R64 d   1      15.337  45.158   2.191  0.00  0.00     0.106 C 
ATOM     27  H20 R64 d   1      15.242  44.178   1.700  0.00  0.00     0.083 H 
ATOM     28  H21 R64 d   1      14.418  45.740   2.029  0.00  0.00     0.083 H 
BRANCH  26  29
ATOM     29  C18 R64 d   1      15.551  44.973   3.604  0.00  0.00    -0.015 A 
ATOM     30  C19 R64 d   1      15.874  43.755   4.134  0.00  0.00    -0.072 A 
ATOM     31  C20 R64 d   1      16.065  43.668   5.500  0.00  0.00    -0.066 A 
ATOM     32  H22 R64 d   1      15.977  42.882   3.500  0.00  0.00     0.084 H 
ATOM     33  C21 R64 d   1      15.917  44.810   6.275  0.00  0.00     0.002 A 
ATOM     34  H23 R64 d   1      16.327  42.722   5.960  0.00  0.00     0.085 H 
ATOM     35  N22 R64 d   1      15.604  45.974   5.732  0.00  0.00    -0.273 NA
ATOM     36  H24 R64 d   1      16.061  44.746   7.348  0.00  0.00     0.114 H 
ATOM     37  C23 R64 d   1      15.422  46.057   4.415  0.00  0.00     0.009 A 
ATOM     38  H25 R64 d   1      15.164  47.015   3.978  0.00  0.00     0.115 H 
ENDBRANCH  26  29
ENDBRANCH  23  26
ENDBRANCH  20  23
ENDBRANCH  17  20
ENDBRANCH  14  17
ENDBRANCH  13  14
ENDBRANCH   5  13
BRANCH   3  39
ATOM     39  C11 R64 d   1      13.557  48.999  -0.887  0.00  0.00    -0.048 C 
ATOM     40  H9  R64 d   1      12.776  49.460  -0.264  0.00  0.00     0.033 H 
ATOM     41  H10 R64 d   1      14.483  49.588  -0.809  0.00  0.00     0.033 H 
ATOM     42  H11 R64 d   1      13.745  47.973  -0.539  0.00  0.00     0.033 H 
ENDBRANCH   3  39
BRANCH   2  43
ATOM     43  C10 R64 d   1      10.757  49.955  -2.300  0.00  0.00     0.251 C 
ATOM     44  O30 R64 d   1      10.782  50.551  -1.229  0.00  0.00    -0.281 OA
BRANCH  43  45
ATOM     45  C31 R64 d   1       9.526  49.797  -2.998  0.00  0.00     0.182 A 
ATOM     46  N32 R64 d   1       8.418  50.575  -2.699  0.00  0.00    -0.341 N 
ATOM     47  C33 R64 d   1       7.415  50.100  -3.531  0.00  0.00    -0.002 A 
ATOM     48  C34 R64 d   1       7.960  49.095  -4.267  0.00  0.00     0.019 A 
ATOM     49  H7  R64 d   1       6.389  50.462  -3.584  0.00  0.00     0.113 H 
ATOM     50  N35 R64 d   1       9.241  48.921  -3.937  0.00  0.00    -0.238 NA
ATOM     51  H8  R64 d   1       7.427  48.515  -5.019  0.00  0.00     0.117 H 
BRANCH  46  52
ATOM     52  C30 R64 d   1       8.265  51.699  -1.745  0.00  0.00    -0.013 C 
ATOM     53  H4  R64 d   1       7.231  52.073  -1.782  0.00  0.00     0.057 H 
ATOM     54  H5  R64 d   1       8.958  52.509  -2.018  0.00  0.00     0.057 H 
ATOM     55  H6  R64 d   1       8.492  51.349  -0.727  0.00  0.00     0.057 H 
ENDBRANCH  46  52
ENDBRANCH  43  45
ENDBRANCH   2  43
TORSDOF 11
