REMARK  17 active torsions:
REMARK  status: ('A' for Active; 'I' for Inactive)
REMARK    1  A    between atoms: C2_1  and  C3_2 
REMARK    2  A    between atoms: N23_22  and  C2_1 
REMARK    3  A    between atoms: C3_2  and  C4_3 
REMARK    4  A    between atoms: C4_3  and  C5_4 
REMARK    5  A    between atoms: C5_4  and  C6_5 
REMARK    6  A    between atoms: C6_5  and  C7_6 
REMARK    7  A    between atoms: C7_6  and  C8_7 
REMARK    8  A    between atoms: C8_7  and  C9_8 
REMARK    9  A    between atoms: C9_8  and  C10_9 
REMARK   10  A    between atoms: C10_9  and  C11_10 
REMARK   11  A    between atoms: C11_10  and  N12_11 
REMARK   12  A    between atoms: N12_11  and  C13_12 
REMARK   13  A    between atoms: N12_11  and  C14_13 
REMARK   14  A    between atoms: N12_11  and  C15_14 
REMARK   15  A    between atoms: C20_19  and  N36_35 
REMARK   16  A    between atoms: C22_21  and  C30_29 
REMARK   17  A    between atoms: C27_26  and  N37_36 
ROOT
ATOM      1  C2  DCU d   1      39.111  24.078   4.951  0.00  0.00     0.000 C 
ATOM      2  H1  DCU d   1      39.796  23.232   5.112  0.00  0.00     0.064 H 
ATOM      3  H2  DCU d   1      38.116  23.824   5.344  0.00  0.00     0.064 H 
ENDROOT
BRANCH   1   4
ATOM      4  C3  DCU d   1      38.871  24.003   3.408  0.00  0.00    -0.050 C 
ATOM      5  H3  DCU d   1      39.538  24.744   2.944  0.00  0.00     0.035 H 
ATOM      6  H4  DCU d   1      37.824  24.292   3.232  0.00  0.00     0.035 H 
BRANCH   4   7
ATOM      7  C4  DCU d   1      39.099  22.666   2.667  0.00  0.00    -0.064 C 
ATOM      8  H5  DCU d   1      38.797  22.781   1.615  0.00  0.00     0.033 H 
ATOM      9  H6  DCU d   1      38.489  21.883   3.141  0.00  0.00     0.033 H 
BRANCH   7  10
ATOM     10  C5  DCU d   1      40.585  22.253   2.724  0.00  0.00    -0.065 C 
ATOM     11  H7  DCU d   1      40.640  21.175   2.938  0.00  0.00     0.033 H 
ATOM     12  H8  DCU d   1      41.073  22.814   3.535  0.00  0.00     0.033 H 
BRANCH  10  13
ATOM     13  C6  DCU d   1      41.331  22.526   1.435  0.00  0.00    -0.065 C 
ATOM     14  H9  DCU d   1      41.430  23.617   1.333  0.00  0.00     0.033 H 
ATOM     15  H10 DCU d   1      40.720  22.134   0.608  0.00  0.00     0.033 H 
BRANCH  13  16
ATOM     16  C7  DCU d   1      42.634  21.962   1.312  0.00  0.00    -0.065 C 
ATOM     17  H11 DCU d   1      42.551  20.879   1.484  0.00  0.00     0.033 H 
ATOM     18  H12 DCU d   1      43.270  22.409   2.090  0.00  0.00     0.033 H 
BRANCH  16  19
ATOM     19  C8  DCU d   1      43.321  22.170  -0.031  0.00  0.00    -0.065 C 
ATOM     20  H13 DCU d   1      42.882  23.056  -0.512  0.00  0.00     0.033 H 
ATOM     21  H14 DCU d   1      43.136  21.284  -0.656  0.00  0.00     0.033 H 
BRANCH  19  22
ATOM     22  C9  DCU d   1      44.852  22.381   0.078  0.00  0.00    -0.064 C 
ATOM     23  H15 DCU d   1      45.203  21.967   1.035  0.00  0.00     0.033 H 
ATOM     24  H16 DCU d   1      45.068  23.459   0.044  0.00  0.00     0.033 H 
BRANCH  22  25
ATOM     25  C10 DCU d   1      45.594  21.689  -1.065  0.00  0.00    -0.042 C 
ATOM     26  H17 DCU d   1      44.873  21.542  -1.883  0.00  0.00     0.035 H 
ATOM     27  H18 DCU d   1      45.931  20.710  -0.693  0.00  0.00     0.035 H 
BRANCH  25  28
ATOM     28  C11 DCU d   1      46.836  22.410  -1.665  0.00  0.00     0.084 C 
ATOM     29  H19 DCU d   1      46.895  23.412  -1.216  0.00  0.00     0.076 H 
ATOM     30  H20 DCU d   1      46.682  22.503  -2.750  0.00  0.00     0.076 H 
BRANCH  28  31
ATOM     31  N12 DCU d   1      48.167  21.719  -1.441  0.00  0.00    -0.079 N 
BRANCH  31  32
ATOM     32  C13 DCU d   1      49.241  22.599  -1.915  0.00  0.00     0.067 C 
ATOM     33  H21 DCU d   1      50.213  22.109  -1.758  0.00  0.00     0.068 H 
ATOM     34  H22 DCU d   1      49.213  23.546  -1.355  0.00  0.00     0.068 H 
ATOM     35  H23 DCU d   1      49.102  22.802  -2.987  0.00  0.00     0.068 H 
ENDBRANCH  31  32
BRANCH  31  36
ATOM     36  C14 DCU d   1      48.258  20.436  -2.198  0.00  0.00     0.067 C 
ATOM     37  H24 DCU d   1      47.462  19.755  -1.862  0.00  0.00     0.068 H 
ATOM     38  H25 DCU d   1      49.239  19.972  -2.017  0.00  0.00     0.068 H 
ATOM     39  H26 DCU d   1      48.140  20.636  -3.273  0.00  0.00     0.068 H 
ENDBRANCH  31  36
BRANCH  31  40
ATOM     40  C15 DCU d   1      48.428  21.438  -0.007  0.00  0.00     0.067 C 
ATOM     41  H27 DCU d   1      48.365  22.374   0.567  0.00  0.00     0.068 H 
ATOM     42  H28 DCU d   1      49.434  21.006   0.105  0.00  0.00     0.068 H 
ATOM     43  H29 DCU d   1      47.679  20.726   0.369  0.00  0.00     0.068 H 
ENDBRANCH  31  40
ENDBRANCH  28  31
ENDBRANCH  25  28
ENDBRANCH  22  25
ENDBRANCH  19  22
ENDBRANCH  16  19
ENDBRANCH  13  16
ENDBRANCH  10  13
ENDBRANCH   7  10
ENDBRANCH   4   7
ENDBRANCH   1   4
BRANCH   1  44
ATOM     44  N23 DCU d   1      39.631  25.127   6.040  0.00  0.00    -0.345 N 
ATOM     45  C22 DCU d   1      40.885  25.836   5.978  0.00  0.00     0.056 C 
ATOM     46  C18 DCU d   1      41.324  26.690   7.056  0.00  0.00     0.005 A 
ATOM     47  C17 DCU d   1      40.531  26.697   8.321  0.00  0.00    -0.011 A 
ATOM     48  C19 DCU d   1      42.654  27.267   7.117  0.00  0.00    -0.045 A 
ATOM     49  C16 DCU d   1      41.184  27.210   9.487  0.00  0.00    -0.069 A 
ATOM     50  C25 DCU d   1      39.208  26.164   8.312  0.00  0.00     0.002 A 
ATOM     51  C21 DCU d   1      42.507  27.748   9.505  0.00  0.00    -0.057 A 
ATOM     52  H30 DCU d   1      40.636  27.189  10.422  0.00  0.00     0.085 H 
ATOM     53  C20 DCU d   1      43.247  27.780   8.304  0.00  0.00     0.026 A 
ATOM     54  H32 DCU d   1      42.936  28.126  10.426  0.00  0.00     0.086 H 
ATOM     55  C24 DCU d   1      38.786  25.303   7.185  0.00  0.00     0.048 A 
ATOM     56  C29 DCU d   1      38.396  26.171   9.466  0.00  0.00    -0.068 A 
ATOM     57  C26 DCU d   1      37.568  24.552   7.413  0.00  0.00    -0.031 A 
ATOM     58  C27 DCU d   1      36.787  24.588   8.599  0.00  0.00     0.027 A 
ATOM     59  H33 DCU d   1      37.224  23.909   6.611  0.00  0.00     0.090 H 
ATOM     60  C28 DCU d   1      37.210  25.411   9.639  0.00  0.00    -0.057 A 
ATOM     61  H34 DCU d   1      36.645  25.470  10.562  0.00  0.00     0.086 H 
ATOM     62  H35 DCU d   1      38.703  26.809  10.287  0.00  0.00     0.085 H 
ATOM     63  H31 DCU d   1      43.232  27.310   6.201  0.00  0.00     0.088 H 
BRANCH  45  64
ATOM     64  C30 DCU d   1      41.756  25.744   4.755  0.00  0.00    -0.008 A 
ATOM     65  C31 DCU d   1      42.774  24.733   4.683  0.00  0.00    -0.071 A 
ATOM     66  C32 DCU d   1      43.643  24.672   3.556  0.00  0.00    -0.082 A 
ATOM     67  H36 DCU d   1      42.881  24.015   5.488  0.00  0.00     0.084 H 
ATOM     68  C33 DCU d   1      43.505  25.605   2.500  0.00  0.00    -0.083 A 
ATOM     69  H37 DCU d   1      44.412  23.909   3.507  0.00  0.00     0.083 H 
ATOM     70  C34 DCU d   1      42.492  26.607   2.564  0.00  0.00    -0.082 A 
ATOM     71  H38 DCU d   1      44.168  25.558   1.644  0.00  0.00     0.083 H 
ATOM     72  C35 DCU d   1      41.618  26.673   3.694  0.00  0.00    -0.071 A 
ATOM     73  H39 DCU d   1      42.384  27.320   1.754  0.00  0.00     0.083 H 
ATOM     74  H40 DCU d   1      40.849  27.435   3.739  0.00  0.00     0.084 H 
ENDBRANCH  45  64
BRANCH  53  75
ATOM     75  N36 DCU d   1      44.540  28.337   8.304  0.00  0.00    -0.399 N 
ATOM     76  H41 DCU d   1      45.089  28.365   7.433  0.00  0.00     0.156 HD
ATOM     77  H42 DCU d   1      44.937  28.716   9.175  0.00  0.00     0.156 HD
ENDBRANCH  53  75
BRANCH  58  78
ATOM     78  N37 DCU d   1      35.622  23.815   8.769  0.00  0.00    -0.399 N 
ATOM     79  H43 DCU d   1      35.296  23.201   8.009  0.00  0.00     0.156 HD
ATOM     80  H44 DCU d   1      35.096  23.864   9.653  0.00  0.00     0.156 HD
ENDBRANCH  58  78
ENDBRANCH   1  44
TORSDOF 17
