REMARK  2 active torsions:
REMARK  status: ('A' for Active; 'I' for Inactive)
REMARK    1  A    between atoms: C1_1  and  C_7 
REMARK    2  A    between atoms: C_7  and  N1_8 
ROOT
ATOM      1  C1  BEN d   1       7.645  50.330  55.665  0.00  0.00     0.007 A 
ATOM      2  C2  BEN d   1       7.679  49.164  54.878  0.00  0.00    -0.069 A 
ATOM      3  C3  BEN d   1       7.806  47.906  55.479  0.00  0.00    -0.082 A 
ATOM      4  C4  BEN d   1       7.813  47.800  56.872  0.00  0.00    -0.083 A 
ATOM      5  C5  BEN d   1       7.824  48.959  57.658  0.00  0.00    -0.082 A 
ATOM      6  C6  BEN d   1       7.794  50.221  57.050  0.00  0.00    -0.069 A 
ATOM      7  H1  BEN d   1       7.606  49.240  53.799  0.00  0.00     0.085 H 
ATOM      8  H2  BEN d   1       7.899  47.017  54.865  0.00  0.00     0.083 H 
ATOM      9  H3  BEN d   1       7.810  46.824  57.343  0.00  0.00     0.083 H 
ATOM     10  H4  BEN d   1       7.856  48.880  58.739  0.00  0.00     0.083 H 
ATOM     11  H5  BEN d   1       7.887  51.115  57.656  0.00  0.00     0.085 H 
ENDROOT
BRANCH   1  12
ATOM     12  C   BEN d   1       7.448  51.685  55.015  0.00  0.00     0.102 C 
ATOM     13  N2  BEN d   1       7.761  51.832  53.746  0.00  0.00    -0.385 N 
ATOM     14  H8  BEN d   1       8.119  51.030  53.208  0.00  0.00     0.157 HD
ATOM     15  H9  BEN d   1       7.648  52.749  53.291  0.00  0.00     0.157 HD
BRANCH  12  16
ATOM     16  N1  BEN d   1       6.987  52.688  55.734  0.00  0.00    -0.385 N 
ATOM     17  H6  BEN d   1       6.850  53.612  55.300  0.00  0.00     0.157 HD
ATOM     18  H7  BEN d   1       6.763  52.548  56.730  0.00  0.00     0.157 HD
ENDBRANCH  12  16
ENDBRANCH   1  12
TORSDOF 2
