REMARK WARNING: 32 MAX_TORS EXCEEDED!!!
REMARK  64 active torsions:
REMARK  status: ('A' for Active; 'I' for Inactive)
REMARK    1  A    between atoms: N_1  and  CA_2 
REMARK    2  A    between atoms: CA_2  and  C_3 
REMARK    3  A    between atoms: CA_2  and  CB_5 
REMARK       I    between atoms: C_3  and  N_6 
REMARK    4  A    between atoms: N_6  and  CA_7 
REMARK    5  A    between atoms: CA_7  and  C_8 
REMARK    6  A    between atoms: CA_7  and  CB_10 
REMARK       I    between atoms: C_8  and  N_17 
REMARK    7  A    between atoms: CB_10  and  CG_11 
REMARK    8  A    between atoms: CG_11  and  CD_12 
REMARK    9  A    between atoms: CD_12  and  NE_13 
REMARK       I    between atoms: NE_13  and  CZ_14 
REMARK       I    between atoms: CZ_14  and  NH1_15 
REMARK       I    between atoms: CZ_14  and  NH2_16 
REMARK   10  A    between atoms: N_17  and  CA_18 
REMARK   11  A    between atoms: CA_18  and  C_19 
REMARK   12  A    between atoms: CA_18  and  CB_21 
REMARK       I    between atoms: C_19  and  N_28 
REMARK   13  A    between atoms: CB_21  and  CG_22 
REMARK   14  A    between atoms: CG_22  and  CD_23 
REMARK   15  A    between atoms: CD_23  and  NE_24 
REMARK       I    between atoms: NE_24  and  CZ_25 
REMARK       I    between atoms: CZ_25  and  NH1_26 
REMARK   16  A    between atoms: N_28  and  CA_29 
REMARK   17  A    between atoms: CA_29  and  C_30 
REMARK   18  A    between atoms: CA_29  and  CB_32 
REMARK       I    between atoms: C_30  and  N_35 
REMARK   19  A    between atoms: CB_32  and  OG1_33 
REMARK   20  A    between atoms: CB_32  and  CG2_34 
REMARK   21  A    between atoms: N_35  and  CA_36 
REMARK   22  A    between atoms: CA_36  and  C_37 
REMARK       I    between atoms: C_37  and  N_39 
REMARK   23  A    between atoms: N_39  and  CA_40 
REMARK   24  A    between atoms: CA_40  and  C_41 
REMARK   25  A    between atoms: CA_40  and  CB_43 
REMARK       I    between atoms: C_41  and  N_46 
REMARK   26  A    between atoms: CB_43  and  OG1_44 
REMARK   27  A    between atoms: CB_43  and  CG2_45 
REMARK   28  A    between atoms: N_46  and  CA_47 
REMARK   29  A    between atoms: CA_47  and  C_48 
REMARK   30  A    between atoms: CA_47  and  CB_50 
REMARK       I    between atoms: C_48  and  N_58 
REMARK   31  A    between atoms: CB_50  and  CG_51 
REMARK   32  A    between atoms: CZ_56  and  OH_57 
REMARK   33  A    between atoms: N_58  and  CA_59 
REMARK   34  A    between atoms: CA_59  and  C_60 
REMARK       I    between atoms: C_60  and  N_62 
REMARK   35  A    between atoms: N_62  and  CA_63 
REMARK   36  A    between atoms: CA_63  and  C_64 
REMARK   37  A    between atoms: CA_63  and  CB_66 
REMARK       I    between atoms: C_64  and  N_69 
REMARK   38  A    between atoms: CB_66  and  CG1_67 
REMARK   39  A    between atoms: CB_66  and  CG2_68 
REMARK   40  A    between atoms: N_69  and  CA_70 
REMARK   41  A    between atoms: CA_70  and  C_71 
REMARK   42  A    between atoms: CA_70  and  CB_73 
REMARK       I    between atoms: C_71  and  N_77 
REMARK   43  A    between atoms: CB_73  and  CG_74 
REMARK   44  A    between atoms: CG_74  and  CD1_75 
REMARK   45  A    between atoms: CG_74  and  CD2_76 
REMARK   46  A    between atoms: N_77  and  CA_78 
REMARK   47  A    between atoms: CA_78  and  C_79 
REMARK   48  A    between atoms: CA_78  and  CB_81 
REMARK       I    between atoms: C_79  and  N_82 
REMARK   49  A    between atoms: N_82  and  CA_83 
REMARK   50  A    between atoms: CA_83  and  C_84 
REMARK   51  A    between atoms: CA_83  and  CB_86 
REMARK       I    between atoms: C_84  and  N_87 
REMARK   52  A    between atoms: N_87  and  CA_88 
REMARK   53  A    between atoms: CA_88  and  C_89 
REMARK   54  A    between atoms: CA_88  and  CB_91 
REMARK       I    between atoms: C_89  and  N_101 
REMARK   55  A    between atoms: CB_91  and  CG_92 
REMARK   56  A    between atoms: N_101  and  CA_102 
REMARK   57  A    between atoms: CA_102  and  C_103 
REMARK   58  A    between atoms: CA_102  and  CB_105 
REMARK       I    between atoms: C_103  and  N_106 
REMARK   59  A    between atoms: N_106  and  CA_107 
REMARK   60  A    between atoms: CA_107  and  C_108 
REMARK   61  A    between atoms: CA_107  and  CB_110 
REMARK       I    between atoms: C_108  and  N_111 
REMARK   62  A    between atoms: N_111  and  CA_112 
REMARK   63  A    between atoms: CA_112  and  C_113 
REMARK   64  A    between atoms: CA_112  and  CB_115 
ROOT
ATOM      1  N   GLY d   1      54.703  45.111  31.356  0.00  0.00    -0.351 N 
ATOM      2  H60 GLY d   1      54.662  45.829  30.661  0.00  0.00     0.163 HD
ATOM      3  C   TYR d   1      54.328  43.877  31.030  0.00  0.00     0.241 C 
ATOM      4  O   TYR d   1      54.334  42.923  31.815  0.00  0.00    -0.271 OA
ENDROOT
BRANCH   1   5
ATOM      5  CA  GLY d   1      55.169  45.448  32.688  0.00  0.00     0.069 C 
ATOM      6  H61 GLY d   1      55.883  46.282  32.618  0.00  0.00     0.078 H 
ATOM      7  H62 GLY d   1      55.670  44.572  33.125  0.00  0.00     0.078 H 
BRANCH   5   8
ATOM      8  C   GLY d   1      54.018  45.857  33.585  0.00  0.00     0.236 C 
ATOM      9  O   GLY d   1      53.609  47.019  33.601  0.00  0.00    -0.272 OA
ATOM     10  N   VAL d   1      53.494  44.876  34.316  0.00  0.00    -0.346 N 
ATOM     11  H63 VAL d   1      53.885  43.960  34.225  0.00  0.00     0.163 HD
BRANCH  10  12
ATOM     12  CA  VAL d   1      52.384  45.058  35.241  0.00  0.00     0.092 C 
ATOM     13  H64 VAL d   1      51.513  45.407  34.667  0.00  0.00     0.088 H 
BRANCH  12  14
ATOM     14  C   VAL d   1      52.712  46.105  36.299  0.00  0.00     0.241 C 
ATOM     15  O   VAL d   1      52.017  47.106  36.414  0.00  0.00    -0.271 OA
ATOM     16  N   LEU d   1      53.782  45.888  37.053  0.00  0.00    -0.346 N 
ATOM     17  H72 LEU d   1      54.318  45.055  36.915  0.00  0.00     0.163 HD
BRANCH  16  18
ATOM     18  CA  LEU d   1      54.192  46.840  38.080  0.00  0.00     0.089 C 
ATOM     19  H73 LEU d   1      53.409  46.873  38.852  0.00  0.00     0.087 H 
BRANCH  18  20
ATOM     20  C   LEU d   1      54.390  48.263  37.526  0.00  0.00     0.241 C 
ATOM     21  O   LEU d   1      53.876  49.237  38.076  0.00  0.00    -0.271 OA
ATOM     22  N   ALA d   1      55.133  48.359  36.427  0.00  0.00    -0.346 N 
ATOM     23  H83 ALA d   1      55.496  47.517  36.027  0.00  0.00     0.163 HD
BRANCH  22  24
ATOM     24  CA  ALA d   1      55.448  49.627  35.772  0.00  0.00     0.086 C 
ATOM     25  H84 ALA d   1      55.942  50.254  36.529  0.00  0.00     0.086 H 
BRANCH  24  26
ATOM     26  C   ALA d   1      54.270  50.440  35.241  0.00  0.00     0.240 C 
ATOM     27  O   ALA d   1      54.383  51.660  35.088  0.00  0.00    -0.271 OA
ATOM     28  N   ALA d   1      53.151  49.778  34.953  0.00  0.00    -0.346 N 
ATOM     29  H88 ALA d   1      53.115  48.791  35.109  0.00  0.00     0.163 HD
BRANCH  28  30
ATOM     30  CA  ALA d   1      51.971  50.460  34.413  0.00  0.00     0.086 C 
ATOM     31  H89 ALA d   1      52.323  51.036  33.544  0.00  0.00     0.086 H 
BRANCH  30  32
ATOM     32  C   ALA d   1      51.295  51.473  35.347  0.00  0.00     0.240 C 
ATOM     33  O   ALA d   1      50.547  52.337  34.878  0.00  0.00    -0.271 OA
ATOM     34  N   TRP d   1      51.559  51.365  36.651  0.00  0.00    -0.346 N 
ATOM     35  H93 TRP d   1      52.163  50.630  36.960  0.00  0.00     0.163 HD
BRANCH  34  36
ATOM     36  CA  TRP d   1      50.998  52.282  37.647  0.00  0.00     0.093 C 
ATOM     37  H94 TRP d   1      49.904  52.272  37.528  0.00  0.00     0.088 H 
BRANCH  36  38
ATOM     38  C   TRP d   1      51.479  53.726  37.487  0.00  0.00     0.241 C 
ATOM     39  O   TRP d   1      52.412  54.169  38.178  0.00  0.00    -0.271 OA
ATOM     40  N   ARG d   1      50.836  54.452  36.572  0.00  0.00    -0.346 N 
ATOM     41 3H10 ARG d   1      50.111  54.018  36.038  0.00  0.00     0.163 HD
BRANCH  40  42
ATOM     42  CA  ARG d   1      51.150  55.856  36.320  0.00  0.00     0.086 C 
ATOM     43 4H10 ARG d   1      52.234  56.015  36.423  0.00  0.00     0.086 H 
BRANCH  42  44
ATOM     44  C   ARG d   1      50.408  56.699  37.357  0.00  0.00     0.240 C 
ATOM     45  O   ARG d   1      50.289  57.919  37.213  0.00  0.00    -0.271 OA
ATOM     46  N   ARG d   1      49.896  56.023  38.389  0.00  0.00    -0.346 N 
ATOM     47 8H10 ARG d   1      50.025  55.032  38.413  0.00  0.00     0.163 HD
BRANCH  46  48
ATOM     48  CA  ARG d   1      49.158  56.648  39.484  0.00  0.00     0.086 C 
ATOM     49 9H10 ARG d   1      48.268  57.145  39.070  0.00  0.00     0.086 H 
BRANCH  48  50
ATOM     50  C   ARG d   1      50.017  57.699  40.189  0.00  0.00     0.240 C 
ATOM     51  O   ARG d   1      49.495  58.653  40.775  0.00  0.00    -0.271 OA
ATOM     52  N   LEU d   1      51.335  57.508  40.123  0.00  0.00    -0.345 N 
ATOM     53 3H11 LEU d   1      51.677  56.701  39.642  0.00  0.00     0.163 HD
BRANCH  52  54
ATOM     54  CA  LEU d   1      52.302  58.425  40.722  0.00  0.00     0.093 C 
ATOM     55 4H11 LEU d   1      51.890  58.791  41.674  0.00  0.00     0.089 H 
BRANCH  54  56
ATOM     56  C   LEU d   1      52.552  59.636  39.807  0.00  0.00     0.196 C 
ATOM     57  O   LEU d   1      52.548  59.462  38.564  0.00  0.00    -0.646 OA
ATOM     58  OXT LEU d   1      52.750  60.750  40.344  0.00  0.00    -0.646 OA
ENDBRANCH  54  56
BRANCH  54  59
ATOM     59  CB  LEU d   1      53.617  57.688  41.011  0.00  0.00    -0.048 C 
ATOM     60 5H11 LEU d   1      54.337  58.387  41.461  0.00  0.00     0.030 H 
ATOM     61 6H11 LEU d   1      54.029  57.291  40.072  0.00  0.00     0.030 H 
ATOM     62 7H11 LEU d   1      53.427  56.858  41.707  0.00  0.00     0.030 H 
ENDBRANCH  54  59
ENDBRANCH  52  54
ENDBRANCH  48  50
BRANCH  48  63
ATOM     63  CB  ARG d   1      48.707  55.582  40.473  0.00  0.00    -0.049 C 
ATOM     64 0H11 ARG d   1      48.152  56.056  41.296  0.00  0.00     0.030 H 
ATOM     65 1H11 ARG d   1      49.587  55.061  40.877  0.00  0.00     0.030 H 
ATOM     66 2H11 ARG d   1      48.056  54.858  39.961  0.00  0.00     0.030 H 
ENDBRANCH  48  63
ENDBRANCH  46  48
ENDBRANCH  42  44
BRANCH  42  67
ATOM     67  CB  ARG d   1      50.717  56.255  34.905  0.00  0.00    -0.049 C 
ATOM     68 5H10 ARG d   1      50.960  57.314  34.732  0.00  0.00     0.030 H 
ATOM     69 6H10 ARG d   1      49.633  56.106  34.798  0.00  0.00     0.030 H 
ATOM     70 7H10 ARG d   1      51.247  55.632  34.170  0.00  0.00     0.030 H 
ENDBRANCH  42  67
ENDBRANCH  40  42
ENDBRANCH  36  38
BRANCH  36  71
ATOM     71  CB  TRP d   1      51.337  51.823  39.061  0.00  0.00    -0.012 C 
ATOM     72  H95 TRP d   1      51.113  52.648  39.754  0.00  0.00     0.044 H 
ATOM     73  H96 TRP d   1      52.412  51.593  39.100  0.00  0.00     0.044 H 
BRANCH  71  74
ATOM     74  CG  TRP d   1      50.594  50.631  39.507  0.00  0.00    -0.028 A 
ATOM     75  CD1 TRP d   1      50.121  49.621  38.726  0.00  0.00    -0.015 A 
ATOM     76  NE1 TRP d   1      49.504  48.669  39.507  0.00  0.00    -0.365 N 
ATOM     77  H97 TRP d   1      50.217  49.573  37.642  0.00  0.00     0.112 H 
ATOM     78  CE2 TRP d   1      49.570  49.055  40.823  0.00  0.00     0.042 A 
ATOM     79  H98 TRP d   1      49.063  47.805  39.159  0.00  0.00     0.165 HD
ATOM     80  CD2 TRP d   1      50.251  50.294  40.862  0.00  0.00    -0.002 A 
ATOM     81  CZ2 TRP d   1      49.087  48.420  41.988  0.00  0.00    -0.056 A 
ATOM     82  CE3 TRP d   1      50.456  50.920  42.109  0.00  0.00    -0.070 A 
ATOM     83  CZ3 TRP d   1      49.976  50.290  43.267  0.00  0.00    -0.082 A 
ATOM     84  H99 TRP d   1      50.975  51.870  42.172  0.00  0.00     0.084 H 
ATOM     85  CH2 TRP d   1      49.300  49.052  43.194  0.00  0.00    -0.081 A 
ATOM     86 1H10 TRP d   1      50.126  50.760  44.232  0.00  0.00     0.083 H 
ATOM     87 2H10 TRP d   1      48.941  48.589  44.106  0.00  0.00     0.083 H 
ATOM     88 0H10 TRP d   1      48.568  47.470  41.936  0.00  0.00     0.086 H 
ENDBRANCH  71  74
ENDBRANCH  36  71
ENDBRANCH  34  36
ENDBRANCH  30  32
BRANCH  30  89
ATOM     89  CB  ALA d   1      50.960  49.448  33.898  0.00  0.00    -0.049 C 
ATOM     90  H90 ALA d   1      50.083  49.977  33.497  0.00  0.00     0.030 H 
ATOM     91  H91 ALA d   1      50.647  48.791  34.722  0.00  0.00     0.030 H 
ATOM     92  H92 ALA d   1      51.419  48.844  33.102  0.00  0.00     0.030 H 
ENDBRANCH  30  89
ENDBRANCH  28  30
ENDBRANCH  24  26
BRANCH  24  93
ATOM     93  CB  ALA d   1      56.437  49.384  34.652  0.00  0.00    -0.049 C 
ATOM     94  H85 ALA d   1      56.674  50.338  34.159  0.00  0.00     0.030 H 
ATOM     95  H86 ALA d   1      55.998  48.692  33.919  0.00  0.00     0.030 H 
ATOM     96  H87 ALA d   1      57.358  48.946  35.065  0.00  0.00     0.030 H 
ENDBRANCH  24  93
ENDBRANCH  22  24
ENDBRANCH  18  20
BRANCH  18  97
ATOM     97  CB  LEU d   1      55.498  46.375  38.715  0.00  0.00    -0.035 C 
ATOM     98  H74 LEU d   1      56.231  46.220  37.909  0.00  0.00     0.037 H 
ATOM     99  H75 LEU d   1      55.306  45.419  39.225  0.00  0.00     0.037 H 
BRANCH  97 100
ATOM    100  CG  LEU d   1      56.112  47.337  39.732  0.00  0.00    -0.059 C 
ATOM    101  H76 LEU d   1      56.001  48.366  39.361  0.00  0.00     0.038 H 
BRANCH 100 102
ATOM    102  CD1 LEU d   1      55.383  47.215  41.056  0.00  0.00    -0.073 C 
ATOM    103  H77 LEU d   1      55.828  47.909  41.785  0.00  0.00     0.028 H 
ATOM    104  H78 LEU d   1      55.471  46.184  41.430  0.00  0.00     0.028 H 
ATOM    105  H79 LEU d   1      54.321  47.464  40.914  0.00  0.00     0.028 H 
ENDBRANCH 100 102
BRANCH 100 106
ATOM    106  CD2 LEU d   1      57.587  47.039  39.904  0.00  0.00    -0.073 C 
ATOM    107  H80 LEU d   1      58.096  47.133  38.933  0.00  0.00     0.028 H 
ATOM    108  H81 LEU d   1      57.712  46.015  40.286  0.00  0.00     0.028 H 
ATOM    109  H82 LEU d   1      58.025  47.752  40.618  0.00  0.00     0.028 H 
ENDBRANCH 100 106
ENDBRANCH  97 100
ENDBRANCH  18  97
ENDBRANCH  16  18
ENDBRANCH  12  14
BRANCH  12 110
ATOM    110  CB  VAL d   1      52.017  43.729  35.922  0.00  0.00    -0.033 C 
ATOM    111  H65 VAL d   1      52.886  43.380  36.499  0.00  0.00     0.042 H 
BRANCH 110 112
ATOM    112  CG1 VAL d   1      50.860  43.932  36.874  0.00  0.00    -0.071 C 
ATOM    113  H66 VAL d   1      50.608  42.975  37.354  0.00  0.00     0.028 H 
ATOM    114  H67 VAL d   1      49.987  44.304  36.317  0.00  0.00     0.028 H 
ATOM    115  H68 VAL d   1      51.143  44.665  37.644  0.00  0.00     0.028 H 
ENDBRANCH 110 112
BRANCH 110 116
ATOM    116  CG2 VAL d   1      51.678  42.674  34.877  0.00  0.00    -0.071 C 
ATOM    117  H69 VAL d   1      52.533  42.544  34.197  0.00  0.00     0.028 H 
ATOM    118  H70 VAL d   1      50.798  42.997  34.302  0.00  0.00     0.028 H 
ATOM    119  H71 VAL d   1      51.459  41.719  35.377  0.00  0.00     0.028 H 
ENDBRANCH 110 116
ENDBRANCH  12 110
ENDBRANCH  10  12
ENDBRANCH   5   8
ENDBRANCH   1   5
BRANCH   3 120
ATOM    120  CA  TYR d   1      53.846  43.704  29.604  0.00  0.00     0.093 C 
ATOM    121  H52 TYR d   1      54.027  44.636  29.049  0.00  0.00     0.088 H 
BRANCH 120 122
ATOM    122  N   TYR d   1      54.575  42.625  28.950  0.00  0.00    -0.346 N 
ATOM    123  C   THR d   1      55.014  42.721  27.699  0.00  0.00     0.243 C 
ATOM    124  O   THR d   1      54.814  43.702  26.985  0.00  0.00    -0.271 OA
ATOM    125  H51 TYR d   1      54.751  41.783  29.460  0.00  0.00     0.163 HD
BRANCH 123 126
ATOM    126  CA  THR d   1      55.775  41.515  27.174  0.00  0.00     0.113 C 
ATOM    127  H45 THR d   1      55.411  40.623  27.705  0.00  0.00     0.091 H 
BRANCH 126 128
ATOM    128  N   THR d   1      55.562  41.308  25.755  0.00  0.00    -0.344 N 
ATOM    129  C   GLY d   1      55.615  40.089  25.239  0.00  0.00     0.236 C 
ATOM    130  O   GLY d   1      55.819  39.096  25.914  0.00  0.00    -0.272 OA
ATOM    131  H44 THR d   1      55.374  42.091  25.162  0.00  0.00     0.163 HD
BRANCH 129 132
ATOM    132  CA  GLY d   1      55.393  39.958  23.759  0.00  0.00     0.069 C 
ATOM    133  H42 GLY d   1      54.324  39.793  23.559  0.00  0.00     0.078 H 
ATOM    134  H43 GLY d   1      55.723  40.878  23.254  0.00  0.00     0.078 H 
BRANCH 132 135
ATOM    135  N   GLY d   1      56.158  38.833  23.267  0.00  0.00    -0.350 N 
ATOM    136  C   THR d   1      56.322  38.639  21.963  0.00  0.00     0.243 C 
ATOM    137  O   THR d   1      55.851  39.395  21.108  0.00  0.00    -0.271 OA
ATOM    138  H41 GLY d   1      56.569  38.193  23.917  0.00  0.00     0.163 HD
BRANCH 136 139
ATOM    139  CA  THR d   1      57.150  37.415  21.566  0.00  0.00     0.113 C 
ATOM    140  H35 THR d   1      56.712  36.517  22.026  0.00  0.00     0.091 H 
BRANCH 139 141
ATOM    141  N   THR d   1      57.163  37.238  20.119  0.00  0.00    -0.344 N 
ATOM    142  C   ARG d   1      56.960  36.068  19.527  0.00  0.00     0.241 C 
ATOM    143  O   ARG d   1      56.718  35.038  20.150  0.00  0.00    -0.271 OA
ATOM    144  H34 THR d   1      57.333  38.038  19.544  0.00  0.00     0.163 HD
BRANCH 142 145
ATOM    145  CA  ARG d   1      57.037  36.090  17.996  0.00  0.00     0.089 C 
ATOM    146  H22 ARG d   1      56.157  36.620  17.602  0.00  0.00     0.087 H 
BRANCH 145 147
ATOM    147  N   ARG d   1      58.248  36.816  17.596  0.00  0.00    -0.346 N 
ATOM    148  C   ARG d   1      58.229  38.102  17.241  0.00  0.00     0.241 C 
ATOM    149  O   ARG d   1      57.192  38.762  17.186  0.00  0.00    -0.271 OA
ATOM    150  H21 ARG d   1      59.121  36.328  17.589  0.00  0.00     0.163 HD
BRANCH 148 151
ATOM    151  CA  ARG d   1      59.577  38.741  16.876  0.00  0.00     0.089 C 
ATOM    152  H9  ARG d   1      60.355  37.964  16.896  0.00  0.00     0.087 H 
BRANCH 151 153
ATOM    153  N   ARG d   1      59.543  39.336  15.529  0.00  0.00    -0.346 N 
ATOM    154  C   ARG d   1      60.427  39.044  14.565  0.00  0.00     0.248 C 
ATOM    155  O   ARG d   1      61.350  38.224  14.708  0.00  0.00    -0.271 OA
ATOM    156  H8  ARG d   1      58.820  39.995  15.322  0.00  0.00     0.163 HD
BRANCH 154 157
ATOM    157  CA  ARG d   1      60.230  39.781  13.227  0.00  0.00     0.172 C 
ATOM    158  H4  ARG d   1      59.183  39.646  12.918  0.00  0.00     0.098 H 
BRANCH 157 159
ATOM    159  N   ARG d   1      60.481  41.218  13.356  0.00  0.00    -0.067 N 
ATOM    160  H1  ARG d   1      60.343  41.665  12.463  0.00  0.00     0.275 HD
ATOM    161  H2  ARG d   1      61.429  41.367  13.663  0.00  0.00     0.275 HD
ATOM    162  H3  ARG d   1      59.844  41.611  14.031  0.00  0.00     0.275 HD
ENDBRANCH 157 159
BRANCH 157 163
ATOM    163  CB  ARG d   1      61.134  39.179  12.136  0.00  0.00    -0.042 C 
ATOM    164  H5  ARG d   1      60.936  38.100  12.049  0.00  0.00     0.030 H 
ATOM    165  H6  ARG d   1      62.189  39.337  12.405  0.00  0.00     0.030 H 
ATOM    166  H7  ARG d   1      60.923  39.669  11.174  0.00  0.00     0.030 H 
ENDBRANCH 157 163
ENDBRANCH 154 157
ENDBRANCH 151 153
BRANCH 151 167
ATOM    167  CB  ARG d   1      59.913  39.818  17.926  0.00  0.00    -0.036 C 
ATOM    168  H10 ARG d   1      60.003  39.321  18.903  0.00  0.00     0.036 H 
ATOM    169  H11 ARG d   1      59.079  40.535  17.954  0.00  0.00     0.036 H 
BRANCH 167 170
ATOM    170  CG  ARG d   1      61.206  40.608  17.678  0.00  0.00    -0.048 C 
ATOM    171  H12 ARG d   1      61.279  40.843  16.606  0.00  0.00     0.035 H 
ATOM    172  H13 ARG d   1      62.064  39.988  17.977  0.00  0.00     0.035 H 
BRANCH 170 173
ATOM    173  CD  ARG d   1      61.239  41.919  18.477  0.00  0.00     0.009 C 
ATOM    174  H14 ARG d   1      61.305  41.672  19.547  0.00  0.00     0.064 H 
ATOM    175  H15 ARG d   1      60.305  42.467  18.284  0.00  0.00     0.064 H 
BRANCH 173 176
ATOM    176  NE  ARG d   1      62.368  42.792  18.132  0.00  0.00    -0.227 N 
ATOM    177  CZ  ARG d   1      62.258  44.028  17.637  0.00  0.00     0.665 C 
ATOM    178  NH1 ARG d   1      61.066  44.569  17.413  0.00  0.00    -0.235 N 
ATOM    179  NH2 ARG d   1      63.351  44.731  17.365  0.00  0.00    -0.235 N 
ATOM    180  H17 ARG d   1      60.997  45.523  17.031  0.00  0.00     0.174 HD
ATOM    181  H18 ARG d   1      60.211  44.035  17.621  0.00  0.00     0.174 HD
ATOM    182  H19 ARG d   1      64.281  44.323  17.534  0.00  0.00     0.174 HD
ATOM    183  H20 ARG d   1      63.269  45.685  16.985  0.00  0.00     0.174 HD
ATOM    184  H16 ARG d   1      63.318  42.423  18.283  0.00  0.00     0.177 HD
ENDBRANCH 173 176
ENDBRANCH 170 173
ENDBRANCH 167 170
ENDBRANCH 151 167
ENDBRANCH 148 151
ENDBRANCH 145 147
BRANCH 145 185
ATOM    185  CB  ARG d   1      57.040  34.661  17.431  0.00  0.00    -0.036 C 
ATOM    186  H23 ARG d   1      56.984  34.730  16.335  0.00  0.00     0.036 H 
ATOM    187  H24 ARG d   1      56.147  34.144  17.812  0.00  0.00     0.036 H 
BRANCH 185 188
ATOM    188  CG  ARG d   1      58.263  33.814  17.788  0.00  0.00    -0.048 C 
ATOM    189  H25 ARG d   1      58.486  33.946  18.857  0.00  0.00     0.035 H 
ATOM    190  H26 ARG d   1      59.119  34.159  17.190  0.00  0.00     0.035 H 
BRANCH 188 191
ATOM    191  CD  ARG d   1      58.036  32.317  17.511  0.00  0.00     0.009 C 
ATOM    192  H27 ARG d   1      57.128  32.001  18.045  0.00  0.00     0.064 H 
ATOM    193  H28 ARG d   1      58.902  31.759  17.898  0.00  0.00     0.064 H 
BRANCH 191 194
ATOM    194  NE  ARG d   1      57.873  31.986  16.092  0.00  0.00    -0.227 N 
ATOM    195  CZ  ARG d   1      57.691  30.751  15.615  0.00  0.00     0.665 C 
ATOM    196  NH1 ARG d   1      57.644  29.705  16.436  0.00  0.00    -0.235 N 
ATOM    197  NH2 ARG d   1      57.550  30.554  14.306  0.00  0.00    -0.235 N 
ATOM    198  H30 ARG d   1      57.503  28.758  16.056  0.00  0.00     0.174 HD
ATOM    199  H31 ARG d   1      57.748  29.842  17.451  0.00  0.00     0.174 HD
ATOM    200  H32 ARG d   1      57.584  31.354  13.658  0.00  0.00     0.174 HD
ATOM    201  H33 ARG d   1      57.407  29.602  13.941  0.00  0.00     0.174 HD
ATOM    202  H29 ARG d   1      57.901  32.761  15.414  0.00  0.00     0.177 HD
ENDBRANCH 191 194
ENDBRANCH 188 191
ENDBRANCH 185 188
ENDBRANCH 145 185
ENDBRANCH 142 145
ENDBRANCH 139 141
BRANCH 139 203
ATOM    203  CB  THR d   1      58.584  37.617  22.106  0.00  0.00     0.060 C 
ATOM    204  H36 THR d   1      58.528  37.968  23.147  0.00  0.00     0.086 H 
BRANCH 203 205
ATOM    205  OG1 THR d   1      59.256  38.598  21.308  0.00  0.00    -0.393 OA
ATOM    206  H37 THR d   1      60.138  38.724  21.639  0.00  0.00     0.210 HD
ENDBRANCH 203 205
BRANCH 203 207
ATOM    207  CG2 THR d   1      59.377  36.321  22.062  0.00  0.00    -0.050 C 
ATOM    208  H38 THR d   1      60.390  36.498  22.452  0.00  0.00     0.031 H 
ATOM    209  H39 THR d   1      59.441  35.965  21.023  0.00  0.00     0.031 H 
ATOM    210  H40 THR d   1      58.874  35.562  22.679  0.00  0.00     0.031 H 
ENDBRANCH 203 207
ENDBRANCH 139 203
ENDBRANCH 136 139
ENDBRANCH 132 135
ENDBRANCH 129 132
ENDBRANCH 126 128
BRANCH 126 211
ATOM    211  CB  THR d   1      57.276  41.685  27.477  0.00  0.00     0.060 C 
ATOM    212  H46 THR d   1      57.816  40.807  27.093  0.00  0.00     0.086 H 
BRANCH 211 213
ATOM    213  OG1 THR d   1      57.483  41.774  28.891  0.00  0.00    -0.393 OA
ATOM    214  H47 THR d   1      57.008  42.522  29.233  0.00  0.00     0.210 HD
ENDBRANCH 211 213
BRANCH 211 215
ATOM    215  CG2 THR d   1      57.820  42.928  26.799  0.00  0.00    -0.050 C 
ATOM    216  H48 THR d   1      58.891  43.031  27.027  0.00  0.00     0.031 H 
ATOM    217  H49 THR d   1      57.280  43.813  27.167  0.00  0.00     0.031 H 
ATOM    218  H50 THR d   1      57.684  42.842  25.711  0.00  0.00     0.031 H 
ENDBRANCH 211 215
ENDBRANCH 126 211
ENDBRANCH 123 126
ENDBRANCH 120 122
BRANCH 120 219
ATOM    219  CB  TYR d   1      52.345  43.423  29.622  0.00  0.00    -0.014 C 
ATOM    220  H53 TYR d   1      52.185  42.412  30.024  0.00  0.00     0.043 H 
ATOM    221  H54 TYR d   1      51.970  43.470  28.589  0.00  0.00     0.043 H 
BRANCH 219 222
ATOM    222  CG  TYR d   1      51.555  44.405  30.465  0.00  0.00    -0.056 A 
ATOM    223  CD1 TYR d   1      51.627  45.772  30.217  0.00  0.00    -0.074 A 
ATOM    224  CE1 TYR d   1      50.892  46.682  30.967  0.00  0.00    -0.051 A 
ATOM    225  H55 TYR d   1      52.269  46.135  29.423  0.00  0.00     0.084 H 
ATOM    226  CZ  TYR d   1      50.071  46.224  31.982  0.00  0.00     0.065 A 
ATOM    227  H57 TYR d   1      50.961  47.743  30.758  0.00  0.00     0.087 H 
ATOM    228  CE2 TYR d   1      49.981  44.869  32.259  0.00  0.00    -0.051 A 
ATOM    229  CD2 TYR d   1      50.723  43.966  31.500  0.00  0.00    -0.074 A 
ATOM    230  H58 TYR d   1      49.340  44.515  33.058  0.00  0.00     0.087 H 
ATOM    231  H56 TYR d   1      50.654  42.906  31.715  0.00  0.00     0.084 H 
BRANCH 226 232
ATOM    232  OH  TYR d   1      49.334  47.138  32.695  0.00  0.00    -0.361 OA
ATOM    233  H59 TYR d   1      49.566  47.082  33.614  0.00  0.00     0.217 HD
ENDBRANCH 226 232
ENDBRANCH 219 222
ENDBRANCH 120 219
ENDBRANCH   3 120
TORSDOF 64
