REMARK WARNING: 32 MAX_TORS EXCEEDED!!!
REMARK  36 active torsions:
REMARK  status: ('A' for Active; 'I' for Inactive)
REMARK    1  A    between atoms: N_1  and  CA_2 
REMARK    2  A    between atoms: CA_2  and  C_3 
REMARK    3  A    between atoms: CA_2  and  CB_5 
REMARK       I    between atoms: C_3  and  N_18 
REMARK    4  A    between atoms: CB_5  and  CG_6 
REMARK    5  A    between atoms: CG_6  and  CD_7 
REMARK    6  A    between atoms: N_18  and  CA_19 
REMARK    7  A    between atoms: CA_19  and  C_20 
REMARK    8  A    between atoms: CA_19  and  CB_22 
REMARK       I    between atoms: C_20  and  N_30 
REMARK    9  A    between atoms: CB_22  and  CG_23 
REMARK   10  A    between atoms: N_30  and  CA_31 
REMARK   11  A    between atoms: CA_31  and  C_32 
REMARK   12  A    between atoms: CA_31  and  CB_34 
REMARK       I    between atoms: C_32  and  N_49 
REMARK   13  A    between atoms: CB_34  and  CG1_35 
REMARK   14  A    between atoms: CB_34  and  CG2_36 
REMARK   15  A    between atoms: CG1_35  and  CD1_37 
REMARK   16  A    between atoms: N_49  and  CA_50 
REMARK   17  A    between atoms: CA_50  and  C_51 
REMARK   18  A    between atoms: CA_50  and  CB_53 
REMARK       I    between atoms: C_51  and  N_73 
REMARK   19  A    between atoms: CB_53  and  CG_54 
REMARK   20  A    between atoms: CZ_59  and  OH_60 
REMARK   21  A    between atoms: OH_60  and  P_61 
REMARK   22  A    between atoms: N_73  and  CA_74 
REMARK   23  A    between atoms: CA_74  and  C_75 
REMARK   24  A    between atoms: CA_74  and  CB_77 
REMARK       I    between atoms: C_75  and  N_94 
REMARK   25  A    between atoms: CB_77  and  CG_78 
REMARK   26  A    between atoms: CZ_83  and  OH_84 
REMARK   27  A    between atoms: N_94  and  CA_95 
REMARK   28  A    between atoms: CA_95  and  C_96 
REMARK   29  A    between atoms: CA_95  and  CB_98 
REMARK       I    between atoms: C_96  and  N_113 
REMARK   30  A    between atoms: CB_98  and  CG_99 
REMARK   31  A    between atoms: CG_99  and  CD1_100 
REMARK   32  A    between atoms: CG_99  and  CD2_101 
REMARK   33  A    between atoms: N_113  and  CA_114 
REMARK   34  A    between atoms: CA_114  and  C_115 
REMARK   35  A    between atoms: CA_114  and  CB_117 
REMARK   36  A    between atoms: CB_117  and  CG_118 
ROOT
ATOM      1  CA  PTR d   1       1.940 -22.512 -11.531  0.00  0.00     0.093 C 
ATOM      2  H25 PTR d   1       1.668 -23.131 -12.399  0.00  0.00     0.088 H 
ENDROOT
BRANCH   1   3
ATOM      3  N   PTR d   1       1.798 -23.320 -10.325  0.00  0.00    -0.346 N 
ATOM      4  C   ILE d   1       1.617 -24.635 -10.385  0.00  0.00     0.241 C 
ATOM      5  O   ILE d   1       1.557 -25.255 -11.447  0.00  0.00    -0.271 OA
ATOM      6  H24 PTR d   1       1.838 -22.873  -9.431  0.00  0.00     0.163 HD
BRANCH   4   7
ATOM      7  CA  ILE d   1       1.483 -25.358  -9.050  0.00  0.00     0.092 C 
ATOM      8  H14 ILE d   1       1.770 -24.665  -8.245  0.00  0.00     0.088 H 
BRANCH   7   9
ATOM      9  N   ILE d   1       0.107 -25.779  -8.818  0.00  0.00    -0.346 N 
ATOM     10  C   ASP d   1      -0.678 -25.147  -7.952  0.00  0.00     0.241 C 
ATOM     11  O   ASP d   1      -0.306 -24.176  -7.294  0.00  0.00    -0.271 OA
ATOM     12  H13 ILE d   1      -0.255 -26.563  -9.323  0.00  0.00     0.163 HD
BRANCH  10  13
ATOM     13  CA  ASP d   1      -2.096 -25.692  -7.806  0.00  0.00     0.098 C 
ATOM     14  H10 ASP d   1      -2.308 -26.349  -8.663  0.00  0.00     0.088 H 
BRANCH  13  15
ATOM     15  N   ASP d   1      -2.230 -26.472  -6.582  0.00  0.00    -0.345 N 
ATOM     16  C   GLU d   1      -2.417 -27.788  -6.612  0.00  0.00     0.249 C 
ATOM     17  O   GLU d   1      -2.489 -28.431  -7.659  0.00  0.00    -0.271 OA
ATOM     18  H9  ASP d   1      -2.180 -26.006  -5.699  0.00  0.00     0.163 HD
BRANCH  16  19
ATOM     19  CA  GLU d   1      -2.541 -28.480  -5.259  0.00  0.00     0.176 C 
ATOM     20  H4  GLU d   1      -3.279 -27.936  -4.652  0.00  0.00     0.099 H 
BRANCH  19  21
ATOM     21  N   GLU d   1      -2.988 -29.890  -5.415  0.00  0.00    -0.066 N 
ATOM     22  H1  GLU d   1      -3.061 -30.322  -4.507  0.00  0.00     0.275 HD
ATOM     23  H2  GLU d   1      -2.318 -30.395  -5.974  0.00  0.00     0.275 HD
ATOM     24  H3  GLU d   1      -3.888 -29.909  -5.869  0.00  0.00     0.275 HD
ENDBRANCH  19  21
BRANCH  19  25
ATOM     25  CB  GLU d   1      -1.192 -28.475  -4.535  0.00  0.00    -0.021 C 
ATOM     26  H5  GLU d   1      -0.396 -28.347  -5.283  0.00  0.00     0.037 H 
ATOM     27  H6  GLU d   1      -1.066 -29.443  -4.027  0.00  0.00     0.037 H 
BRANCH  25  28
ATOM     28  CG  GLU d   1      -1.062 -27.369  -3.501  0.00  0.00     0.018 C 
ATOM     29  H7  GLU d   1      -1.314 -26.410  -3.977  0.00  0.00     0.049 H 
ATOM     30  H8  GLU d   1      -0.022 -27.340  -3.145  0.00  0.00     0.049 H 
BRANCH  28  31
ATOM     31  CD  GLU d   1      -1.977 -27.575  -2.310  0.00  0.00     0.172 C 
ATOM     32  OE1 GLU d   1      -1.716 -26.970  -1.249  0.00  0.00    -0.648 OA
ATOM     33  OE2 GLU d   1      -2.956 -28.341  -2.438  0.00  0.00    -0.648 OA
ENDBRANCH  28  31
ENDBRANCH  25  28
ENDBRANCH  19  25
ENDBRANCH  16  19
ENDBRANCH  13  15
BRANCH  13  34
ATOM     34  CB  ASP d   1      -3.100 -24.538  -7.813  0.00  0.00     0.043 C 
ATOM     35  H11 ASP d   1      -4.117 -24.955  -7.778  0.00  0.00     0.052 H 
ATOM     36  H12 ASP d   1      -2.971 -23.963  -8.742  0.00  0.00     0.052 H 
BRANCH  34  37
ATOM     37  CG  ASP d   1      -2.917 -23.604  -6.634  0.00  0.00     0.175 C 
ATOM     38  OD1 ASP d   1      -3.523 -23.862  -5.572  0.00  0.00    -0.648 OA
ATOM     39  OD2 ASP d   1      -2.168 -22.614  -6.770  0.00  0.00    -0.648 OA
ENDBRANCH  34  37
ENDBRANCH  13  34
ENDBRANCH  10  13
ENDBRANCH   7   9
BRANCH   7  40
ATOM     40  CB  ILE d   1       2.448 -26.559  -9.030  0.00  0.00    -0.030 C 
ATOM     41  H15 ILE d   1       2.270 -27.166  -9.930  0.00  0.00     0.043 H 
BRANCH  40  42
ATOM     42  CG1 ILE d   1       2.189 -27.430  -7.799  0.00  0.00    -0.063 C 
ATOM     43  H16 ILE d   1       1.105 -27.590  -7.708  0.00  0.00     0.033 H 
ATOM     44  H17 ILE d   1       2.557 -26.895  -6.911  0.00  0.00     0.033 H 
BRANCH  42  45
ATOM     45  CD1 ILE d   1       2.868 -28.780  -7.860  0.00  0.00    -0.076 C 
ATOM     46  H21 ILE d   1       2.638 -29.348  -6.946  0.00  0.00     0.027 H 
ATOM     47  H22 ILE d   1       3.956 -28.640  -7.941  0.00  0.00     0.027 H 
ATOM     48  H23 ILE d   1       2.504 -29.334  -8.738  0.00  0.00     0.027 H 
ENDBRANCH  42  45
ENDBRANCH  40  42
BRANCH  40  49
ATOM     49  CG2 ILE d   1       3.891 -26.078  -9.050  0.00  0.00    -0.071 C 
ATOM     50  H18 ILE d   1       4.057 -25.454  -9.941  0.00  0.00     0.028 H 
ATOM     51  H19 ILE d   1       4.566 -26.946  -9.079  0.00  0.00     0.028 H 
ATOM     52  H20 ILE d   1       4.093 -25.486  -8.145  0.00  0.00     0.028 H 
ENDBRANCH  40  49
ENDBRANCH   7  40
ENDBRANCH   4   7
ENDBRANCH   1   3
BRANCH   1  53
ATOM     53  C   PTR d   1       3.380 -22.040 -11.705  0.00  0.00     0.241 C 
ATOM     54  O   PTR d   1       4.107 -21.858 -10.729  0.00  0.00    -0.271 OA
ATOM     55  N   TYR d   1       3.785 -21.844 -12.956  0.00  0.00    -0.346 N 
ATOM     56  H32 TYR d   1       3.146 -22.010 -13.707  0.00  0.00     0.163 HD
BRANCH  55  57
ATOM     57  CA  TYR d   1       5.138 -21.393 -13.261  0.00  0.00     0.093 C 
ATOM     58  H33 TYR d   1       5.308 -20.433 -12.752  0.00  0.00     0.088 H 
BRANCH  57  59
ATOM     59  C   TYR d   1       5.315 -21.184 -14.761  0.00  0.00     0.241 C 
ATOM     60  O   TYR d   1       4.637 -21.819 -15.570  0.00  0.00    -0.271 OA
ATOM     61  N   LEU d   1       6.229 -20.292 -15.126  0.00  0.00    -0.346 N 
ATOM     62  H41 LEU d   1       6.748 -19.809 -14.421  0.00  0.00     0.163 HD
BRANCH  61  63
ATOM     63  CA  LEU d   1       6.495 -20.000 -16.530  0.00  0.00     0.089 C 
ATOM     64  H42 LEU d   1       6.170 -20.861 -17.133  0.00  0.00     0.087 H 
BRANCH  63  65
ATOM     65  C   LEU d   1       7.985 -19.778 -16.767  0.00  0.00     0.241 C 
ATOM     66  O   LEU d   1       8.590 -18.880 -16.181  0.00  0.00    -0.271 OA
ATOM     67  N   ASP d   1       8.570 -20.601 -17.629  0.00  0.00    -0.344 N 
ATOM     68  H52 ASP d   1       8.024 -21.311 -18.073  0.00  0.00     0.163 HD
BRANCH  67  69
ATOM     69  CA  ASP d   1       9.991 -20.495 -17.945  0.00  0.00     0.105 C 
ATOM     70  H53 ASP d   1      10.496 -19.983 -17.113  0.00  0.00     0.090 H 
BRANCH  69  71
ATOM     71  C   ASP d   1      10.206 -19.682 -19.216  0.00  0.00     0.197 C 
ATOM     72  O   ASP d   1       9.223 -19.472 -19.958  0.00  0.00    -0.646 OA
ATOM     73  OXT ASP d   1      11.357 -19.260 -19.460  0.00  0.00    -0.646 OA
ENDBRANCH  69  71
BRANCH  69  74
ATOM     74  CB  ASP d   1      10.604 -21.886 -18.106  0.00  0.00     0.044 C 
ATOM     75  H54 ASP d   1      11.519 -21.801 -18.711  0.00  0.00     0.053 H 
ATOM     76  H55 ASP d   1       9.881 -22.533 -18.624  0.00  0.00     0.053 H 
BRANCH  74  77
ATOM     77  CG  ASP d   1      10.958 -22.521 -16.774  0.00  0.00     0.175 C 
ATOM     78  OD1 ASP d   1      10.598 -23.698 -16.562  0.00  0.00    -0.648 OA
ATOM     79  OD2 ASP d   1      11.595 -21.839 -15.944  0.00  0.00    -0.648 OA
ENDBRANCH  74  77
ENDBRANCH  69  74
ENDBRANCH  67  69
ENDBRANCH  63  65
BRANCH  63  80
ATOM     80  CB  LEU d   1       5.705 -18.766 -16.973  0.00  0.00    -0.035 C 
ATOM     81  H43 LEU d   1       6.159 -18.385 -17.899  0.00  0.00     0.037 H 
ATOM     82  H44 LEU d   1       5.789 -18.005 -16.183  0.00  0.00     0.037 H 
BRANCH  80  83
ATOM     83  CG  LEU d   1       4.219 -19.011 -17.239  0.00  0.00    -0.059 C 
ATOM     84  H45 LEU d   1       3.795 -19.541 -16.374  0.00  0.00     0.038 H 
BRANCH  83  85
ATOM     85  CD1 LEU d   1       3.482 -17.691 -17.401  0.00  0.00    -0.073 C 
ATOM     86  H46 LEU d   1       2.417 -17.887 -17.591  0.00  0.00     0.028 H 
ATOM     87  H47 LEU d   1       3.909 -17.134 -18.248  0.00  0.00     0.028 H 
ATOM     88  H48 LEU d   1       3.587 -17.097 -16.481  0.00  0.00     0.028 H 
ENDBRANCH  83  85
BRANCH  83  89
ATOM     89  CD2 LEU d   1       4.034 -19.881 -18.473  0.00  0.00    -0.073 C 
ATOM     90  H49 LEU d   1       4.574 -20.830 -18.337  0.00  0.00     0.028 H 
ATOM     91  H50 LEU d   1       4.431 -19.356 -19.354  0.00  0.00     0.028 H 
ATOM     92  H51 LEU d   1       2.963 -20.086 -18.620  0.00  0.00     0.028 H 
ENDBRANCH  83  89
ENDBRANCH  80  83
ENDBRANCH  63  80
ENDBRANCH  61  63
ENDBRANCH  57  59
BRANCH  57  93
ATOM     93  CB  TYR d   1       6.165 -22.405 -12.750  0.00  0.00    -0.014 C 
ATOM     94  H34 TYR d   1       6.261 -22.283 -11.661  0.00  0.00     0.043 H 
ATOM     95  H35 TYR d   1       7.132 -22.191 -13.229  0.00  0.00     0.043 H 
BRANCH  93  96
ATOM     96  CG  TYR d   1       5.797 -23.843 -13.039  0.00  0.00    -0.056 A 
ATOM     97  CD1 TYR d   1       5.402 -24.697 -12.017  0.00  0.00    -0.074 A 
ATOM     98  CE1 TYR d   1       5.065 -26.013 -12.276  0.00  0.00    -0.051 A 
ATOM     99  H36 TYR d   1       5.357 -24.326 -11.000  0.00  0.00     0.084 H 
ATOM    100  CZ  TYR d   1       5.120 -26.488 -13.569  0.00  0.00     0.065 A 
ATOM    101  H38 TYR d   1       4.760 -26.667 -11.467  0.00  0.00     0.087 H 
ATOM    102  CE2 TYR d   1       5.509 -25.659 -14.601  0.00  0.00    -0.051 A 
ATOM    103  CD2 TYR d   1       5.845 -24.346 -14.333  0.00  0.00    -0.074 A 
ATOM    104  H39 TYR d   1       5.551 -26.036 -15.617  0.00  0.00     0.087 H 
ATOM    105  H37 TYR d   1       6.151 -23.698 -15.146  0.00  0.00     0.084 H 
BRANCH 100 106
ATOM    106  OH  TYR d   1       4.785 -27.797 -13.832  0.00  0.00    -0.361 OA
ATOM    107  H40 TYR d   1       4.542 -28.229 -13.022  0.00  0.00     0.217 HD
ENDBRANCH 100 106
ENDBRANCH  93  96
ENDBRANCH  57  93
ENDBRANCH  55  57
ENDBRANCH   1  53
BRANCH   1 108
ATOM    108  CB  PTR d   1       1.000 -21.307 -11.475  0.00  0.00    -0.014 C 
ATOM    109  H26 PTR d   1       1.335 -20.570 -12.220  0.00  0.00     0.043 H 
ATOM    110  H27 PTR d   1       1.060 -20.866 -10.469  0.00  0.00     0.043 H 
BRANCH 108 111
ATOM    111  CG  PTR d   1      -0.445 -21.651 -11.760  0.00  0.00    -0.056 A 
ATOM    112  CD1 PTR d   1      -1.439 -21.383 -10.827  0.00  0.00    -0.074 A 
ATOM    113  CE1 PTR d   1      -2.760 -21.699 -11.083  0.00  0.00    -0.050 A 
ATOM    114  H28 PTR d   1      -1.174 -20.919  -9.884  0.00  0.00     0.084 H 
ATOM    115  CZ  PTR d   1      -3.100 -22.289 -12.282  0.00  0.00     0.082 A 
ATOM    116  H30 PTR d   1      -3.525 -21.484 -10.345  0.00  0.00     0.087 H 
ATOM    117  CE2 PTR d   1      -2.132 -22.564 -13.223  0.00  0.00    -0.050 A 
ATOM    118  CD2 PTR d   1      -0.813 -22.246 -12.960  0.00  0.00    -0.074 A 
ATOM    119  H31 PTR d   1      -2.404 -23.027 -14.165  0.00  0.00     0.087 H 
ATOM    120  H29 PTR d   1      -0.053 -22.464 -13.702  0.00  0.00     0.084 H 
BRANCH 115 121
ATOM    121  OH  PTR d   1      -4.438 -22.610 -12.544  0.00  0.00    -0.240 OA
BRANCH 121 122
ATOM    122  P   PTR d   1      -5.034 -23.880 -11.860  0.00  0.00     0.427 P 
ATOM    123  O1P PTR d   1      -4.230 -25.064 -12.460  0.00  0.00    -0.617 OA
ATOM    124  O2P PTR d   1      -4.667 -23.727 -10.362  0.00  0.00    -0.617 OA
ATOM    125  O3P PTR d   1      -6.511 -24.016 -12.082  0.00  0.00    -0.617 OA
ENDBRANCH 121 122
ENDBRANCH 115 121
ENDBRANCH 108 111
ENDBRANCH   1 108
TORSDOF 36
