REMARK WARNING: 32 MAX_TORS EXCEEDED!!!
REMARK  62 active torsions:
REMARK  status: ('A' for Active; 'I' for Inactive)
REMARK    1  A    between atoms: CA_2  and  N_1 
REMARK    2  A    between atoms: C_3  and  CA_2 
REMARK    3  A    between atoms: CA_2  and  CB_5 
REMARK       I    between atoms: N_7  and  C_3 
REMARK    4  A    between atoms: CB_5  and  OG_6 
REMARK    5  A    between atoms: CA_8  and  N_7 
REMARK    6  A    between atoms: C_9  and  CA_8 
REMARK    7  A    between atoms: CA_8  and  CB_11 
REMARK       I    between atoms: N_15  and  C_9 
REMARK    8  A    between atoms: CB_11  and  CG_12 
REMARK    9  A    between atoms: CG_12  and  CD1_13 
REMARK   10  A    between atoms: CG_12  and  CD2_14 
REMARK   11  A    between atoms: CA_16  and  N_15 
REMARK   12  A    between atoms: C_17  and  CA_16 
REMARK   13  A    between atoms: CA_16  and  CB_19 
REMARK       I    between atoms: N_24  and  C_17 
REMARK   14  A    between atoms: CB_19  and  CG_20 
REMARK   15  A    between atoms: CG_20  and  CD_21 
REMARK   16  A    between atoms: CA_25  and  N_24 
REMARK   17  A    between atoms: C_26  and  CA_25 
REMARK   18  A    between atoms: CA_25  and  CB_28 
REMARK       I    between atoms: N_31  and  C_26 
REMARK   19  A    between atoms: CB_28  and  CG1_29 
REMARK   20  A    between atoms: CB_28  and  CG2_30 
REMARK   21  A    between atoms: CA_32  and  N_31 
REMARK   22  A    between atoms: CA_32  and  CB_33 
REMARK   23  A    between atoms: C_40  and  CA_32 
REMARK   24  A    between atoms: CB_33  and  CG2_34 
REMARK   25  A    between atoms: CB_33  and  OG1_35 
REMARK   26  A    between atoms: OG1_35  and  P_36 
REMARK       I    between atoms: N_42  and  C_40 
REMARK   27  A    between atoms: CA_43  and  N_42 
REMARK   28  A    between atoms: C_44  and  CA_43 
REMARK   29  A    between atoms: CA_43  and  CB_46 
REMARK       I    between atoms: N_51  and  C_44 
REMARK   30  A    between atoms: CB_46  and  CG_47 
REMARK   31  A    between atoms: CG_47  and  CD_48 
REMARK   32  A    between atoms: CA_52  and  N_51 
REMARK   33  A    between atoms: C_53  and  CA_52 
REMARK   34  A    between atoms: CA_52  and  CB_55 
REMARK       I    between atoms: N_56  and  C_53 
REMARK   35  A    between atoms: CA_57  and  N_56 
REMARK   36  A    between atoms: C_58  and  CA_57 
REMARK   37  A    between atoms: CA_57  and  CB_60 
REMARK       I    between atoms: N_64  and  C_58 
REMARK   38  A    between atoms: CB_60  and  CG_61 
REMARK   39  A    between atoms: CA_65  and  N_64 
REMARK   40  A    between atoms: C_66  and  CA_65 
REMARK   41  A    between atoms: CA_65  and  CB_68 
REMARK       I    between atoms: N_69  and  C_66 
REMARK   42  A    between atoms: CA_70  and  N_69 
REMARK   43  A    between atoms: C_71  and  CA_70 
REMARK   44  A    between atoms: CA_70  and  CB_73 
REMARK       I    between atoms: N_76  and  C_71 
REMARK   45  A    between atoms: CB_73  and  OG1_74 
REMARK   46  A    between atoms: CB_73  and  CG2_75 
REMARK   47  A    between atoms: CA_77  and  N_76 
REMARK   48  A    between atoms: CA_77  and  C_78 
REMARK   49  A    between atoms: CB_80  and  CA_77 
REMARK       I    between atoms: C_78  and  N_84 
REMARK   50  A    between atoms: CG_81  and  CB_80 
REMARK   51  A    between atoms: CG_81  and  CD1_82 
REMARK   52  A    between atoms: CG_81  and  CD2_83 
REMARK   53  A    between atoms: N_84  and  CA_85 
REMARK   54  A    between atoms: CA_85  and  C_86 
REMARK   55  A    between atoms: CA_85  and  CB_88 
REMARK       I    between atoms: C_86  and  N_91 
REMARK   56  A    between atoms: CB_88  and  CG1_89 
REMARK   57  A    between atoms: CB_88  and  CG2_90 
REMARK   58  A    between atoms: N_91  and  CA_92 
REMARK   59  A    between atoms: CA_92  and  C_93 
REMARK   60  A    between atoms: CA_92  and  CB_95 
REMARK   61  A    between atoms: CB_95  and  CG_96 
REMARK   62  A    between atoms: CG_96  and  CD_97 
REMARK       I    between atoms: CD_97  and  NE2_99 
ROOT
ATOM      1  C   GLU d   1      -2.873 -19.665 -24.355  0.00  0.00     0.241 C 
ATOM      2  O   GLU d   1      -2.383 -18.827 -25.112  0.00  0.00    -0.271 OA
ATOM      3  N   ALA d   1      -2.140 -20.426 -23.548  0.00  0.00    -0.346 N 
ATOM      4  H46 ALA d   1      -2.598 -21.089 -22.956  0.00  0.00     0.163 HD
ENDROOT
BRANCH   3   5
ATOM      5  CA  ALA d   1      -0.687 -20.319 -23.504  0.00  0.00     0.086 C 
ATOM      6  H47 ALA d   1      -0.377 -19.532 -24.208  0.00  0.00     0.086 H 
BRANCH   5   7
ATOM      7  C   ALA d   1      -0.027 -21.627 -23.928  0.00  0.00     0.240 C 
ATOM      8  O   ALA d   1      -0.423 -22.706 -23.486  0.00  0.00    -0.271 OA
ATOM      9  N   ASP d   1       0.981 -21.524 -24.789  0.00  0.00    -0.346 N 
ATOM     10  H51 ASP d   1       1.255 -20.619 -25.113  0.00  0.00     0.163 HD
BRANCH   9  11
ATOM     11  CA  ASP d   1       1.696 -22.699 -25.272  0.00  0.00     0.098 C 
ATOM     12  H52 ASP d   1       0.973 -23.372 -25.757  0.00  0.00     0.088 H 
BRANCH  11  13
ATOM     13  C   ASP d   1       2.357 -23.447 -24.119  0.00  0.00     0.241 C 
ATOM     14  O   ASP d   1       2.505 -22.909 -23.021  0.00  0.00    -0.271 OA
ATOM     15  N   ALA d   1       2.750 -24.690 -24.374  0.00  0.00    -0.346 N 
ATOM     16  H55 ALA d   1       2.600 -25.072 -25.286  0.00  0.00     0.163 HD
BRANCH  15  17
ATOM     17  CA  ALA d   1       3.395 -25.512 -23.357  0.00  0.00     0.086 C 
ATOM     18  H56 ALA d   1       3.637 -24.870 -22.497  0.00  0.00     0.086 H 
BRANCH  17  19
ATOM     19  C   ALA d   1       4.693 -26.118 -23.881  0.00  0.00     0.240 C 
ATOM     20  O   ALA d   1       4.937 -27.315 -23.735  0.00  0.00    -0.271 OA
ATOM     21  N   THR d   1       5.524 -25.279 -24.494  0.00  0.00    -0.344 N 
ATOM     22  H60 THR d   1       5.269 -24.316 -24.582  0.00  0.00     0.163 HD
BRANCH  21  23
ATOM     23  CA  THR d   1       6.799 -25.730 -25.041  0.00  0.00     0.113 C 
ATOM     24  H61 THR d   1       6.790 -26.829 -25.084  0.00  0.00     0.091 H 
BRANCH  23  25
ATOM     25  C   THR d   1       7.958 -25.289 -24.152  0.00  0.00     0.243 C 
ATOM     26  O   THR d   1       8.955 -24.751 -24.635  0.00  0.00    -0.271 OA
ATOM     27  N   PHE d   1       7.821 -25.530 -22.848  0.00  0.00    -0.346 N 
ATOM     28  H67 PHE d   1       6.984 -25.973 -22.525  0.00  0.00     0.163 HD
BRANCH  27  29
ATOM     29  CA  PHE d   1       8.845 -25.172 -21.877  0.00  0.00     0.089 C 
ATOM     30  H68 PHE d   1       8.374 -25.129 -20.884  0.00  0.00     0.087 H 
BRANCH  29  31
ATOM     31  C   PHE d   1       9.449 -23.798 -22.169  0.00  0.00     0.241 C 
ATOM     32  O   PHE d   1      10.664 -23.613 -22.103  0.00  0.00    -0.271 OA
ATOM     33  N   VAL d   1       8.583 -22.839 -22.487  0.00  0.00    -0.346 N 
ATOM     34  H78 VAL d   1       7.609 -23.061 -22.521  0.00  0.00     0.163 HD
BRANCH  33  35
ATOM     35  CA  VAL d   1       9.005 -21.471 -22.789  0.00  0.00     0.092 C 
ATOM     36  H79 VAL d   1       8.197 -20.990 -23.359  0.00  0.00     0.088 H 
BRANCH  35  37
ATOM     37  C   VAL d   1      10.273 -21.443 -23.641  0.00  0.00     0.241 C 
ATOM     38  O   VAL d   1      11.365 -21.177 -23.139  0.00  0.00    -0.271 OA
ATOM     39  N   GLN d   1      10.118 -21.721 -24.931  0.00  0.00    -0.345 N 
ATOM     40  H87 GLN d   1       9.204 -21.930 -25.279  0.00  0.00     0.163 HD
BRANCH  39  41
ATOM     41  CA  GLN d   1      11.249 -21.728 -25.853  0.00  0.00     0.096 C 
ATOM     42  H88 GLN d   1      12.110 -22.187 -25.345  0.00  0.00     0.089 H 
BRANCH  41  43
ATOM     43  C   GLN d   1      11.627 -20.308 -26.260  0.00  0.00     0.196 C 
ATOM     44  O   GLN d   1      10.725 -19.554 -26.681  0.00  0.00    -0.646 OA
ATOM     45  OXT GLN d   1      12.822 -19.962 -26.155  0.00  0.00    -0.646 OA
ENDBRANCH  41  43
BRANCH  41  46
ATOM     46  CB  GLN d   1      10.916 -22.557 -27.095  0.00  0.00    -0.029 C 
ATOM     47  H89 GLN d   1      11.559 -22.219 -27.921  0.00  0.00     0.037 H 
ATOM     48  H90 GLN d   1       9.862 -22.384 -27.356  0.00  0.00     0.037 H 
BRANCH  46  49
ATOM     49  CG  GLN d   1      11.125 -24.050 -26.903  0.00  0.00     0.011 C 
ATOM     50  H91 GLN d   1      10.725 -24.338 -25.920  0.00  0.00     0.047 H 
ATOM     51  H92 GLN d   1      12.204 -24.262 -26.936  0.00  0.00     0.047 H 
BRANCH  49  52
ATOM     52  CD  GLN d   1      10.434 -24.877 -27.970  0.00  0.00     0.215 C 
ATOM     53  OE1 GLN d   1       9.979 -24.347 -28.984  0.00  0.00    -0.274 OA
ATOM     54  NE2 GLN d   1      10.350 -26.182 -27.745  0.00  0.00    -0.370 N 
ATOM     55  H93 GLN d   1       9.905 -26.777 -28.414  0.00  0.00     0.159 HD
ATOM     56  H94 GLN d   1      10.732 -26.570 -26.906  0.00  0.00     0.159 HD
ENDBRANCH  49  52
ENDBRANCH  46  49
ENDBRANCH  41  46
ENDBRANCH  39  41
ENDBRANCH  35  37
BRANCH  35  57
ATOM     57  CB  VAL d   1       9.243 -20.651 -21.503  0.00  0.00    -0.033 C 
ATOM     58  H80 VAL d   1       9.772 -19.727 -21.777  0.00  0.00     0.042 H 
BRANCH  57  59
ATOM     59  CG1 VAL d   1       7.918 -20.269 -20.862  0.00  0.00    -0.071 C 
ATOM     60  H81 VAL d   1       8.107 -19.686 -19.948  0.00  0.00     0.028 H 
ATOM     61  H82 VAL d   1       7.358 -21.181 -20.606  0.00  0.00     0.028 H 
ATOM     62  H83 VAL d   1       7.330 -19.664 -21.568  0.00  0.00     0.028 H 
ENDBRANCH  57  59
BRANCH  57  63
ATOM     63  CG2 VAL d   1      10.113 -21.423 -20.522  0.00  0.00    -0.071 C 
ATOM     64  H84 VAL d   1      11.064 -21.689 -21.006  0.00  0.00     0.028 H 
ATOM     65  H85 VAL d   1       9.591 -22.340 -20.212  0.00  0.00     0.028 H 
ATOM     66  H86 VAL d   1      10.313 -20.798 -19.639  0.00  0.00     0.028 H 
ENDBRANCH  57  63
ENDBRANCH  35  57
ENDBRANCH  33  35
ENDBRANCH  29  31
BRANCH  29  67
ATOM     67  CB  PHE d   1       9.928 -26.251 -21.848  0.00  0.00    -0.035 C 
ATOM     68  H69 PHE d   1       9.438 -27.233 -21.927  0.00  0.00     0.037 H 
ATOM     69  H70 PHE d   1      10.457 -26.182 -20.886  0.00  0.00     0.037 H 
BRANCH  67  70
ATOM     70  CG  PHE d   1      10.969 -26.137 -22.982  0.00  0.00    -0.059 A 
ATOM     71  H71 PHE d   1      10.420 -25.616 -23.780  0.00  0.00     0.038 H 
BRANCH  70  72
ATOM     72  CD1 PHE d   1      12.356 -25.819 -22.988  0.00  0.00    -0.073 A 
ATOM     73  H72 PHE d   1      12.734 -25.846 -24.021  0.00  0.00     0.028 H 
ATOM     74  H73 PHE d   1      12.903 -26.553 -22.378  0.00  0.00     0.028 H 
ATOM     75  H74 PHE d   1      12.503 -24.812 -22.570  0.00  0.00     0.028 H 
ENDBRANCH  70  72
BRANCH  70  76
ATOM     76  CD2 PHE d   1      11.725 -27.211 -23.402  0.00  0.00    -0.073 A 
ATOM     77  H75 PHE d   1      12.393 -26.893 -24.216  0.00  0.00     0.028 H 
ATOM     78  H76 PHE d   1      11.060 -28.008 -23.765  0.00  0.00     0.028 H 
ATOM     79  H77 PHE d   1      12.325 -27.588 -22.561  0.00  0.00     0.028 H 
ENDBRANCH  70  76
ENDBRANCH  67  70
ENDBRANCH  29  67
ENDBRANCH  27  29
ENDBRANCH  23  25
BRANCH  23  80
ATOM     80  CB  THR d   1       6.989 -25.188 -26.459  0.00  0.00     0.060 C 
ATOM     81  H62 THR d   1       7.893 -25.653 -26.878  0.00  0.00     0.086 H 
BRANCH  80  82
ATOM     82  OG1 THR d   1       7.164 -23.783 -26.438  0.00  0.00    -0.393 OA
ATOM     83  H63 THR d   1       7.931 -23.568 -25.921  0.00  0.00     0.210 HD
ENDBRANCH  80  82
BRANCH  80  84
ATOM     84  CG2 THR d   1       5.827 -25.493 -27.377  0.00  0.00    -0.050 C 
ATOM     85  H64 THR d   1       6.029 -25.077 -28.375  0.00  0.00     0.031 H 
ATOM     86  H65 THR d   1       4.910 -25.042 -26.970  0.00  0.00     0.031 H 
ATOM     87  H66 THR d   1       5.697 -26.582 -27.454  0.00  0.00     0.031 H 
ENDBRANCH  80  84
ENDBRANCH  23  80
ENDBRANCH  21  23
ENDBRANCH  17  19
BRANCH  17  88
ATOM     88  CB  ALA d   1       2.450 -26.607 -22.887  0.00  0.00    -0.049 C 
ATOM     89  H57 ALA d   1       2.949 -27.218 -22.121  0.00  0.00     0.030 H 
ATOM     90  H58 ALA d   1       2.173 -27.243 -23.740  0.00  0.00     0.030 H 
ATOM     91  H59 ALA d   1       1.545 -26.151 -22.460  0.00  0.00     0.030 H 
ENDBRANCH  17  88
ENDBRANCH  15  17
ENDBRANCH  11  13
BRANCH  11  92
ATOM     92  CB  ASP d   1       2.752 -22.291 -26.301  0.00  0.00     0.043 C 
ATOM     93  H53 ASP d   1       3.356 -23.174 -26.557  0.00  0.00     0.052 H 
ATOM     94  H54 ASP d   1       3.399 -21.521 -25.857  0.00  0.00     0.052 H 
BRANCH  92  95
ATOM     95  CG  ASP d   1       2.138 -21.737 -27.571  0.00  0.00     0.175 C 
ATOM     96  OD1 ASP d   1       2.852 -21.037 -28.320  0.00  0.00    -0.648 OA
ATOM     97  OD2 ASP d   1       0.943 -22.004 -27.819  0.00  0.00    -0.648 OA
ENDBRANCH  92  95
ENDBRANCH  11  92
ENDBRANCH   9  11
ENDBRANCH   5   7
BRANCH   5  98
ATOM     98  CB  ALA d   1      -0.229 -19.923 -22.108  0.00  0.00    -0.049 C 
ATOM     99  H48 ALA d   1       0.868 -19.846 -22.090  0.00  0.00     0.030 H 
ATOM    100  H49 ALA d   1      -0.555 -20.685 -21.385  0.00  0.00     0.030 H 
ATOM    101  H50 ALA d   1      -0.669 -18.951 -21.840  0.00  0.00     0.030 H 
ENDBRANCH   5  98
ENDBRANCH   3   5
BRANCH   1 102
ATOM    102  CA  GLU d   1      -4.382 -19.880 -24.300  0.00  0.00     0.090 C 
ATOM    103  H41 GLU d   1      -4.580 -20.833 -23.787  0.00  0.00     0.087 H 
BRANCH 102 104
ATOM    104  N   GLU d   1      -5.038 -18.810 -23.554  0.00  0.00    -0.346 N 
ATOM    105  C   TPO d   1      -4.682 -18.507 -22.310  0.00  0.00     0.243 C 
ATOM    106  O   TPO d   1      -3.788 -19.098 -21.705  0.00  0.00    -0.271 OA
ATOM    107  H40 GLU d   1      -5.774 -18.292 -23.990  0.00  0.00     0.163 HD
BRANCH 105 108
ATOM    108  CA  TPO d   1      -5.454 -17.369 -21.647  0.00  0.00     0.114 C 
ATOM    109  H35 TPO d   1      -6.240 -17.029 -22.337  0.00  0.00     0.091 H 
BRANCH 108 110
ATOM    110  N   TPO d   1      -6.093 -17.826 -20.419  0.00  0.00    -0.344 N 
ATOM    111  C   VAL d   1      -6.984 -18.812 -20.424  0.00  0.00     0.241 C 
ATOM    112  O   VAL d   1      -7.327 -19.400 -21.448  0.00  0.00    -0.271 OA
ATOM    113  H34 TPO d   1      -5.855 -17.387 -19.552  0.00  0.00     0.163 HD
BRANCH 111 114
ATOM    114  CA  VAL d   1      -7.573 -19.190 -19.069  0.00  0.00     0.092 C 
ATOM    115  H26 VAL d   1      -7.267 -18.434 -18.330  0.00  0.00     0.088 H 
BRANCH 114 116
ATOM    116  N   VAL d   1      -9.030 -19.213 -19.118  0.00  0.00    -0.346 N 
ATOM    117  C   GLU d   1      -9.733 -18.145 -19.481  0.00  0.00     0.241 C 
ATOM    118  O   GLU d   1      -9.211 -17.076 -19.798  0.00  0.00    -0.271 OA
ATOM    119  H25 VAL d   1      -9.513 -20.054 -18.872  0.00  0.00     0.163 HD
BRANCH 117 120
ATOM    120  CA  GLU d   1     -11.249 -18.307 -19.489  0.00  0.00     0.090 C 
ATOM    121  H20 GLU d   1     -11.539 -18.836 -20.409  0.00  0.00     0.087 H 
BRANCH 120 122
ATOM    122  N   GLU d   1     -11.694 -19.094 -18.344  0.00  0.00    -0.346 N 
ATOM    123  C   LEU d   1     -12.829 -19.784 -18.371  0.00  0.00     0.241 C 
ATOM    124  O   LEU d   1     -13.576 -19.800 -19.351  0.00  0.00    -0.271 OA
ATOM    125  H19 GLU d   1     -11.131 -19.115 -17.518  0.00  0.00     0.163 HD
BRANCH 123 126
ATOM    126  CA  LEU d   1     -13.182 -20.561 -17.102  0.00  0.00     0.089 C 
ATOM    127  H9  LEU d   1     -13.409 -19.831 -16.311  0.00  0.00     0.087 H 
BRANCH 126 128
ATOM    128  N   LEU d   1     -14.369 -21.397 -17.292  0.00  0.00    -0.346 N 
ATOM    129  C   SER d   1     -14.551 -22.142 -18.382  0.00  0.00     0.251 C 
ATOM    130  O   SER d   1     -13.742 -22.190 -19.308  0.00  0.00    -0.271 OA
ATOM    131  H8  LEU d   1     -15.069 -21.409 -16.578  0.00  0.00     0.163 HD
BRANCH 129 132
ATOM    132  CA  SER d   1     -15.838 -22.957 -18.431  0.00  0.00     0.195 C 
ATOM    133  H4  SER d   1     -15.978 -23.332 -19.455  0.00  0.00     0.102 H 
BRANCH 132 134
ATOM    134  N   SER d   1     -15.780 -24.112 -17.497  0.00  0.00    -0.064 N 
ATOM    135  H1  SER d   1     -16.642 -24.631 -17.551  0.00  0.00     0.275 HD
ATOM    136  H2  SER d   1     -15.648 -23.777 -16.556  0.00  0.00     0.275 HD
ATOM    137  H3  SER d   1     -15.011 -24.711 -17.751  0.00  0.00     0.275 HD
ENDBRANCH 132 134
BRANCH 132 138
ATOM    138  CB  SER d   1     -17.032 -22.081 -18.050  0.00  0.00     0.051 C 
ATOM    139  H5  SER d   1     -16.801 -21.034 -18.294  0.00  0.00     0.077 H 
ATOM    140  H6  SER d   1     -17.215 -22.174 -16.969  0.00  0.00     0.077 H 
BRANCH 138 141
ATOM    141  OG  SER d   1     -18.200 -22.473 -18.752  0.00  0.00    -0.398 OA
ATOM    142  H7  SER d   1     -18.924 -21.914 -18.497  0.00  0.00     0.209 HD
ENDBRANCH 138 141
ENDBRANCH 132 138
ENDBRANCH 129 132
ENDBRANCH 126 128
BRANCH 126 143
ATOM    143  CB  LEU d   1     -11.983 -21.407 -16.639  0.00  0.00    -0.035 C 
ATOM    144  H10 LEU d   1     -12.155 -21.688 -15.590  0.00  0.00     0.037 H 
ATOM    145  H11 LEU d   1     -11.082 -20.779 -16.707  0.00  0.00     0.037 H 
BRANCH 143 146
ATOM    146  CG  LEU d   1     -11.718 -22.693 -17.431  0.00  0.00    -0.059 C 
ATOM    147  H12 LEU d   1     -12.681 -23.187 -17.625  0.00  0.00     0.038 H 
BRANCH 146 148
ATOM    148  CD1 LEU d   1     -11.060 -22.382 -18.768  0.00  0.00    -0.073 C 
ATOM    149  H13 LEU d   1     -10.881 -23.319 -19.315  0.00  0.00     0.028 H 
ATOM    150  H14 LEU d   1     -10.102 -21.870 -18.595  0.00  0.00     0.028 H 
ATOM    151  H15 LEU d   1     -11.722 -21.732 -19.360  0.00  0.00     0.028 H 
ENDBRANCH 146 148
BRANCH 146 152
ATOM    152  CD2 LEU d   1     -10.845 -23.638 -16.617  0.00  0.00    -0.073 C 
ATOM    153  H16 LEU d   1     -11.334 -23.852 -15.655  0.00  0.00     0.028 H 
ATOM    154  H17 LEU d   1      -9.867 -23.168 -16.434  0.00  0.00     0.028 H 
ATOM    155  H18 LEU d   1     -10.703 -24.576 -17.173  0.00  0.00     0.028 H 
ENDBRANCH 146 152
ENDBRANCH 143 146
ENDBRANCH 126 143
ENDBRANCH 123 126
ENDBRANCH 120 122
BRANCH 120 156
ATOM    156  CB  GLU d   1     -11.922 -16.934 -19.483  0.00  0.00    -0.029 C 
ATOM    157  H21 GLU d   1     -11.394 -16.291 -18.764  0.00  0.00     0.037 H 
ATOM    158  H22 GLU d   1     -12.967 -17.060 -19.163  0.00  0.00     0.037 H 
BRANCH 156 159
ATOM    159  CG  GLU d   1     -11.914 -16.246 -20.839  0.00  0.00     0.018 C 
ATOM    160  H23 GLU d   1     -10.917 -16.365 -21.289  0.00  0.00     0.049 H 
ATOM    161  H24 GLU d   1     -12.125 -15.176 -20.693  0.00  0.00     0.049 H 
BRANCH 159 162
ATOM    162  CD  GLU d   1     -12.947 -16.819 -21.789  0.00  0.00     0.172 C 
ATOM    163  OE1 GLU d   1     -12.559 -17.583 -22.697  0.00  0.00    -0.648 OA
ATOM    164  OE2 GLU d   1     -14.145 -16.503 -21.625  0.00  0.00    -0.648 OA
ENDBRANCH 159 162
ENDBRANCH 156 159
ENDBRANCH 120 156
ENDBRANCH 117 120
ENDBRANCH 114 116
BRANCH 114 165
ATOM    165  CB  VAL d   1      -7.003 -20.554 -18.639  0.00  0.00    -0.033 C 
ATOM    166  H27 VAL d   1      -7.178 -21.274 -19.452  0.00  0.00     0.042 H 
BRANCH 165 167
ATOM    167  CG1 VAL d   1      -5.503 -20.455 -18.403  0.00  0.00    -0.071 C 
ATOM    168  H28 VAL d   1      -5.114 -21.438 -18.097  0.00  0.00     0.028 H 
ATOM    169  H29 VAL d   1      -5.304 -19.719 -17.610  0.00  0.00     0.028 H 
ATOM    170  H30 VAL d   1      -5.006 -20.137 -19.331  0.00  0.00     0.028 H 
ENDBRANCH 165 167
BRANCH 165 171
ATOM    171  CG2 VAL d   1      -7.714 -21.060 -17.393  0.00  0.00    -0.071 C 
ATOM    172  H31 VAL d   1      -8.795 -21.123 -17.588  0.00  0.00     0.028 H 
ATOM    173  H32 VAL d   1      -7.532 -20.366 -16.559  0.00  0.00     0.028 H 
ATOM    174  H33 VAL d   1      -7.330 -22.057 -17.131  0.00  0.00     0.028 H 
ENDBRANCH 165 171
ENDBRANCH 114 165
ENDBRANCH 111 114
ENDBRANCH 108 110
BRANCH 108 175
ATOM    175  CB  TPO d   1      -4.492 -16.189 -21.381  0.00  0.00     0.076 C 
ATOM    176  H36 TPO d   1      -3.721 -16.517 -20.669  0.00  0.00     0.087 H 
BRANCH 175 177
ATOM    177  CG2 TPO d   1      -3.812 -15.741 -22.668  0.00  0.00    -0.049 C 
ATOM    178  H37 TPO d   1      -3.134 -14.902 -22.452  0.00  0.00     0.031 H 
ATOM    179  H38 TPO d   1      -4.574 -15.419 -23.393  0.00  0.00     0.031 H 
ATOM    180  H39 TPO d   1      -3.236 -16.578 -23.089  0.00  0.00     0.031 H 
ENDBRANCH 175 177
BRANCH 175 181
ATOM    181  OG1 TPO d   1      -5.196 -15.107 -20.825  0.00  0.00    -0.275 OA
BRANCH 181 182
ATOM    182  P   TPO d   1      -5.308 -14.987 -19.267  0.00  0.00     0.422 P 
ATOM    183  O1P TPO d   1      -6.763 -15.419 -18.946  0.00  0.00    -0.617 OA
ATOM    184  O2P TPO d   1      -4.330 -16.049 -18.699  0.00  0.00    -0.617 OA
ATOM    185  O3P TPO d   1      -4.998 -13.607 -18.771  0.00  0.00    -0.617 OA
ENDBRANCH 181 182
ENDBRANCH 175 181
ENDBRANCH 108 175
ENDBRANCH 105 108
ENDBRANCH 102 104
BRANCH 102 186
ATOM    186  CB  GLU d   1      -4.950 -19.962 -25.718  0.00  0.00    -0.029 C 
ATOM    187  H42 GLU d   1      -4.288 -19.397 -26.391  0.00  0.00     0.037 H 
ATOM    188  H43 GLU d   1      -5.951 -19.505 -25.719  0.00  0.00     0.037 H 
BRANCH 186 189
ATOM    189  CG  GLU d   1      -5.070 -21.383 -26.244  0.00  0.00     0.018 C 
ATOM    190  H44 GLU d   1      -5.722 -21.955 -25.568  0.00  0.00     0.049 H 
ATOM    191  H45 GLU d   1      -4.069 -21.838 -26.260  0.00  0.00     0.049 H 
BRANCH 189 192
ATOM    192  CD  GLU d   1      -5.652 -21.439 -27.643  0.00  0.00     0.172 C 
ATOM    193  OE1 GLU d   1      -5.464 -22.468 -28.325  0.00  0.00    -0.648 OA
ATOM    194  OE2 GLU d   1      -6.297 -20.452 -28.058  0.00  0.00    -0.648 OA
ENDBRANCH 189 192
ENDBRANCH 186 189
ENDBRANCH 102 186
ENDBRANCH   1 102
TORSDOF 62
