REMARK  9 active torsions:
REMARK  status: ('A' for Active; 'I' for Inactive)
REMARK    1  A    between atoms: C9_6  and  O2_18 
REMARK    2  A    between atoms: C10_7  and  C11_8 
REMARK    3  A    between atoms: C11_8  and  O4_10 
REMARK    4  A    between atoms: O4_10  and  C12_11 
REMARK    5  A    between atoms: C13_12  and  O5_17 
REMARK    6  A    between atoms: C16_15  and  O6_16 
REMARK    7  A    between atoms: C4_19  and  C18_24 
REMARK    8  A    between atoms: C2_21  and  O1_22 
REMARK    9  A    between atoms: O1_22  and  C17_23 
ROOT
ATOM      1  C1  NCZ d   1       0.683   7.124   1.283  0.00  0.00    -0.039 A 
ATOM      2  C6  NCZ d   1       0.269   6.768  -0.004  0.00  0.00    -0.004 A 
ATOM      3  C5  NCZ d   1      -0.513   5.606  -0.166  0.00  0.00    -0.019 A 
ATOM      4  C7  NCZ d   1      -0.936   5.191  -1.424  0.00  0.00    -0.069 A 
ATOM      5  C8  NCZ d   1      -0.548   5.913  -2.536  0.00  0.00    -0.049 A 
ATOM      6  C9  NCZ d   1       0.238   7.073  -2.405  0.00  0.00     0.082 A 
ATOM      7  C10 NCZ d   1       0.629   7.551  -1.122  0.00  0.00     0.083 A 
ATOM      8  C4  NCZ d   1      -0.870   4.887   0.952  0.00  0.00    -0.048 A 
ATOM      9  C3  NCZ d   1      -0.451   5.286   2.213  0.00  0.00    -0.044 A 
ATOM     10  C2  NCZ d   1       0.332   6.401   2.390  0.00  0.00     0.069 A 
ATOM     11  H1  NCZ d   1       1.304   8.004   1.408  0.00  0.00     0.089 H 
ATOM     12  H2  NCZ d   1      -1.562   4.312  -1.531  0.00  0.00     0.085 H 
ATOM     13  H3  NCZ d   1      -0.853   5.582  -3.522  0.00  0.00     0.087 H 
ATOM     14  H12 NCZ d   1      -0.748   4.705   3.078  0.00  0.00     0.088 H 
ENDROOT
BRANCH   7  15
ATOM     15  C11 NCZ d   1       1.021   8.934  -0.969  0.00  0.00     0.297 C 
ATOM     16  O3  NCZ d   1       1.495   9.548  -1.925  0.00  0.00    -0.259 OA
BRANCH  15  17
ATOM     17  O4  NCZ d   1       0.932   9.684   0.291  0.00  0.00    -0.306 OA
BRANCH  17  18
ATOM     18  C12 NCZ d   1       0.829  11.144   0.232  0.00  0.00     0.104 C 
ATOM     19  C13 NCZ d   1       0.389  11.739   1.574  0.00  0.00     0.080 C 
ATOM     20  C14 NCZ d   1      -0.937  11.940   1.549  0.00  0.00    -0.074 C 
ATOM     21  H5  NCZ d   1       0.644  11.043   2.387  0.00  0.00     0.093 H 
ATOM     22  C15 NCZ d   1      -1.527  11.779   0.196  0.00  0.00    -0.074 C 
ATOM     23  H6  NCZ d   1      -1.522  12.195   2.432  0.00  0.00     0.080 H 
ATOM     24  C16 NCZ d   1      -0.308  11.546  -0.720  0.00  0.00     0.080 C 
ATOM     25  H7  NCZ d   1      -2.578  11.817  -0.085  0.00  0.00     0.080 H 
ATOM     26  H8  NCZ d   1      -0.502  10.745  -1.448  0.00  0.00     0.093 H 
ATOM     27  H4  NCZ d   1       1.791  11.570  -0.090  0.00  0.00     0.093 H 
BRANCH  19  28
ATOM     28  O5  NCZ d   1       1.048  12.988   1.790  0.00  0.00    -0.389 OA
ATOM     29  H10 NCZ d   1       1.988  12.850   1.808  0.00  0.00     0.210 HD
ENDBRANCH  19  28
BRANCH  24  30
ATOM     30  O6  NCZ d   1      -0.026  12.791  -1.419  0.00  0.00    -0.389 OA
ATOM     31  H9  NCZ d   1       0.723  12.669  -1.990  0.00  0.00     0.210 HD
ENDBRANCH  24  30
ENDBRANCH  17  18
ENDBRANCH  15  17
ENDBRANCH   7  15
BRANCH   6  32
ATOM     32  O2  NCZ d   1       0.579   7.747  -3.589  0.00  0.00    -0.360 OA
ATOM     33  H11 NCZ d   1       1.525   7.798  -3.662  0.00  0.00     0.217 HD
ENDBRANCH   6  32
BRANCH  10  34
ATOM     34  O1  NCZ d   1       0.736   6.745   3.670  0.00  0.00    -0.356 OA
BRANCH  34  35
ATOM     35  C17 NCZ d   1       1.176   8.056   4.080  0.00  0.00     0.010 C 
ATOM     36  H13 NCZ d   1       1.435   8.038   5.149  0.00  0.00     0.066 H 
ATOM     37  H14 NCZ d   1       0.369   8.784   3.910  0.00  0.00     0.066 H 
ATOM     38  H15 NCZ d   1       2.060   8.346   3.494  0.00  0.00     0.066 H 
ENDBRANCH  34  35
ENDBRANCH  10  34
BRANCH   8  39
ATOM     39  C18 NCZ d   1      -1.731   3.667   0.874  0.00  0.00    -0.050 C 
ATOM     40  H16 NCZ d   1      -1.988   3.466  -0.176  0.00  0.00     0.033 H 
ATOM     41  H17 NCZ d   1      -2.652   3.831   1.452  0.00  0.00     0.033 H 
ATOM     42  H18 NCZ d   1      -1.186   2.806   1.289  0.00  0.00     0.033 H 
ENDBRANCH   8  39
TORSDOF 9
