REMARK WARNING: 32 MAX_TORS EXCEEDED!!!
REMARK  71 active torsions:
REMARK  status: ('A' for Active; 'I' for Inactive)
REMARK    1  A    between atoms: N_1  and  CA_2 
REMARK    2  A    between atoms: CA_2  and  C_3 
REMARK    3  A    between atoms: CA_2  and  CB_5 
REMARK       I    between atoms: C_3  and  N_10 
REMARK    4  A    between atoms: CB_5  and  CG_6 
REMARK    5  A    between atoms: CG_6  and  CD_7 
REMARK    6  A    between atoms: CD_7  and  CE_8 
REMARK    7  A    between atoms: CE_8  and  NZ_9 
REMARK    8  A    between atoms: N_10  and  CA_11 
REMARK    9  A    between atoms: CA_11  and  C_12 
REMARK   10  A    between atoms: CA_11  and  CB_14 
REMARK       I    between atoms: C_12  and  N_19 
REMARK   11  A    between atoms: CB_14  and  CG_15 
REMARK   12  A    between atoms: CG_15  and  CD_16 
REMARK   13  A    between atoms: N_19  and  CA_20 
REMARK   14  A    between atoms: CA_20  and  C_21 
REMARK   15  A    between atoms: CA_20  and  CB_23 
REMARK       I    between atoms: C_21  and  N_26 
REMARK   16  A    between atoms: CB_23  and  OG1_24 
REMARK   17  A    between atoms: CB_23  and  CG2_25 
REMARK   18  A    between atoms: N_26  and  CA_27 
REMARK   19  A    between atoms: CA_27  and  C_28 
REMARK   20  A    between atoms: CA_27  and  CB_30 
REMARK       I    between atoms: C_28  and  N_31 
REMARK   21  A    between atoms: N_31  and  CA_32 
REMARK   22  A    between atoms: CA_32  and  C_33 
REMARK   23  A    between atoms: CA_32  and  CB_35 
REMARK       I    between atoms: C_33  and  N_36 
REMARK   24  A    between atoms: N_36  and  CA_37 
REMARK   25  A    between atoms: CA_37  and  C_38 
REMARK   26  A    between atoms: CA_37  and  CB_40 
REMARK       I    between atoms: C_38  and  N_41 
REMARK   27  A    between atoms: N_41  and  CA_42 
REMARK   28  A    between atoms: CA_42  and  C_43 
REMARK   29  A    between atoms: CA_42  and  CB_45 
REMARK       I    between atoms: C_43  and  N_50 
REMARK   30  A    between atoms: CB_45  and  CG_46 
REMARK   31  A    between atoms: CG_46  and  CD_47 
REMARK   32  A    between atoms: CD_47  and  CE_48 
REMARK   33  A    between atoms: CE_48  and  NZ_49 
REMARK   34  A    between atoms: N_50  and  CA_51 
REMARK   35  A    between atoms: CA_51  and  C_52 
REMARK   36  A    between atoms: CA_51  and  CB_54 
REMARK       I    between atoms: C_52  and  N_61 
REMARK   37  A    between atoms: CB_54  and  CG_55 
REMARK   38  A    between atoms: N_61  and  CA_62 
REMARK   39  A    between atoms: CA_62  and  C_63 
REMARK   40  A    between atoms: CA_62  and  CB_65 
REMARK       I    between atoms: C_63  and  N_70 
REMARK   41  A    between atoms: CB_65  and  CG_66 
REMARK   42  A    between atoms: CG_66  and  CD_67 
REMARK   43  A    between atoms: N_70  and  CA_71 
REMARK   44  A    between atoms: CA_71  and  C_72 
REMARK   45  A    between atoms: CA_71  and  CB_74 
REMARK       I    between atoms: C_72  and  N_81 
REMARK   46  A    between atoms: CB_74  and  CG_75 
REMARK   47  A    between atoms: CG_75  and  CD_76 
REMARK   48  A    between atoms: CD_76  and  NE_77 
REMARK       I    between atoms: NE_77  and  CZ_78 
REMARK       I    between atoms: CZ_78  and  NH1_79 
REMARK   49  A    between atoms: N_81  and  CA_82 
REMARK   50  A    between atoms: CA_82  and  C_83 
REMARK   51  A    between atoms: CA_82  and  CB_85 
REMARK       I    between atoms: C_83  and  N_90 
REMARK   52  A    between atoms: CB_85  and  CG_86 
REMARK   53  A    between atoms: CG_86  and  CD_87 
REMARK       I    between atoms: CD_87  and  NE2_89 
REMARK   54  A    between atoms: N_90  and  CA_91 
REMARK   55  A    between atoms: CA_91  and  C_92 
REMARK   56  A    between atoms: CA_91  and  CB_94 
REMARK       I    between atoms: C_92  and  N_100 
REMARK   57  A    between atoms: CB_94  and  CG_95 
REMARK   58  A    between atoms: N_100  and  CA_101 
REMARK   59  A    between atoms: CA_101  and  C_102 
REMARK   60  A    between atoms: CA_101  and  CB_104 
REMARK       I    between atoms: C_102  and  N_108 
REMARK   61  A    between atoms: CB_104  and  CG_105 
REMARK   62  A    between atoms: CG_105  and  SD_106 
REMARK   63  A    between atoms: SD_106  and  CE_107 
REMARK   64  A    between atoms: N_108  and  CA_109 
REMARK   65  A    between atoms: CA_109  and  C_110 
REMARK   66  A    between atoms: CA_109  and  CB_112 
REMARK       I    between atoms: C_110  and  N_116 
REMARK   67  A    between atoms: CB_112  and  CG_113 
REMARK   68  A    between atoms: N_116  and  CA_117 
REMARK   69  A    between atoms: CA_117  and  C_118 
REMARK   70  A    between atoms: CA_117  and  CB_120 
REMARK       I    between atoms: C_118  and  N_122 
REMARK   71  A    between atoms: CB_120  and  OG_121 
ROOT
ATOM      1  CA  PHE d   1     -13.142  -4.340  13.134  0.00  0.00     0.093 C 
ATOM      2  H58 PHE d   1     -12.894  -4.255  12.066  0.00  0.00     0.088 H 
ENDROOT
BRANCH   1   3
ATOM      3  N   PHE d   1     -13.229  -3.012  13.716  0.00  0.00    -0.346 N 
ATOM      4  C   LYS d   1     -14.138  -2.153  13.270  0.00  0.00     0.241 C 
ATOM      5  O   LYS d   1     -14.908  -2.422  12.344  0.00  0.00    -0.271 OA
ATOM      6  H57 PHE d   1     -12.606  -2.745  14.451  0.00  0.00     0.163 HD
BRANCH   4   7
ATOM      7  CA  LYS d   1     -14.182  -0.788  13.961  0.00  0.00     0.089 C 
ATOM      8  H45 LYS d   1     -15.165  -0.326  13.785  0.00  0.00     0.087 H 
BRANCH   7   9
ATOM      9  N   LYS d   1     -13.986  -0.972  15.397  0.00  0.00    -0.346 N 
ATOM     10  C   ALA d   1     -14.898  -1.556  16.168  0.00  0.00     0.240 C 
ATOM     11  O   ALA d   1     -15.972  -1.970  15.739  0.00  0.00    -0.271 OA
ATOM     12  H44 LYS d   1     -13.137  -0.648  15.814  0.00  0.00     0.163 HD
BRANCH  10  13
ATOM     13  CA  ALA d   1     -14.544  -1.688  17.644  0.00  0.00     0.086 C 
ATOM     14  H40 ALA d   1     -15.101  -2.530  18.081  0.00  0.00     0.086 H 
BRANCH  13  15
ATOM     15  N   ALA d   1     -13.112  -1.939  17.764  0.00  0.00    -0.346 N 
ATOM     16  C   ALA d   1     -12.568  -3.114  17.455  0.00  0.00     0.240 C 
ATOM     17  O   ALA d   1     -13.228  -4.064  17.051  0.00  0.00    -0.271 OA
ATOM     18  H39 ALA d   1     -12.518  -1.203  18.090  0.00  0.00     0.163 HD
BRANCH  16  19
ATOM     19  CA  ALA d   1     -11.054  -3.235  17.611  0.00  0.00     0.086 C 
ATOM     20  H35 ALA d   1     -10.688  -3.977  16.887  0.00  0.00     0.086 H 
BRANCH  19  21
ATOM     21  N   ALA d   1     -10.406  -1.964  17.337  0.00  0.00    -0.346 N 
ATOM     22  C   ALA d   1     -10.290  -1.504  16.099  0.00  0.00     0.240 C 
ATOM     23  O   ALA d   1     -10.704  -2.112  15.114  0.00  0.00    -0.271 OA
ATOM     24  H34 ALA d   1     -10.040  -1.426  18.096  0.00  0.00     0.163 HD
BRANCH  22  25
ATOM     25  CA  ALA d   1      -9.592  -0.165  15.949  0.00  0.00     0.086 C 
ATOM     26  H30 ALA d   1      -9.958   0.312  15.028  0.00  0.00     0.086 H 
BRANCH  25  27
ATOM     27  N   ALA d   1      -9.877   0.726  17.067  0.00  0.00    -0.346 N 
ATOM     28  C   THR d   1     -11.090   1.233  17.254  0.00  0.00     0.243 C 
ATOM     29  O   THR d   1     -12.047   0.962  16.531  0.00  0.00    -0.271 OA
ATOM     30  H29 ALA d   1      -9.144   0.960  17.706  0.00  0.00     0.163 HD
BRANCH  28  31
ATOM     31  CA  THR d   1     -11.252   2.166  18.441  0.00  0.00     0.113 C 
ATOM     32  H23 THR d   1     -10.475   2.943  18.396  0.00  0.00     0.091 H 
BRANCH  31  33
ATOM     33  N   THR d   1     -12.556   2.818  18.408  0.00  0.00    -0.344 N 
ATOM     34  C   GLU d   1     -12.842   3.717  17.470  0.00  0.00     0.241 C 
ATOM     35  O   GLU d   1     -12.032   4.054  16.604  0.00  0.00    -0.271 OA
ATOM     36  H22 THR d   1     -13.242   2.587  19.098  0.00  0.00     0.163 HD
BRANCH  34  37
ATOM     37  CA  GLU d   1     -14.239   4.339  17.510  0.00  0.00     0.090 C 
ATOM     38  H17 GLU d   1     -14.792   3.927  18.367  0.00  0.00     0.087 H 
BRANCH  37  39
ATOM     39  N   GLU d   1     -14.152   5.785  17.640  0.00  0.00    -0.346 N 
ATOM     40  C   LYS d   1     -13.869   6.399  18.781  0.00  0.00     0.248 C 
ATOM     41  O   LYS d   1     -13.683   5.806  19.849  0.00  0.00    -0.271 OA
ATOM     42  H16 GLU d   1     -14.314   6.345  16.827  0.00  0.00     0.163 HD
BRANCH  40  43
ATOM     43  CA  LYS d   1     -13.802   7.924  18.691  0.00  0.00     0.176 C 
ATOM     44  H4  LYS d   1     -14.827   8.322  18.658  0.00  0.00     0.099 H 
BRANCH  43  45
ATOM     45  N   LYS d   1     -13.104   8.496  19.881  0.00  0.00    -0.067 N 
ATOM     46  H1  LYS d   1     -13.071   9.500  19.801  0.00  0.00     0.275 HD
ATOM     47  H2  LYS d   1     -12.165   8.132  19.927  0.00  0.00     0.275 HD
ATOM     48  H3  LYS d   1     -13.604   8.242  20.718  0.00  0.00     0.275 HD
ENDBRANCH  43  45
BRANCH  43  49
ATOM     49  CB  LYS d   1     -13.065   8.331  17.400  0.00  0.00    -0.030 C 
ATOM     50  H5  LYS d   1     -12.565   7.439  16.995  0.00  0.00     0.036 H 
ATOM     51  H6  LYS d   1     -12.310   9.087  17.661  0.00  0.00     0.036 H 
BRANCH  49  52
ATOM     52  CG  LYS d   1     -13.966   8.914  16.301  0.00  0.00    -0.061 C 
ATOM     53  H7  LYS d   1     -13.584   9.906  16.017  0.00  0.00     0.033 H 
ATOM     54  H8  LYS d   1     -14.988   9.014  16.695  0.00  0.00     0.033 H 
BRANCH  52  55
ATOM     55  CD  LYS d   1     -14.000   8.025  15.060  0.00  0.00    -0.043 C 
ATOM     56  H9  LYS d   1     -13.928   6.973  15.373  0.00  0.00     0.035 H 
ATOM     57  H10 LYS d   1     -13.143   8.276  14.418  0.00  0.00     0.035 H 
BRANCH  55  58
ATOM     58  CE  LYS d   1     -15.291   8.217  14.261  0.00  0.00     0.080 C 
ATOM     59  H11 LYS d   1     -15.090   8.912  13.432  0.00  0.00     0.075 H 
ATOM     60  H12 LYS d   1     -16.054   8.649  14.925  0.00  0.00     0.075 H 
BRANCH  58  61
ATOM     61  NZ  LYS d   1     -15.824   6.935  13.692  0.00  0.00    -0.079 N 
ATOM     62  H13 LYS d   1     -16.671   7.122  13.178  0.00  0.00     0.274 HD
ATOM     63  H14 LYS d   1     -16.021   6.291  14.442  0.00  0.00     0.274 HD
ATOM     64  H15 LYS d   1     -15.138   6.531  13.073  0.00  0.00     0.274 HD
ENDBRANCH  58  61
ENDBRANCH  55  58
ENDBRANCH  52  55
ENDBRANCH  49  52
ENDBRANCH  43  49
ENDBRANCH  40  43
ENDBRANCH  37  39
BRANCH  37  65
ATOM     65  CB  GLU d   1     -14.985   4.019  16.220  0.00  0.00    -0.029 C 
ATOM     66  H18 GLU d   1     -14.425   4.467  15.386  0.00  0.00     0.037 H 
ATOM     67  H19 GLU d   1     -15.981   4.481  16.282  0.00  0.00     0.037 H 
BRANCH  65  68
ATOM     68  CG  GLU d   1     -15.171   2.559  15.920  0.00  0.00     0.018 C 
ATOM     69  H20 GLU d   1     -15.723   2.092  16.749  0.00  0.00     0.049 H 
ATOM     70  H21 GLU d   1     -14.183   2.086  15.825  0.00  0.00     0.049 H 
BRANCH  68  71
ATOM     71  CD  GLU d   1     -15.945   2.347  14.632  0.00  0.00     0.172 C 
ATOM     72  OE1 GLU d   1     -15.490   2.846  13.578  0.00  0.00    -0.648 OA
ATOM     73  OE2 GLU d   1     -17.004   1.688  14.673  0.00  0.00    -0.648 OA
ENDBRANCH  68  71
ENDBRANCH  65  68
ENDBRANCH  37  65
ENDBRANCH  34  37
ENDBRANCH  31  33
BRANCH  31  74
ATOM     74  CB  THR d   1     -11.059   1.350  19.717  0.00  0.00     0.060 C 
ATOM     75  H24 THR d   1     -10.036   0.947  19.737  0.00  0.00     0.086 H 
BRANCH  74  76
ATOM     76  OG1 THR d   1     -11.995   0.268  19.737  0.00  0.00    -0.393 OA
ATOM     77  H25 THR d   1     -11.874  -0.239  20.531  0.00  0.00     0.210 HD
ENDBRANCH  74  76
BRANCH  74  78
ATOM     78  CG2 THR d   1     -11.272   2.220  20.927  0.00  0.00    -0.050 C 
ATOM     79  H26 THR d   1     -11.130   1.621  21.839  0.00  0.00     0.031 H 
ATOM     80  H27 THR d   1     -12.294   2.627  20.911  0.00  0.00     0.031 H 
ATOM     81  H28 THR d   1     -10.547   3.048  20.916  0.00  0.00     0.031 H 
ENDBRANCH  74  78
ENDBRANCH  31  74
ENDBRANCH  28  31
ENDBRANCH  25  27
BRANCH  25  82
ATOM     82  CB  ALA d   1      -8.098  -0.373  15.825  0.00  0.00    -0.049 C 
ATOM     83  H31 ALA d   1      -7.890  -1.046  14.980  0.00  0.00     0.030 H 
ATOM     84  H32 ALA d   1      -7.712  -0.820  16.753  0.00  0.00     0.030 H 
ATOM     85  H33 ALA d   1      -7.606   0.596  15.652  0.00  0.00     0.030 H 
ENDBRANCH  25  82
ENDBRANCH  22  25
ENDBRANCH  19  21
BRANCH  19  86
ATOM     86  CB  ALA d   1     -10.701  -3.710  19.013  0.00  0.00    -0.049 C 
ATOM     87  H36 ALA d   1     -11.197  -4.672  19.210  0.00  0.00     0.030 H 
ATOM     88  H37 ALA d   1     -11.040  -2.966  19.749  0.00  0.00     0.030 H 
ATOM     89  H38 ALA d   1      -9.611  -3.836  19.094  0.00  0.00     0.030 H 
ENDBRANCH  19  86
ENDBRANCH  16  19
ENDBRANCH  13  15
BRANCH  13  90
ATOM     90  CB  ALA d   1     -14.914  -0.411  18.375  0.00  0.00    -0.049 C 
ATOM     91  H41 ALA d   1     -15.995  -0.233  18.277  0.00  0.00     0.030 H 
ATOM     92  H42 ALA d   1     -14.362   0.434  17.939  0.00  0.00     0.030 H 
ATOM     93  H43 ALA d   1     -14.653  -0.509  19.439  0.00  0.00     0.030 H 
ENDBRANCH  13  90
ENDBRANCH  10  13
ENDBRANCH   7   9
BRANCH   7  94
ATOM     94  CB  LYS d   1     -13.091   0.131  13.400  0.00  0.00    -0.038 C 
ATOM     95  H46 LYS d   1     -12.128  -0.392  13.493  0.00  0.00     0.036 H 
ATOM     96  H47 LYS d   1     -13.072   1.046  14.011  0.00  0.00     0.036 H 
BRANCH  94  97
ATOM     97  CG  LYS d   1     -13.261   0.544  11.942  0.00  0.00    -0.061 C 
ATOM     98  H48 LYS d   1     -13.969   1.384  11.887  0.00  0.00     0.033 H 
ATOM     99  H49 LYS d   1     -13.659  -0.308  11.372  0.00  0.00     0.033 H 
BRANCH  97 100
ATOM    100  CD  LYS d   1     -11.924   0.976  11.329  0.00  0.00    -0.043 C 
ATOM    101  H50 LYS d   1     -11.194   0.162  11.450  0.00  0.00     0.035 H 
ATOM    102  H51 LYS d   1     -11.563   1.874  11.852  0.00  0.00     0.035 H 
BRANCH 100 103
ATOM    103  CE  LYS d   1     -12.075   1.290   9.851  0.00  0.00     0.080 C 
ATOM    104  H52 LYS d   1     -12.515   2.293   9.753  0.00  0.00     0.075 H 
ATOM    105  H53 LYS d   1     -12.753   0.547   9.406  0.00  0.00     0.075 H 
BRANCH 103 106
ATOM    106  NZ  LYS d   1     -10.786   1.265   9.093  0.00  0.00    -0.079 N 
ATOM    107  H54 LYS d   1     -10.962   1.481   8.124  0.00  0.00     0.274 HD
ATOM    108  H55 LYS d   1     -10.373   0.348   9.163  0.00  0.00     0.274 HD
ATOM    109  H56 LYS d   1     -10.155   1.949   9.481  0.00  0.00     0.274 HD
ENDBRANCH 103 106
ENDBRANCH 100 103
ENDBRANCH  97 100
ENDBRANCH  94  97
ENDBRANCH   7  94
ENDBRANCH   4   7
ENDBRANCH   1   3
BRANCH   1 110
ATOM    110  C   PHE d   1     -14.501  -5.024  13.290  0.00  0.00     0.241 C 
ATOM    111  O   PHE d   1     -15.012  -5.654  12.359  0.00  0.00    -0.271 OA
ATOM    112  N   GLU d   1     -15.088  -4.885  14.475  0.00  0.00    -0.346 N 
ATOM    113  H66 GLU d   1     -14.636  -4.342  15.183  0.00  0.00     0.163 HD
BRANCH 112 114
ATOM    114  CA  GLU d   1     -16.375  -5.505  14.768  0.00  0.00     0.090 C 
ATOM    115  H67 GLU d   1     -16.277  -6.581  14.562  0.00  0.00     0.087 H 
BRANCH 114 116
ATOM    116  C   GLU d   1     -17.526  -4.980  13.915  0.00  0.00     0.241 C 
ATOM    117  O   GLU d   1     -18.309  -5.763  13.385  0.00  0.00    -0.271 OA
ATOM    118  N   ARG d   1     -17.637  -3.663  13.789  0.00  0.00    -0.346 N 
ATOM    119  H72 ARG d   1     -16.971  -3.068  14.238  0.00  0.00     0.163 HD
BRANCH 118 120
ATOM    120  CA  ARG d   1     -18.712  -3.071  13.008  0.00  0.00     0.089 C 
ATOM    121  H73 ARG d   1     -19.671  -3.465  13.377  0.00  0.00     0.087 H 
BRANCH 120 122
ATOM    122  C   ARG d   1     -18.571  -3.427  11.536  0.00  0.00     0.241 C 
ATOM    123  O   ARG d   1     -19.557  -3.580  10.821  0.00  0.00    -0.271 OA
ATOM    124  N   GLN d   1     -17.332  -3.575  11.092  0.00  0.00    -0.346 N 
ATOM    125  H85 GLN d   1     -16.568  -3.473  11.729  0.00  0.00     0.163 HD
BRANCH 124 126
ATOM    126  CA  GLN d   1     -17.059  -3.882   9.698  0.00  0.00     0.090 C 
ATOM    127  H86 GLN d   1     -17.858  -3.400   9.116  0.00  0.00     0.087 H 
BRANCH 126 128
ATOM    128  C   GLN d   1     -17.041  -5.349   9.277  0.00  0.00     0.241 C 
ATOM    129  O   GLN d   1     -17.390  -5.667   8.137  0.00  0.00    -0.271 OA
ATOM    130  N   HIS d   1     -16.663  -6.255  10.173  0.00  0.00    -0.346 N 
ATOM    131  H93 HIS d   1     -16.453  -5.984  11.112  0.00  0.00     0.163 HD
BRANCH 130 132
ATOM    132  CA  HIS d   1     -16.559  -7.655   9.763  0.00  0.00     0.094 C 
ATOM    133  H94 HIS d   1     -16.925  -7.692   8.726  0.00  0.00     0.088 H 
BRANCH 132 134
ATOM    134  C   HIS d   1     -17.353  -8.700  10.529  0.00  0.00     0.241 C 
ATOM    135  O   HIS d   1     -17.458  -9.840  10.084  0.00  0.00    -0.271 OA
ATOM    136  N   MET d   1     -17.915  -8.338  11.671  0.00  0.00    -0.346 N 
ATOM    137 0H10 MET d   1     -17.832  -7.396  11.996  0.00  0.00     0.163 HD
BRANCH 136 138
ATOM    138  CA  MET d   1     -18.655  -9.320  12.452  0.00  0.00     0.090 C 
ATOM    139 1H10 MET d   1     -18.225 -10.304  12.213  0.00  0.00     0.087 H 
BRANCH 138 140
ATOM    140  C   MET d   1     -20.144  -9.407  12.161  0.00  0.00     0.241 C 
ATOM    141  O   MET d   1     -20.849  -8.404  12.163  0.00  0.00    -0.271 OA
ATOM    142  N   ASP d   1     -20.609 -10.618  11.888  0.00  0.00    -0.346 N 
ATOM    143 9H10 ASP d   1     -19.973 -11.388  11.834  0.00  0.00     0.163 HD
BRANCH 142 144
ATOM    144  CA  ASP d   1     -22.017 -10.845  11.667  0.00  0.00     0.098 C 
ATOM    145 0H11 ASP d   1     -22.593 -10.110  12.248  0.00  0.00     0.088 H 
BRANCH 144 146
ATOM    146  C   ASP d   1     -22.333 -12.241  12.163  0.00  0.00     0.241 C 
ATOM    147  O   ASP d   1     -22.585 -13.152  11.379  0.00  0.00    -0.271 OA
ATOM    148  N   SER d   1     -22.319 -12.389  13.482  0.00  0.00    -0.344 N 
ATOM    149 3H11 SER d   1     -22.109 -11.594  14.051  0.00  0.00     0.163 HD
BRANCH 148 150
ATOM    150  CA  SER d   1     -22.596 -13.656  14.132  0.00  0.00     0.109 C 
ATOM    151 4H11 SER d   1     -21.892 -14.408  13.746  0.00  0.00     0.090 H 
BRANCH 150 152
ATOM    152  C   SER d   1     -24.017 -14.135  13.848  0.00  0.00     0.240 C 
ATOM    153  O   SER d   1     -24.224 -15.297  13.486  0.00  0.00    -0.271 OA
ATOM    154  N   NH2 d   1     -24.998 -13.242  14.012  0.00  0.00    -0.368 N 
ATOM    155 8H11 NH2 d   1     -25.947 -13.505  13.839  0.00  0.00     0.159 HD
ATOM    156 9H11 NH2 d   1     -24.783 -12.311  14.307  0.00  0.00     0.159 HD
ENDBRANCH 150 152
BRANCH 150 157
ATOM    157  CB  SER d   1     -22.387 -13.511  15.636  0.00  0.00     0.044 C 
ATOM    158 5H11 SER d   1     -22.208 -14.503  16.076  0.00  0.00     0.077 H 
ATOM    159 6H11 SER d   1     -23.287 -13.067  16.087  0.00  0.00     0.077 H 
BRANCH 157 160
ATOM    160  OG  SER d   1     -21.273 -12.676  15.895  0.00  0.00    -0.398 OA
ATOM    161 7H11 SER d   1     -20.495 -13.059  15.507  0.00  0.00     0.209 HD
ENDBRANCH 157 160
ENDBRANCH 150 157
ENDBRANCH 148 150
ENDBRANCH 144 146
BRANCH 144 162
ATOM    162  CB  ASP d   1     -22.408 -10.711  10.196  0.00  0.00     0.043 C 
ATOM    163 1H11 ASP d   1     -21.956 -11.540   9.632  0.00  0.00     0.052 H 
ATOM    164 2H11 ASP d   1     -22.024  -9.754   9.812  0.00  0.00     0.052 H 
BRANCH 162 165
ATOM    165  CG  ASP d   1     -23.913 -10.748  10.000  0.00  0.00     0.175 C 
ATOM    166  OD1 ASP d   1     -24.637 -10.301  10.915  0.00  0.00    -0.648 OA
ATOM    167  OD2 ASP d   1     -24.378 -11.234   8.945  0.00  0.00    -0.648 OA
ENDBRANCH 162 165
ENDBRANCH 144 162
ENDBRANCH 142 144
ENDBRANCH 138 140
BRANCH 138 168
ATOM    168  CB  MET d   1     -18.448  -9.064  13.951  0.00  0.00    -0.030 C 
ATOM    169 2H10 MET d   1     -19.185  -9.661  14.508  0.00  0.00     0.037 H 
ATOM    170 3H10 MET d   1     -18.620  -7.995  14.146  0.00  0.00     0.037 H 
BRANCH 168 171
ATOM    171  CG  MET d   1     -17.056  -9.425  14.460  0.00  0.00    -0.021 C 
ATOM    172 4H10 MET d   1     -17.037  -9.286  15.551  0.00  0.00     0.049 H 
ATOM    173 5H10 MET d   1     -16.327  -8.748  13.991  0.00  0.00     0.049 H 
BRANCH 171 174
ATOM    174  SD  MET d   1     -16.577 -11.128  14.090  0.00  0.00    -0.173 SA
BRANCH 174 175
ATOM    175  CE  MET d   1     -17.986 -12.039  14.701  0.00  0.00    -0.035 C 
ATOM    176 6H10 MET d   1     -17.826 -13.115  14.537  0.00  0.00     0.041 H 
ATOM    177 7H10 MET d   1     -18.891 -11.717  14.166  0.00  0.00     0.041 H 
ATOM    178 8H10 MET d   1     -18.108 -11.847  15.777  0.00  0.00     0.041 H 
ENDBRANCH 174 175
ENDBRANCH 171 174
ENDBRANCH 168 171
ENDBRANCH 138 168
ENDBRANCH 136 138
ENDBRANCH 132 134
BRANCH 132 179
ATOM    179  CB  HIS d   1     -15.087  -8.083   9.759  0.00  0.00     0.004 C 
ATOM    180  H95 HIS d   1     -15.011  -9.056   9.251  0.00  0.00     0.046 H 
ATOM    181  H96 HIS d   1     -14.755  -8.188  10.802  0.00  0.00     0.046 H 
BRANCH 179 182
ATOM    182  CG  HIS d   1     -14.170  -7.118   9.068  0.00  0.00     0.053 A 
ATOM    183  ND1 HIS d   1     -14.178  -6.937   7.703  0.00  0.00    -0.247 NA
ATOM    184  CE1 HIS d   1     -13.263  -6.040   7.375  0.00  0.00     0.064 A 
ATOM    185  NE2 HIS d   1     -12.664  -5.636   8.479  0.00  0.00    -0.359 N 
ATOM    186  H98 HIS d   1     -13.042  -5.694   6.366  0.00  0.00     0.143 H 
ATOM    187  CD2 HIS d   1     -13.214  -6.295   9.554  0.00  0.00     0.002 A 
ATOM    188  H99 HIS d   1     -11.907  -4.939   8.528  0.00  0.00     0.166 HD
ATOM    189  H97 HIS d   1     -12.932  -6.176  10.599  0.00  0.00     0.114 H 
ENDBRANCH 179 182
ENDBRANCH 132 179
ENDBRANCH 130 132
ENDBRANCH 126 128
BRANCH 126 190
ATOM    190  CB  GLN d   1     -15.726  -3.259   9.285  0.00  0.00    -0.030 C 
ATOM    191  H87 GLN d   1     -15.387  -3.752   8.362  0.00  0.00     0.037 H 
ATOM    192  H88 GLN d   1     -14.997  -3.443  10.088  0.00  0.00     0.037 H 
BRANCH 190 193
ATOM    193  CG  GLN d   1     -15.783  -1.766   9.031  0.00  0.00     0.011 C 
ATOM    194  H89 GLN d   1     -15.968  -1.252   9.986  0.00  0.00     0.047 H 
ATOM    195  H90 GLN d   1     -16.610  -1.558   8.336  0.00  0.00     0.047 H 
BRANCH 193 196
ATOM    196  CD  GLN d   1     -14.497  -1.230   8.431  0.00  0.00     0.215 C 
ATOM    197  OE1 GLN d   1     -13.416  -1.772   8.668  0.00  0.00    -0.274 OA
ATOM    198  NE2 GLN d   1     -14.608  -0.153   7.653  0.00  0.00    -0.370 N 
ATOM    199  H91 GLN d   1     -13.794   0.244   7.230  0.00  0.00     0.159 HD
ATOM    200  H92 GLN d   1     -15.506   0.257   7.492  0.00  0.00     0.159 HD
ENDBRANCH 193 196
ENDBRANCH 190 193
ENDBRANCH 126 190
ENDBRANCH 124 126
ENDBRANCH 120 122
BRANCH 120 201
ATOM    201  CB  ARG d   1     -18.710  -1.545  13.168  0.00  0.00    -0.036 C 
ATOM    202  H74 ARG d   1     -17.775  -1.153  12.741  0.00  0.00     0.036 H 
ATOM    203  H75 ARG d   1     -18.750  -1.309  14.242  0.00  0.00     0.036 H 
BRANCH 201 204
ATOM    204  CG  ARG d   1     -19.881  -0.853  12.479  0.00  0.00    -0.048 C 
ATOM    205  H76 ARG d   1     -20.816  -1.207  12.938  0.00  0.00     0.035 H 
ATOM    206  H77 ARG d   1     -19.870  -1.125  11.413  0.00  0.00     0.035 H 
BRANCH 204 207
ATOM    207  CD  ARG d   1     -19.830   0.669  12.593  0.00  0.00     0.009 C 
ATOM    208  H78 ARG d   1     -20.253   0.967  13.564  0.00  0.00     0.064 H 
ATOM    209  H79 ARG d   1     -20.431   1.106  11.782  0.00  0.00     0.064 H 
BRANCH 207 210
ATOM    210  NE  ARG d   1     -18.471   1.178  12.497  0.00  0.00    -0.227 N 
ATOM    211  CZ  ARG d   1     -17.808   1.337  11.357  0.00  0.00     0.665 C 
ATOM    212  NH1 ARG d   1     -16.568   1.804  11.373  0.00  0.00    -0.235 N 
ATOM    213  NH2 ARG d   1     -18.386   1.041  10.198  0.00  0.00    -0.235 N 
ATOM    214  H81 ARG d   1     -16.053   1.928  10.490  0.00  0.00     0.174 HD
ATOM    215  H82 ARG d   1     -16.119   2.043  12.269  0.00  0.00     0.174 HD
ATOM    216  H83 ARG d   1     -19.350   0.678  10.181  0.00  0.00     0.174 HD
ATOM    217  H84 ARG d   1     -17.870   1.175   9.316  0.00  0.00     0.174 HD
ATOM    218  H80 ARG d   1     -17.990   1.432  13.372  0.00  0.00     0.177 HD
ENDBRANCH 207 210
ENDBRANCH 204 207
ENDBRANCH 201 204
ENDBRANCH 120 201
ENDBRANCH 118 120
ENDBRANCH 114 116
BRANCH 114 219
ATOM    219  CB  GLU d   1     -16.709  -5.328  16.251  0.00  0.00    -0.029 C 
ATOM    220  H68 GLU d   1     -17.803  -5.336  16.363  0.00  0.00     0.037 H 
ATOM    221  H69 GLU d   1     -16.314  -4.356  16.582  0.00  0.00     0.037 H 
BRANCH 219 222
ATOM    222  CG  GLU d   1     -16.126  -6.414  17.149  0.00  0.00     0.018 C 
ATOM    223  H70 GLU d   1     -15.164  -6.738  16.726  0.00  0.00     0.049 H 
ATOM    224  H71 GLU d   1     -16.824  -7.264  17.167  0.00  0.00     0.049 H 
BRANCH 222 225
ATOM    225  CD  GLU d   1     -15.892  -5.947  18.586  0.00  0.00     0.172 C 
ATOM    226  OE1 GLU d   1     -16.252  -4.803  18.927  0.00  0.00    -0.648 OA
ATOM    227  OE2 GLU d   1     -15.345  -6.738  19.385  0.00  0.00    -0.648 OA
ENDBRANCH 222 225
ENDBRANCH 219 222
ENDBRANCH 114 219
ENDBRANCH 112 114
ENDBRANCH   1 110
BRANCH   1 228
ATOM    228  CB  PHE d   1     -12.053  -5.168  13.839  0.00  0.00    -0.014 C 
ATOM    229  H59 PHE d   1     -12.238  -5.135  14.923  0.00  0.00     0.043 H 
ATOM    230  H60 PHE d   1     -11.075  -4.715  13.620  0.00  0.00     0.043 H 
BRANCH 228 231
ATOM    231  CG  PHE d   1     -12.017  -6.619  13.404  0.00  0.00    -0.056 A 
ATOM    232  CD1 PHE d   1     -11.234  -7.017  12.322  0.00  0.00    -0.077 A 
ATOM    233  CE1 PHE d   1     -11.219  -8.352  11.901  0.00  0.00    -0.082 A 
ATOM    234  H61 PHE d   1     -10.629  -6.284  11.800  0.00  0.00     0.084 H 
ATOM    235  CZ  PHE d   1     -11.995  -9.304  12.569  0.00  0.00    -0.083 A 
ATOM    236  H63 PHE d   1     -10.606  -8.648  11.057  0.00  0.00     0.083 H 
ATOM    237  CE2 PHE d   1     -12.778  -8.924  13.651  0.00  0.00    -0.082 A 
ATOM    238  H65 PHE d   1     -11.985 -10.338  12.243  0.00  0.00     0.083 H 
ATOM    239  CD2 PHE d   1     -12.784  -7.582  14.064  0.00  0.00    -0.077 A 
ATOM    240  H64 PHE d   1     -13.380  -9.658  14.173  0.00  0.00     0.083 H 
ATOM    241  H62 PHE d   1     -13.395  -7.288  14.910  0.00  0.00     0.084 H 
ENDBRANCH 228 231
ENDBRANCH   1 228
TORSDOF 71
