REMARK WARNING: 32 MAX_TORS EXCEEDED!!!
REMARK  71 active torsions:
REMARK  status: ('A' for Active; 'I' for Inactive)
REMARK    1  A    between atoms: N_1  and  CA_2 
REMARK    2  A    between atoms: CA_2  and  C_3 
REMARK    3  A    between atoms: CA_2  and  CB_5 
REMARK       I    between atoms: C_3  and  N_10 
REMARK    4  A    between atoms: CB_5  and  CG_6 
REMARK    5  A    between atoms: CG_6  and  CD_7 
REMARK    6  A    between atoms: CD_7  and  CE_8 
REMARK    7  A    between atoms: CE_8  and  NZ_9 
REMARK    8  A    between atoms: N_10  and  CA_11 
REMARK    9  A    between atoms: CA_11  and  C_12 
REMARK   10  A    between atoms: CA_11  and  CB_14 
REMARK       I    between atoms: C_12  and  N_19 
REMARK   11  A    between atoms: CB_14  and  CG_15 
REMARK   12  A    between atoms: CG_15  and  CD_16 
REMARK   13  A    between atoms: N_19  and  CA_20 
REMARK   14  A    between atoms: CA_20  and  C_21 
REMARK   15  A    between atoms: CA_20  and  CB_23 
REMARK       I    between atoms: C_21  and  N_26 
REMARK   16  A    between atoms: CB_23  and  OG1_24 
REMARK   17  A    between atoms: CB_23  and  CG2_25 
REMARK   18  A    between atoms: N_26  and  CA_27 
REMARK   19  A    between atoms: CA_27  and  C_28 
REMARK   20  A    between atoms: CA_27  and  CB_30 
REMARK       I    between atoms: C_28  and  N_31 
REMARK   21  A    between atoms: N_31  and  CA_32 
REMARK   22  A    between atoms: CA_32  and  C_33 
REMARK   23  A    between atoms: CA_32  and  CB_35 
REMARK       I    between atoms: C_33  and  N_36 
REMARK   24  A    between atoms: N_36  and  CA_37 
REMARK   25  A    between atoms: CA_37  and  C_38 
REMARK   26  A    between atoms: CA_37  and  CB_40 
REMARK       I    between atoms: C_38  and  N_41 
REMARK   27  A    between atoms: N_41  and  CA_42 
REMARK   28  A    between atoms: CA_42  and  C_43 
REMARK   29  A    between atoms: CA_42  and  CB_45 
REMARK       I    between atoms: C_43  and  N_50 
REMARK   30  A    between atoms: CB_45  and  CG_46 
REMARK   31  A    between atoms: CG_46  and  CD_47 
REMARK   32  A    between atoms: CD_47  and  CE_48 
REMARK   33  A    between atoms: CE_48  and  NZ_49 
REMARK   34  A    between atoms: N_50  and  CA_51 
REMARK   35  A    between atoms: CA_51  and  C_52 
REMARK   36  A    between atoms: CA_51  and  CB_54 
REMARK       I    between atoms: C_52  and  N_61 
REMARK   37  A    between atoms: CB_54  and  CG_55 
REMARK   38  A    between atoms: N_61  and  CA_62 
REMARK   39  A    between atoms: CA_62  and  C_63 
REMARK   40  A    between atoms: CA_62  and  CB_65 
REMARK       I    between atoms: C_63  and  N_70 
REMARK   41  A    between atoms: CB_65  and  CG_66 
REMARK   42  A    between atoms: CG_66  and  CD_67 
REMARK   43  A    between atoms: N_70  and  CA_71 
REMARK   44  A    between atoms: CA_71  and  C_72 
REMARK   45  A    between atoms: CA_71  and  CB_74 
REMARK       I    between atoms: C_72  and  N_81 
REMARK   46  A    between atoms: CB_74  and  CG_75 
REMARK   47  A    between atoms: CG_75  and  CD_76 
REMARK   48  A    between atoms: CD_76  and  NE_77 
REMARK       I    between atoms: NE_77  and  CZ_78 
REMARK       I    between atoms: CZ_78  and  NH1_79 
REMARK   49  A    between atoms: N_81  and  CA_82 
REMARK   50  A    between atoms: CA_82  and  C_83 
REMARK   51  A    between atoms: CA_82  and  CB_85 
REMARK       I    between atoms: C_83  and  N_90 
REMARK   52  A    between atoms: CB_85  and  CG_86 
REMARK   53  A    between atoms: CG_86  and  CD_87 
REMARK       I    between atoms: CD_87  and  NE2_89 
REMARK   54  A    between atoms: N_90  and  CA_91 
REMARK   55  A    between atoms: CA_91  and  C_92 
REMARK   56  A    between atoms: CA_91  and  CB_94 
REMARK       I    between atoms: C_92  and  N_100 
REMARK   57  A    between atoms: CB_94  and  CG_95 
REMARK   58  A    between atoms: N_100  and  CA_101 
REMARK   59  A    between atoms: CA_101  and  C_102 
REMARK   60  A    between atoms: CA_101  and  CB_104 
REMARK       I    between atoms: C_102  and  N_108 
REMARK   61  A    between atoms: CB_104  and  CG_105 
REMARK   62  A    between atoms: CG_105  and  SD_106 
REMARK   63  A    between atoms: SD_106  and  CE_107 
REMARK   64  A    between atoms: N_108  and  CA_109 
REMARK   65  A    between atoms: CA_109  and  C_110 
REMARK   66  A    between atoms: CA_109  and  CB_112 
REMARK       I    between atoms: C_110  and  N_116 
REMARK   67  A    between atoms: CB_112  and  CG_113 
REMARK   68  A    between atoms: N_116  and  CA_117 
REMARK   69  A    between atoms: CA_117  and  C_118 
REMARK   70  A    between atoms: CA_117  and  CB_120 
REMARK       I    between atoms: C_118  and  N_122 
REMARK   71  A    between atoms: CB_120  and  OG_121 
ROOT
ATOM      1  CA  PHE d   1     -13.223  -4.326  13.092  0.00  0.00     0.093 C 
ATOM      2  H58 PHE d   1     -13.028  -4.218  12.015  0.00  0.00     0.088 H 
ENDROOT
BRANCH   1   3
ATOM      3  N   PHE d   1     -13.288  -3.004  13.712  0.00  0.00    -0.346 N 
ATOM      4  C   LYS d   1     -14.139  -2.078  13.280  0.00  0.00     0.241 C 
ATOM      5  O   LYS d   1     -14.893  -2.269  12.326  0.00  0.00    -0.271 OA
ATOM      6  H57 PHE d   1     -12.680  -2.792  14.477  0.00  0.00     0.163 HD
BRANCH   4   7
ATOM      7  CA  LYS d   1     -14.135  -0.738  14.017  0.00  0.00     0.089 C 
ATOM      8  H45 LYS d   1     -15.093  -0.231  13.826  0.00  0.00     0.087 H 
BRANCH   7   9
ATOM      9  N   LYS d   1     -13.983  -0.918  15.457  0.00  0.00    -0.346 N 
ATOM     10  C   ALA d   1     -14.866  -1.591  16.187  0.00  0.00     0.240 C 
ATOM     11  O   ALA d   1     -15.876  -2.102  15.707  0.00  0.00    -0.271 OA
ATOM     12  H44 LYS d   1     -13.185  -0.520  15.911  0.00  0.00     0.163 HD
BRANCH  10  13
ATOM     13  CA  ALA d   1     -14.560  -1.701  17.682  0.00  0.00     0.086 C 
ATOM     14  H40 ALA d   1     -15.164  -2.508  18.123  0.00  0.00     0.086 H 
BRANCH  13  15
ATOM     15  N   ALA d   1     -13.141  -2.013  17.836  0.00  0.00    -0.346 N 
ATOM     16  C   ALA d   1     -12.625  -3.162  17.405  0.00  0.00     0.240 C 
ATOM     17  O   ALA d   1     -13.302  -4.036  16.868  0.00  0.00    -0.271 OA
ATOM     18  H39 ALA d   1     -12.541  -1.345  18.277  0.00  0.00     0.163 HD
BRANCH  16  19
ATOM     19  CA  ALA d   1     -11.118  -3.352  17.603  0.00  0.00     0.086 C 
ATOM     20  H35 ALA d   1     -10.756  -4.088  16.871  0.00  0.00     0.086 H 
BRANCH  19  21
ATOM     21  N   ALA d   1     -10.428  -2.092  17.381  0.00  0.00    -0.346 N 
ATOM     22  C   ALA d   1     -10.334  -1.579  16.160  0.00  0.00     0.240 C 
ATOM     23  O   ALA d   1     -10.798  -2.138  15.169  0.00  0.00    -0.271 OA
ATOM     24  H34 ALA d   1     -10.020  -1.607  18.155  0.00  0.00     0.163 HD
BRANCH  22  25
ATOM     25  CA  ALA d   1      -9.601  -0.250  16.028  0.00  0.00     0.086 C 
ATOM     26  H30 ALA d   1      -9.935   0.224  15.093  0.00  0.00     0.086 H 
BRANCH  25  27
ATOM     27  N   ALA d   1      -9.887   0.676  17.121  0.00  0.00    -0.346 N 
ATOM     28  C   THR d   1     -11.105   1.177  17.310  0.00  0.00     0.243 C 
ATOM     29  O   THR d   1     -12.062   0.881  16.592  0.00  0.00    -0.271 OA
ATOM     30  H29 ALA d   1      -9.149   0.940  17.742  0.00  0.00     0.163 HD
BRANCH  28  31
ATOM     31  CA  THR d   1     -11.280   2.154  18.482  0.00  0.00     0.113 C 
ATOM     32  H23 THR d   1     -10.504   2.931  18.424  0.00  0.00     0.091 H 
BRANCH  31  33
ATOM     33  N   THR d   1     -12.589   2.788  18.421  0.00  0.00    -0.344 N 
ATOM     34  C   GLU d   1     -12.842   3.858  17.674  0.00  0.00     0.241 C 
ATOM     35  O   GLU d   1     -11.996   4.401  16.964  0.00  0.00    -0.271 OA
ATOM     36  H22 THR d   1     -13.332   2.401  18.966  0.00  0.00     0.163 HD
BRANCH  34  37
ATOM     37  CA  GLU d   1     -14.276   4.371  17.725  0.00  0.00     0.090 C 
ATOM     38  H17 GLU d   1     -14.819   3.727  18.433  0.00  0.00     0.087 H 
BRANCH  37  39
ATOM     39  N   GLU d   1     -14.451   5.743  18.199  0.00  0.00    -0.346 N 
ATOM     40  C   LYS d   1     -14.493   6.028  19.503  0.00  0.00     0.248 C 
ATOM     41  O   LYS d   1     -14.351   5.171  20.379  0.00  0.00    -0.271 OA
ATOM     42  H16 GLU d   1     -14.541   6.483  17.533  0.00  0.00     0.163 HD
BRANCH  40  43
ATOM     43  CA  LYS d   1     -14.708   7.492  19.887  0.00  0.00     0.176 C 
ATOM     44  H4  LYS d   1     -15.018   7.537  20.942  0.00  0.00     0.099 H 
BRANCH  43  45
ATOM     45  N   LYS d   1     -13.451   8.280  19.730  0.00  0.00    -0.067 N 
ATOM     46  H1  LYS d   1     -13.621   9.239  19.989  0.00  0.00     0.275 HD
ATOM     47  H2  LYS d   1     -13.147   8.240  18.770  0.00  0.00     0.275 HD
ATOM     48  H3  LYS d   1     -12.735   7.893  20.325  0.00  0.00     0.275 HD
ENDBRANCH  43  45
BRANCH  43  49
ATOM     49  CB  LYS d   1     -15.827   8.089  19.016  0.00  0.00    -0.030 C 
ATOM     50  H5  LYS d   1     -16.759   7.550  19.241  0.00  0.00     0.036 H 
ATOM     51  H6  LYS d   1     -15.559   7.933  17.961  0.00  0.00     0.036 H 
BRANCH  49  52
ATOM     52  CG  LYS d   1     -16.080   9.579  19.224  0.00  0.00    -0.061 C 
ATOM     53  H7  LYS d   1     -15.116  10.108  19.211  0.00  0.00     0.033 H 
ATOM     54  H8  LYS d   1     -16.565   9.724  20.201  0.00  0.00     0.033 H 
BRANCH  52  55
ATOM     55  CD  LYS d   1     -16.983  10.167  18.130  0.00  0.00    -0.043 C 
ATOM     56  H9  LYS d   1     -17.690  10.872  18.592  0.00  0.00     0.035 H 
ATOM     57  H10 LYS d   1     -17.541   9.349  17.651  0.00  0.00     0.035 H 
BRANCH  55  58
ATOM     58  CE  LYS d   1     -16.176  10.903  17.067  0.00  0.00     0.080 C 
ATOM     59  H11 LYS d   1     -15.546  10.171  16.540  0.00  0.00     0.075 H 
ATOM     60  H12 LYS d   1     -15.536  11.645  17.568  0.00  0.00     0.075 H 
BRANCH  58  61
ATOM     61  NZ  LYS d   1     -17.021  11.613  16.057  0.00  0.00    -0.079 N 
ATOM     62  H13 LYS d   1     -16.427  12.076  15.387  0.00  0.00     0.274 HD
ATOM     63  H14 LYS d   1     -17.598  12.296  16.522  0.00  0.00     0.274 HD
ATOM     64  H15 LYS d   1     -17.607  10.946  15.581  0.00  0.00     0.274 HD
ENDBRANCH  58  61
ENDBRANCH  55  58
ENDBRANCH  52  55
ENDBRANCH  49  52
ENDBRANCH  43  49
ENDBRANCH  40  43
ENDBRANCH  37  39
BRANCH  37  65
ATOM     65  CB  GLU d   1     -14.909   4.186  16.345  0.00  0.00    -0.029 C 
ATOM     66  H18 GLU d   1     -14.390   4.838  15.627  0.00  0.00     0.037 H 
ATOM     67  H19 GLU d   1     -15.969   4.473  16.401  0.00  0.00     0.037 H 
BRANCH  65  68
ATOM     68  CG  GLU d   1     -14.817   2.750  15.855  0.00  0.00     0.018 C 
ATOM     69  H20 GLU d   1     -15.174   2.085  16.655  0.00  0.00     0.049 H 
ATOM     70  H21 GLU d   1     -13.764   2.524  15.633  0.00  0.00     0.049 H 
BRANCH  68  71
ATOM     71  CD  GLU d   1     -15.637   2.487  14.611  0.00  0.00     0.172 C 
ATOM     72  OE1 GLU d   1     -15.272   3.012  13.537  0.00  0.00    -0.648 OA
ATOM     73  OE2 GLU d   1     -16.646   1.752  14.710  0.00  0.00    -0.648 OA
ENDBRANCH  68  71
ENDBRANCH  65  68
ENDBRANCH  37  65
ENDBRANCH  34  37
ENDBRANCH  31  33
BRANCH  31  74
ATOM     74  CB  THR d   1     -11.126   1.388  19.792  0.00  0.00     0.060 C 
ATOM     75  H24 THR d   1     -10.069   1.117  19.935  0.00  0.00     0.086 H 
BRANCH  74  76
ATOM     76  OG1 THR d   1     -11.925   0.202  19.745  0.00  0.00    -0.393 OA
ATOM     77  H25 THR d   1     -11.829  -0.275  20.561  0.00  0.00     0.210 HD
ENDBRANCH  74  76
BRANCH  74  78
ATOM     78  CG2 THR d   1     -11.592   2.244  20.955  0.00  0.00    -0.050 C 
ATOM     79  H26 THR d   1     -11.476   1.682  21.893  0.00  0.00     0.031 H 
ATOM     80  H27 THR d   1     -12.650   2.509  20.814  0.00  0.00     0.031 H 
ATOM     81  H28 THR d   1     -10.987   3.162  21.000  0.00  0.00     0.031 H 
ENDBRANCH  74  78
ENDBRANCH  31  74
ENDBRANCH  28  31
ENDBRANCH  25  27
BRANCH  25  82
ATOM     82  CB  ALA d   1      -8.107  -0.494  15.931  0.00  0.00    -0.049 C 
ATOM     83  H31 ALA d   1      -7.902  -1.192  15.106  0.00  0.00     0.030 H 
ATOM     84  H32 ALA d   1      -7.744  -0.926  16.875  0.00  0.00     0.030 H 
ATOM     85  H33 ALA d   1      -7.591   0.459  15.742  0.00  0.00     0.030 H 
ENDBRANCH  25  82
ENDBRANCH  22  25
ENDBRANCH  19  21
BRANCH  19  86
ATOM     86  CB  ALA d   1     -10.823  -3.871  19.001  0.00  0.00    -0.049 C 
ATOM     87  H36 ALA d   1     -11.350  -4.824  19.157  0.00  0.00     0.030 H 
ATOM     88  H37 ALA d   1     -11.165  -3.136  19.745  0.00  0.00     0.030 H 
ATOM     89  H38 ALA d   1      -9.740  -4.028  19.113  0.00  0.00     0.030 H 
ENDBRANCH  19  86
ENDBRANCH  16  19
ENDBRANCH  13  15
BRANCH  13  90
ATOM     90  CB  ALA d   1     -14.896  -0.375  18.391  0.00  0.00    -0.049 C 
ATOM     91  H41 ALA d   1     -15.966  -0.154  18.267  0.00  0.00     0.030 H 
ATOM     92  H42 ALA d   1     -14.300   0.438  17.950  0.00  0.00     0.030 H 
ATOM     93  H43 ALA d   1     -14.662  -0.462  19.462  0.00  0.00     0.030 H 
ENDBRANCH  13  90
ENDBRANCH  10  13
ENDBRANCH   7   9
BRANCH   7  94
ATOM     94  CB  LYS d   1     -13.001   0.134  13.493  0.00  0.00    -0.038 C 
ATOM     95  H46 LYS d   1     -12.242  -0.519  13.038  0.00  0.00     0.036 H 
ATOM     96  H47 LYS d   1     -12.558   0.676  14.342  0.00  0.00     0.036 H 
BRANCH  94  97
ATOM     97  CG  LYS d   1     -13.442   1.140  12.464  0.00  0.00    -0.061 C 
ATOM     98  H48 LYS d   1     -12.966   2.109  12.675  0.00  0.00     0.033 H 
ATOM     99  H49 LYS d   1     -14.536   1.251  12.508  0.00  0.00     0.033 H 
BRANCH  97 100
ATOM    100  CD  LYS d   1     -13.044   0.680  11.088  0.00  0.00    -0.043 C 
ATOM    101  H50 LYS d   1     -13.867   0.885  10.388  0.00  0.00     0.035 H 
ATOM    102  H51 LYS d   1     -12.846  -0.402  11.114  0.00  0.00     0.035 H 
BRANCH 100 103
ATOM    103  CE  LYS d   1     -11.795   1.402  10.611  0.00  0.00     0.080 C 
ATOM    104  H52 LYS d   1     -12.057   2.443  10.371  0.00  0.00     0.075 H 
ATOM    105  H53 LYS d   1     -11.419   0.901   9.707  0.00  0.00     0.075 H 
BRANCH 103 106
ATOM    106  NZ  LYS d   1     -10.714   1.402  11.648  0.00  0.00    -0.079 N 
ATOM    107  H54 LYS d   1      -9.907   1.889  11.292  0.00  0.00     0.274 HD
ATOM    108  H55 LYS d   1     -10.462   0.452  11.870  0.00  0.00     0.274 HD
ATOM    109  H56 LYS d   1     -11.046   1.865  12.479  0.00  0.00     0.274 HD
ENDBRANCH 103 106
ENDBRANCH 100 103
ENDBRANCH  97 100
ENDBRANCH  94  97
ENDBRANCH   7  94
ENDBRANCH   4   7
ENDBRANCH   1   3
BRANCH   1 110
ATOM    110  C   PHE d   1     -14.572  -5.019  13.301  0.00  0.00     0.241 C 
ATOM    111  O   PHE d   1     -15.132  -5.616  12.380  0.00  0.00    -0.271 OA
ATOM    112  N   GLU d   1     -15.097  -4.933  14.520  0.00  0.00    -0.346 N 
ATOM    113  H66 GLU d   1     -14.606  -4.432  15.233  0.00  0.00     0.163 HD
BRANCH 112 114
ATOM    114  CA  GLU d   1     -16.379  -5.559  14.835  0.00  0.00     0.090 C 
ATOM    115  H67 GLU d   1     -16.275  -6.639  14.653  0.00  0.00     0.087 H 
BRANCH 114 116
ATOM    116  C   GLU d   1     -17.525  -5.052  13.964  0.00  0.00     0.241 C 
ATOM    117  O   GLU d   1     -18.287  -5.847  13.412  0.00  0.00    -0.271 OA
ATOM    118  N   ARG d   1     -17.643  -3.733  13.855  0.00  0.00    -0.346 N 
ATOM    119  H72 ARG d   1     -16.990  -3.148  14.336  0.00  0.00     0.163 HD
BRANCH 118 120
ATOM    120  CA  ARG d   1     -18.690  -3.111  13.059  0.00  0.00     0.089 C 
ATOM    121  H73 ARG d   1     -19.661  -3.481  13.420  0.00  0.00     0.087 H 
BRANCH 120 122
ATOM    122  C   ARG d   1     -18.565  -3.444  11.576  0.00  0.00     0.241 C 
ATOM    123  O   ARG d   1     -19.559  -3.657  10.886  0.00  0.00    -0.271 OA
ATOM    124  N   GLN d   1     -17.333  -3.485  11.092  0.00  0.00    -0.346 N 
ATOM    125  H85 GLN d   1     -16.559  -3.328  11.706  0.00  0.00     0.163 HD
BRANCH 124 126
ATOM    126  CA  GLN d   1     -17.084  -3.754   9.687  0.00  0.00     0.090 C 
ATOM    127  H86 GLN d   1     -17.871  -3.238   9.117  0.00  0.00     0.087 H 
BRANCH 126 128
ATOM    128  C   GLN d   1     -17.093  -5.214   9.264  0.00  0.00     0.241 C 
ATOM    129  O   GLN d   1     -17.450  -5.515   8.127  0.00  0.00    -0.271 OA
ATOM    130  N   HIS d   1     -16.706  -6.124  10.155  0.00  0.00    -0.346 N 
ATOM    131  H93 HIS d   1     -16.482  -5.845  11.089  0.00  0.00     0.163 HD
BRANCH 130 132
ATOM    132  CA  HIS d   1     -16.608  -7.527   9.772  0.00  0.00     0.094 C 
ATOM    133  H94 HIS d   1     -16.940  -7.572   8.724  0.00  0.00     0.088 H 
BRANCH 132 134
ATOM    134  C   HIS d   1     -17.423  -8.569  10.510  0.00  0.00     0.241 C 
ATOM    135  O   HIS d   1     -17.491  -9.708  10.061  0.00  0.00    -0.271 OA
ATOM    136  N   MET d   1     -18.038  -8.207  11.628  0.00  0.00    -0.346 N 
ATOM    137 0H10 MET d   1     -17.988  -7.260  11.945  0.00  0.00     0.163 HD
BRANCH 136 138
ATOM    138  CA  MET d   1     -18.786  -9.197  12.391  0.00  0.00     0.090 C 
ATOM    139 1H10 MET d   1     -18.348 -10.177  12.153  0.00  0.00     0.087 H 
BRANCH 138 140
ATOM    140  C   MET d   1     -20.264  -9.289  12.089  0.00  0.00     0.241 C 
ATOM    141  O   MET d   1     -20.970  -8.292  12.102  0.00  0.00    -0.271 OA
ATOM    142  N   ASP d   1     -20.738 -10.495  11.818  0.00  0.00    -0.346 N 
ATOM    143 9H10 ASP d   1     -20.116 -11.277  11.779  0.00  0.00     0.163 HD
BRANCH 142 144
ATOM    144  CA  ASP d   1     -22.155 -10.688  11.577  0.00  0.00     0.098 C 
ATOM    145 0H11 ASP d   1     -22.713  -9.946  12.167  0.00  0.00     0.088 H 
BRANCH 144 146
ATOM    146  C   ASP d   1     -22.555 -12.077  12.031  0.00  0.00     0.241 C 
ATOM    147  O   ASP d   1     -22.985 -12.906  11.231  0.00  0.00    -0.271 OA
ATOM    148  N   SER d   1     -22.405 -12.311  13.332  0.00  0.00    -0.344 N 
ATOM    149 3H11 SER d   1     -22.050 -11.580  13.914  0.00  0.00     0.163 HD
BRANCH 148 150
ATOM    150  CA  SER d   1     -22.738 -13.592  13.941  0.00  0.00     0.109 C 
ATOM    151 4H11 SER d   1     -22.057 -14.356  13.538  0.00  0.00     0.090 H 
BRANCH 150 152
ATOM    152  C   SER d   1     -24.167 -14.008  13.631  0.00  0.00     0.240 C 
ATOM    153  O   SER d   1     -24.390 -14.985  12.911  0.00  0.00    -0.271 OA
ATOM    154  N   NH2 d   1     -25.126 -13.263  14.180  0.00  0.00    -0.368 N 
ATOM    155 8H11 NH2 d   1     -26.087 -13.484  14.015  0.00  0.00     0.159 HD
ATOM    156 9H11 NH2 d   1     -24.884 -12.483  14.757  0.00  0.00     0.159 HD
ENDBRANCH 150 152
BRANCH 150 157
ATOM    157  CB  SER d   1     -22.549 -13.512  15.455  0.00  0.00     0.044 C 
ATOM    158 5H11 SER d   1     -21.852 -14.301  15.772  0.00  0.00     0.077 H 
ATOM    159 6H11 SER d   1     -23.521 -13.662  15.947  0.00  0.00     0.077 H 
BRANCH 157 160
ATOM    160  OG  SER d   1     -22.027 -12.252  15.838  0.00  0.00    -0.398 OA
ATOM    161 7H11 SER d   1     -21.919 -12.229  16.782  0.00  0.00     0.209 HD
ENDBRANCH 157 160
ENDBRANCH 150 157
ENDBRANCH 148 150
ENDBRANCH 144 146
BRANCH 144 162
ATOM    162  CB  ASP d   1     -22.514 -10.501  10.103  0.00  0.00     0.043 C 
ATOM    163 1H11 ASP d   1     -21.991 -11.265   9.510  0.00  0.00     0.052 H 
ATOM    164 2H11 ASP d   1     -22.188  -9.501   9.782  0.00  0.00     0.052 H 
BRANCH 162 165
ATOM    165  CG  ASP d   1     -24.006 -10.631   9.864  0.00  0.00     0.175 C 
ATOM    166  OD1 ASP d   1     -24.783 -10.203  10.740  0.00  0.00    -0.648 OA
ATOM    167  OD2 ASP d   1     -24.407 -11.170   8.809  0.00  0.00    -0.648 OA
ENDBRANCH 162 165
ENDBRANCH 144 162
ENDBRANCH 142 144
ENDBRANCH 138 140
BRANCH 138 168
ATOM    168  CB  MET d   1     -18.609  -8.947  13.886  0.00  0.00    -0.030 C 
ATOM    169 2H10 MET d   1     -19.292  -9.612  14.435  0.00  0.00     0.037 H 
ATOM    170 3H10 MET d   1     -18.868  -7.899  14.098  0.00  0.00     0.037 H 
BRANCH 168 171
ATOM    171  CG  MET d   1     -17.202  -9.201  14.369  0.00  0.00    -0.021 C 
ATOM    172 4H10 MET d   1     -17.166  -9.043  15.457  0.00  0.00     0.049 H 
ATOM    173 5H10 MET d   1     -16.523  -8.492  13.873  0.00  0.00     0.049 H 
BRANCH 171 174
ATOM    174  SD  MET d   1     -16.649 -10.899  14.002  0.00  0.00    -0.173 SA
BRANCH 174 175
ATOM    175  CE  MET d   1     -18.149 -11.875  14.416  0.00  0.00    -0.035 C 
ATOM    176 6H10 MET d   1     -17.953 -12.943  14.237  0.00  0.00     0.041 H 
ATOM    177 7H10 MET d   1     -18.987 -11.546  13.784  0.00  0.00     0.041 H 
ATOM    178 8H10 MET d   1     -18.406 -11.722  15.475  0.00  0.00     0.041 H 
ENDBRANCH 174 175
ENDBRANCH 171 174
ENDBRANCH 168 171
ENDBRANCH 138 168
ENDBRANCH 136 138
ENDBRANCH 132 134
BRANCH 132 179
ATOM    179  CB  HIS d   1     -15.143  -7.958   9.823  0.00  0.00     0.004 C 
ATOM    180  H95 HIS d   1     -15.067  -8.974   9.409  0.00  0.00     0.046 H 
ATOM    181  H96 HIS d   1     -14.821  -7.965  10.875  0.00  0.00     0.046 H 
BRANCH 179 182
ATOM    182  CG  HIS d   1     -14.220  -7.066   9.054  0.00  0.00     0.053 A 
ATOM    183  ND1 HIS d   1     -14.234  -6.985   7.680  0.00  0.00    -0.247 NA
ATOM    184  CE1 HIS d   1     -13.291  -6.151   7.277  0.00  0.00     0.064 A 
ATOM    185  NE2 HIS d   1     -12.664  -5.689   8.343  0.00  0.00    -0.359 N 
ATOM    186  H98 HIS d   1     -13.069  -5.890   6.243  0.00  0.00     0.143 H 
ATOM    187  CD2 HIS d   1     -13.228  -6.241   9.467  0.00  0.00     0.002 A 
ATOM    188  H99 HIS d   1     -11.879  -5.022   8.333  0.00  0.00     0.166 HD
ATOM    189  H97 HIS d   1     -12.933  -6.051  10.498  0.00  0.00     0.114 H 
ENDBRANCH 179 182
ENDBRANCH 132 179
ENDBRANCH 130 132
ENDBRANCH 126 128
BRANCH 126 190
ATOM    190  CB  GLN d   1     -15.731  -3.189   9.281  0.00  0.00    -0.030 C 
ATOM    191  H87 GLN d   1     -15.503  -3.557   8.270  0.00  0.00     0.037 H 
ATOM    192  H88 GLN d   1     -14.981  -3.572   9.989  0.00  0.00     0.037 H 
BRANCH 190 193
ATOM    193  CG  GLN d   1     -15.619  -1.691   9.260  0.00  0.00     0.011 C 
ATOM    194  H89 GLN d   1     -15.587  -1.318  10.294  0.00  0.00     0.047 H 
ATOM    195  H90 GLN d   1     -16.497  -1.272   8.746  0.00  0.00     0.047 H 
BRANCH 193 196
ATOM    196  CD  GLN d   1     -14.361  -1.248   8.534  0.00  0.00     0.215 C 
ATOM    197  OE1 GLN d   1     -13.245  -1.620   8.910  0.00  0.00    -0.274 OA
ATOM    198  NE2 GLN d   1     -14.537  -0.459   7.482  0.00  0.00    -0.370 N 
ATOM    199  H91 GLN d   1     -13.746  -0.134   6.963  0.00  0.00     0.159 HD
ATOM    200  H92 GLN d   1     -15.460  -0.189   7.208  0.00  0.00     0.159 HD
ENDBRANCH 193 196
ENDBRANCH 190 193
ENDBRANCH 126 190
ENDBRANCH 124 126
ENDBRANCH 120 122
BRANCH 120 201
ATOM    201  CB  ARG d   1     -18.646  -1.584  13.220  0.00  0.00    -0.036 C 
ATOM    202  H74 ARG d   1     -17.634  -1.235  12.968  0.00  0.00     0.036 H 
ATOM    203  H75 ARG d   1     -18.868  -1.337  14.269  0.00  0.00     0.036 H 
BRANCH 201 204
ATOM    204  CG  ARG d   1     -19.643  -0.856  12.331  0.00  0.00    -0.048 C 
ATOM    205  H76 ARG d   1     -20.648  -1.260  12.523  0.00  0.00     0.035 H 
ATOM    206  H77 ARG d   1     -19.372  -1.031  11.279  0.00  0.00     0.035 H 
BRANCH 204 207
ATOM    207  CD  ARG d   1     -19.662   0.643  12.588  0.00  0.00     0.009 C 
ATOM    208  H78 ARG d   1     -19.959   0.823  13.632  0.00  0.00     0.064 H 
ATOM    209  H79 ARG d   1     -20.393   1.112  11.913  0.00  0.00     0.064 H 
BRANCH 207 210
ATOM    210  NE  ARG d   1     -18.353   1.242  12.358  0.00  0.00    -0.227 N 
ATOM    211  CZ  ARG d   1     -17.933   1.730  11.191  0.00  0.00     0.665 C 
ATOM    212  NH1 ARG d   1     -16.718   2.250  11.097  0.00  0.00    -0.235 N 
ATOM    213  NH2 ARG d   1     -18.722   1.709  10.115  0.00  0.00    -0.235 N 
ATOM    214  H81 ARG d   1     -16.388   2.629  10.198  0.00  0.00     0.174 HD
ATOM    215  H82 ARG d   1     -16.103   2.276  11.923  0.00  0.00     0.174 HD
ATOM    216  H83 ARG d   1     -19.668   1.307  10.178  0.00  0.00     0.174 HD
ATOM    217  H84 ARG d   1     -18.385   2.095   9.222  0.00  0.00     0.174 HD
ATOM    218  H80 ARG d   1     -17.704   1.292  13.157  0.00  0.00     0.177 HD
ENDBRANCH 207 210
ENDBRANCH 204 207
ENDBRANCH 201 204
ENDBRANCH 120 201
ENDBRANCH 118 120
ENDBRANCH 114 116
BRANCH 114 219
ATOM    219  CB  GLU d   1     -16.719  -5.353  16.312  0.00  0.00    -0.029 C 
ATOM    220  H68 GLU d   1     -17.803  -5.485  16.443  0.00  0.00     0.037 H 
ATOM    221  H69 GLU d   1     -16.438  -4.328  16.596  0.00  0.00     0.037 H 
BRANCH 219 222
ATOM    222  CG  GLU d   1     -15.989  -6.338  17.244  0.00  0.00     0.018 C 
ATOM    223  H70 GLU d   1     -14.952  -6.444  16.892  0.00  0.00     0.049 H 
ATOM    224  H71 GLU d   1     -16.497  -7.312  17.186  0.00  0.00     0.049 H 
BRANCH 222 225
ATOM    225  CD  GLU d   1     -15.958  -5.898  18.707  0.00  0.00     0.172 C 
ATOM    226  OE1 GLU d   1     -15.441  -6.669  19.543  0.00  0.00    -0.648 OA
ATOM    227  OE2 GLU d   1     -16.442  -4.795  19.028  0.00  0.00    -0.648 OA
ENDBRANCH 222 225
ENDBRANCH 219 222
ENDBRANCH 114 219
ENDBRANCH 112 114
ENDBRANCH   1 110
BRANCH   1 228
ATOM    228  CB  PHE d   1     -12.095  -5.158  13.728  0.00  0.00    -0.014 C 
ATOM    229  H59 PHE d   1     -12.207  -5.112  14.821  0.00  0.00     0.043 H 
ATOM    230  H60 PHE d   1     -11.132  -4.712  13.439  0.00  0.00     0.043 H 
BRANCH 228 231
ATOM    231  CG  PHE d   1     -12.088  -6.614  13.312  0.00  0.00    -0.056 A 
ATOM    232  CD1 PHE d   1     -11.276  -7.051  12.269  0.00  0.00    -0.077 A 
ATOM    233  CE1 PHE d   1     -11.259  -8.402  11.889  0.00  0.00    -0.082 A 
ATOM    234  H61 PHE d   1     -10.649  -6.339  11.744  0.00  0.00     0.084 H 
ATOM    235  CZ  PHE d   1     -12.060  -9.325  12.553  0.00  0.00    -0.083 A 
ATOM    236  H63 PHE d   1     -10.620  -8.727  11.076  0.00  0.00     0.083 H 
ATOM    237  CE2 PHE d   1     -12.876  -8.901  13.597  0.00  0.00    -0.082 A 
ATOM    238  H65 PHE d   1     -12.049 -10.368  12.259  0.00  0.00     0.083 H 
ATOM    239  CD2 PHE d   1     -12.887  -7.549  13.973  0.00  0.00    -0.077 A 
ATOM    240  H64 PHE d   1     -13.503  -9.614  14.120  0.00  0.00     0.083 H 
ATOM    241  H62 PHE d   1     -13.525  -7.226  14.788  0.00  0.00     0.084 H 
ENDBRANCH 228 231
ENDBRANCH   1 228
TORSDOF 71
