REMARK WARNING: 32 MAX_TORS EXCEEDED!!!
REMARK  71 active torsions:
REMARK  status: ('A' for Active; 'I' for Inactive)
REMARK    1  A    between atoms: N_1  and  CA_2 
REMARK    2  A    between atoms: CA_2  and  C_3 
REMARK    3  A    between atoms: CA_2  and  CB_5 
REMARK       I    between atoms: C_3  and  N_10 
REMARK    4  A    between atoms: CB_5  and  CG_6 
REMARK    5  A    between atoms: CG_6  and  CD_7 
REMARK    6  A    between atoms: CD_7  and  CE_8 
REMARK    7  A    between atoms: CE_8  and  NZ_9 
REMARK    8  A    between atoms: N_10  and  CA_11 
REMARK    9  A    between atoms: CA_11  and  C_12 
REMARK   10  A    between atoms: CA_11  and  CB_14 
REMARK       I    between atoms: C_12  and  N_19 
REMARK   11  A    between atoms: CB_14  and  CG_15 
REMARK   12  A    between atoms: CG_15  and  CD_16 
REMARK   13  A    between atoms: N_19  and  CA_20 
REMARK   14  A    between atoms: CA_20  and  C_21 
REMARK   15  A    between atoms: CA_20  and  CB_23 
REMARK       I    between atoms: C_21  and  N_26 
REMARK   16  A    between atoms: CB_23  and  OG1_24 
REMARK   17  A    between atoms: CB_23  and  CG2_25 
REMARK   18  A    between atoms: N_26  and  CA_27 
REMARK   19  A    between atoms: CA_27  and  C_28 
REMARK   20  A    between atoms: CA_27  and  CB_30 
REMARK       I    between atoms: C_28  and  N_31 
REMARK   21  A    between atoms: N_31  and  CA_32 
REMARK   22  A    between atoms: CA_32  and  C_33 
REMARK   23  A    between atoms: CA_32  and  CB_35 
REMARK       I    between atoms: C_33  and  N_36 
REMARK   24  A    between atoms: N_36  and  CA_37 
REMARK   25  A    between atoms: CA_37  and  C_38 
REMARK   26  A    between atoms: CA_37  and  CB_40 
REMARK       I    between atoms: C_38  and  N_41 
REMARK   27  A    between atoms: N_41  and  CA_42 
REMARK   28  A    between atoms: CA_42  and  C_43 
REMARK   29  A    between atoms: CA_42  and  CB_45 
REMARK       I    between atoms: C_43  and  N_50 
REMARK   30  A    between atoms: CB_45  and  CG_46 
REMARK   31  A    between atoms: CG_46  and  CD_47 
REMARK   32  A    between atoms: CD_47  and  CE_48 
REMARK   33  A    between atoms: CE_48  and  NZ_49 
REMARK   34  A    between atoms: N_50  and  CA_51 
REMARK   35  A    between atoms: CA_51  and  C_52 
REMARK   36  A    between atoms: CA_51  and  CB_54 
REMARK       I    between atoms: C_52  and  N_61 
REMARK   37  A    between atoms: CB_54  and  CG_55 
REMARK   38  A    between atoms: N_61  and  CA_62 
REMARK   39  A    between atoms: CA_62  and  C_63 
REMARK   40  A    between atoms: CA_62  and  CB_65 
REMARK       I    between atoms: C_63  and  N_70 
REMARK   41  A    between atoms: CB_65  and  CG_66 
REMARK   42  A    between atoms: CG_66  and  CD_67 
REMARK   43  A    between atoms: N_70  and  CA_71 
REMARK   44  A    between atoms: CA_71  and  C_72 
REMARK   45  A    between atoms: CA_71  and  CB_74 
REMARK       I    between atoms: C_72  and  N_81 
REMARK   46  A    between atoms: CB_74  and  CG_75 
REMARK   47  A    between atoms: CG_75  and  CD_76 
REMARK   48  A    between atoms: CD_76  and  NE_77 
REMARK       I    between atoms: NE_77  and  CZ_78 
REMARK       I    between atoms: CZ_78  and  NH1_79 
REMARK   49  A    between atoms: N_81  and  CA_82 
REMARK   50  A    between atoms: CA_82  and  C_83 
REMARK   51  A    between atoms: CA_82  and  CB_85 
REMARK       I    between atoms: C_83  and  N_90 
REMARK   52  A    between atoms: CB_85  and  CG_86 
REMARK   53  A    between atoms: CG_86  and  CD_87 
REMARK       I    between atoms: CD_87  and  NE2_89 
REMARK   54  A    between atoms: N_90  and  CA_91 
REMARK   55  A    between atoms: CA_91  and  C_92 
REMARK   56  A    between atoms: CA_91  and  CB_94 
REMARK       I    between atoms: C_92  and  N_100 
REMARK   57  A    between atoms: CB_94  and  CG_95 
REMARK   58  A    between atoms: N_100  and  CA_101 
REMARK   59  A    between atoms: CA_101  and  C_102 
REMARK   60  A    between atoms: CA_101  and  CB_104 
REMARK       I    between atoms: C_102  and  N_108 
REMARK   61  A    between atoms: CB_104  and  CG_105 
REMARK   62  A    between atoms: CG_105  and  SD_106 
REMARK   63  A    between atoms: SD_106  and  CE_107 
REMARK   64  A    between atoms: N_108  and  CA_109 
REMARK   65  A    between atoms: CA_109  and  C_110 
REMARK   66  A    between atoms: CA_109  and  CB_112 
REMARK       I    between atoms: C_110  and  N_116 
REMARK   67  A    between atoms: CB_112  and  CG_113 
REMARK   68  A    between atoms: N_116  and  CA_117 
REMARK   69  A    between atoms: CA_117  and  C_118 
REMARK   70  A    between atoms: CA_117  and  CB_120 
REMARK       I    between atoms: C_118  and  N_122 
REMARK   71  A    between atoms: CB_120  and  OG_121 
ROOT
ATOM      1  CA  PHE d   1     -13.198  -4.362  13.107  0.00  0.00     0.093 C 
ATOM      2  H58 PHE d   1     -12.978  -4.240  12.036  0.00  0.00     0.088 H 
ENDROOT
BRANCH   1   3
ATOM      3  N   PHE d   1     -13.300  -3.056  13.737  0.00  0.00    -0.346 N 
ATOM      4  C   LYS d   1     -14.157  -2.147  13.283  0.00  0.00     0.241 C 
ATOM      5  O   LYS d   1     -14.898  -2.351  12.311  0.00  0.00    -0.271 OA
ATOM      6  H57 PHE d   1     -12.719  -2.839  14.521  0.00  0.00     0.163 HD
BRANCH   4   7
ATOM      7  CA  LYS d   1     -14.193  -0.816  14.030  0.00  0.00     0.089 C 
ATOM      8  H45 LYS d   1     -15.178  -0.359  13.857  0.00  0.00     0.087 H 
BRANCH   7   9
ATOM      9  N   LYS d   1     -14.013  -0.959  15.467  0.00  0.00    -0.346 N 
ATOM     10  C   ALA d   1     -14.878  -1.636  16.215  0.00  0.00     0.240 C 
ATOM     11  O   ALA d   1     -15.882  -2.188  15.758  0.00  0.00    -0.271 OA
ATOM     12  H44 LYS d   1     -13.218  -0.537  15.903  0.00  0.00     0.163 HD
BRANCH  10  13
ATOM     13  CA  ALA d   1     -14.560  -1.686  17.697  0.00  0.00     0.086 C 
ATOM     14  H40 ALA d   1     -15.152  -2.479  18.177  0.00  0.00     0.086 H 
BRANCH  13  15
ATOM     15  N   ALA d   1     -13.140  -1.976  17.855  0.00  0.00    -0.346 N 
ATOM     16  C   ALA d   1     -12.634  -3.146  17.477  0.00  0.00     0.240 C 
ATOM     17  O   ALA d   1     -13.323  -4.040  16.990  0.00  0.00    -0.271 OA
ATOM     18  H39 ALA d   1     -12.537  -1.285  18.254  0.00  0.00     0.163 HD
BRANCH  16  19
ATOM     19  CA  ALA d   1     -11.129  -3.336  17.670  0.00  0.00     0.086 C 
ATOM     20  H35 ALA d   1     -10.766  -4.077  16.943  0.00  0.00     0.086 H 
BRANCH  19  21
ATOM     21  N   ALA d   1     -10.438  -2.067  17.438  0.00  0.00    -0.346 N 
ATOM     22  C   ALA d   1     -10.306  -1.548  16.218  0.00  0.00     0.240 C 
ATOM     23  O   ALA d   1     -10.736  -2.103  15.202  0.00  0.00    -0.271 OA
ATOM     24  H34 ALA d   1     -10.053  -1.575  18.219  0.00  0.00     0.163 HD
BRANCH  22  25
ATOM     25  CA  ALA d   1      -9.575  -0.208  16.123  0.00  0.00     0.086 C 
ATOM     26  H30 ALA d   1      -9.909   0.286  15.199  0.00  0.00     0.086 H 
BRANCH  25  27
ATOM     27  N   ALA d   1      -9.856   0.696  17.236  0.00  0.00    -0.346 N 
ATOM     28  C   THR d   1     -11.071   1.196  17.451  0.00  0.00     0.243 C 
ATOM     29  O   THR d   1     -12.046   0.916  16.754  0.00  0.00    -0.271 OA
ATOM     30  H29 ALA d   1      -9.112   0.947  17.856  0.00  0.00     0.163 HD
BRANCH  28  31
ATOM     31  CA  THR d   1     -11.216   2.136  18.643  0.00  0.00     0.113 C 
ATOM     32  H23 THR d   1     -10.423   2.898  18.617  0.00  0.00     0.091 H 
BRANCH  31  33
ATOM     33  N   THR d   1     -12.514   2.799  18.582  0.00  0.00    -0.344 N 
ATOM     34  C   GLU d   1     -12.783   3.733  17.674  0.00  0.00     0.241 C 
ATOM     35  O   GLU d   1     -11.949   4.109  16.851  0.00  0.00    -0.271 OA
ATOM     36  H22 THR d   1     -13.221   2.544  19.241  0.00  0.00     0.163 HD
BRANCH  34  37
ATOM     37  CA  GLU d   1     -14.202   4.329  17.699  0.00  0.00     0.090 C 
ATOM     38  H17 GLU d   1     -14.772   3.764  18.451  0.00  0.00     0.087 H 
BRANCH  37  39
ATOM     39  N   GLU d   1     -14.289   5.738  18.070  0.00  0.00    -0.346 N 
ATOM     40  C   LYS d   1     -14.430   6.119  19.339  0.00  0.00     0.248 C 
ATOM     41  O   LYS d   1     -14.482   5.321  20.279  0.00  0.00    -0.271 OA
ATOM     42  H16 GLU d   1     -14.242   6.435  17.354  0.00  0.00     0.163 HD
BRANCH  40  43
ATOM     43  CA  LYS d   1     -14.526   7.625  19.595  0.00  0.00     0.176 C 
ATOM     44  H4  LYS d   1     -15.311   7.800  20.346  0.00  0.00     0.099 H 
BRANCH  43  45
ATOM     45  N   LYS d   1     -13.240   8.162  20.123  0.00  0.00    -0.067 N 
ATOM     46  H1  LYS d   1     -13.330   9.153  20.283  0.00  0.00     0.275 HD
ATOM     47  H2  LYS d   1     -12.506   7.995  19.453  0.00  0.00     0.275 HD
ATOM     48  H3  LYS d   1     -13.014   7.701  20.991  0.00  0.00     0.275 HD
ENDBRANCH  43  45
BRANCH  43  49
ATOM     49  CB  LYS d   1     -14.911   8.358  18.304  0.00  0.00    -0.030 C 
ATOM     50  H5  LYS d   1     -14.751   7.671  17.460  0.00  0.00     0.036 H 
ATOM     51  H6  LYS d   1     -14.250   9.231  18.197  0.00  0.00     0.036 H 
BRANCH  49  52
ATOM     52  CG  LYS d   1     -16.360   8.849  18.249  0.00  0.00    -0.061 C 
ATOM     53  H7  LYS d   1     -16.650   9.216  19.244  0.00  0.00     0.033 H 
ATOM     54  H8  LYS d   1     -17.011   8.009  17.964  0.00  0.00     0.033 H 
BRANCH  52  55
ATOM     55  CD  LYS d   1     -16.536   9.982  17.230  0.00  0.00    -0.043 C 
ATOM     56  H9  LYS d   1     -15.626  10.600  17.223  0.00  0.00     0.035 H 
ATOM     57  H10 LYS d   1     -17.396  10.600  17.528  0.00  0.00     0.035 H 
BRANCH  55  58
ATOM     58  CE  LYS d   1     -16.779   9.438  15.819  0.00  0.00     0.080 C 
ATOM     59  H11 LYS d   1     -17.610   8.718  15.856  0.00  0.00     0.075 H 
ATOM     60  H12 LYS d   1     -15.867   8.928  15.475  0.00  0.00     0.075 H 
BRANCH  58  61
ATOM     61  NZ  LYS d   1     -17.123  10.521  14.843  0.00  0.00    -0.079 N 
ATOM     62  H13 LYS d   1     -17.273  10.117  13.932  0.00  0.00     0.274 HD
ATOM     63  H14 LYS d   1     -16.365  11.184  14.796  0.00  0.00     0.274 HD
ATOM     64  H15 LYS d   1     -17.962  10.991  15.145  0.00  0.00     0.274 HD
ENDBRANCH  58  61
ENDBRANCH  55  58
ENDBRANCH  52  55
ENDBRANCH  49  52
ENDBRANCH  43  49
ENDBRANCH  40  43
ENDBRANCH  37  39
BRANCH  37  65
ATOM     65  CB  GLU d   1     -14.875   4.121  16.336  0.00  0.00    -0.029 C 
ATOM     66  H18 GLU d   1     -14.167   4.413  15.547  0.00  0.00     0.037 H 
ATOM     67  H19 GLU d   1     -15.767   4.762  16.284  0.00  0.00     0.037 H 
BRANCH  65  68
ATOM     68  CG  GLU d   1     -15.298   2.683  16.099  0.00  0.00     0.018 C 
ATOM     69  H20 GLU d   1     -16.032   2.406  16.870  0.00  0.00     0.049 H 
ATOM     70  H21 GLU d   1     -14.410   2.041  16.191  0.00  0.00     0.049 H 
BRANCH  68  71
ATOM     71  CD  GLU d   1     -15.923   2.445  14.733  0.00  0.00     0.172 C 
ATOM     72  OE1 GLU d   1     -15.416   2.998  13.730  0.00  0.00    -0.648 OA
ATOM     73  OE2 GLU d   1     -16.922   1.691  14.676  0.00  0.00    -0.648 OA
ENDBRANCH  68  71
ENDBRANCH  65  68
ENDBRANCH  37  65
ENDBRANCH  34  37
ENDBRANCH  31  33
BRANCH  31  74
ATOM     74  CB  THR d   1     -11.072   1.299  19.906  0.00  0.00     0.060 C 
ATOM     75  H24 THR d   1     -10.025   0.979  20.009  0.00  0.00     0.086 H 
BRANCH  74  76
ATOM     76  OG1 THR d   1     -11.913   0.144  19.807  0.00  0.00    -0.393 OA
ATOM     77  H25 THR d   1     -11.824  -0.380  20.595  0.00  0.00     0.210 HD
ENDBRANCH  74  76
BRANCH  74  78
ATOM     78  CG2 THR d   1     -11.465   2.107  21.124  0.00  0.00    -0.050 C 
ATOM     79  H26 THR d   1     -11.355   1.487  22.026  0.00  0.00     0.031 H 
ATOM     80  H27 THR d   1     -12.512   2.431  21.027  0.00  0.00     0.031 H 
ATOM     81  H28 THR d   1     -10.814   2.990  21.204  0.00  0.00     0.031 H 
ENDBRANCH  74  78
ENDBRANCH  31  74
ENDBRANCH  28  31
ENDBRANCH  25  27
BRANCH  25  82
ATOM     82  CB  ALA d   1      -8.087  -0.434  16.030  0.00  0.00    -0.049 C 
ATOM     83  H31 ALA d   1      -7.871  -1.114  15.193  0.00  0.00     0.030 H 
ATOM     84  H32 ALA d   1      -7.724  -0.880  16.968  0.00  0.00     0.030 H 
ATOM     85  H33 ALA d   1      -7.580   0.527  15.861  0.00  0.00     0.030 H 
ENDBRANCH  25  82
ENDBRANCH  22  25
ENDBRANCH  19  21
BRANCH  19  86
ATOM     86  CB  ALA d   1     -10.843  -3.850  19.084  0.00  0.00    -0.049 C 
ATOM     87  H36 ALA d   1     -11.369  -4.803  19.241  0.00  0.00     0.030 H 
ATOM     88  H37 ALA d   1     -11.194  -3.112  19.820  0.00  0.00     0.030 H 
ATOM     89  H38 ALA d   1      -9.761  -4.004  19.206  0.00  0.00     0.030 H 
ENDBRANCH  19  86
ENDBRANCH  16  19
ENDBRANCH  13  15
BRANCH  13  90
ATOM     90  CB  ALA d   1     -14.905  -0.347  18.333  0.00  0.00    -0.049 C 
ATOM     91  H41 ALA d   1     -15.979  -0.146  18.204  0.00  0.00     0.030 H 
ATOM     92  H42 ALA d   1     -14.322   0.450  17.849  0.00  0.00     0.030 H 
ATOM     93  H43 ALA d   1     -14.664  -0.378  19.406  0.00  0.00     0.030 H 
ENDBRANCH  13  90
ENDBRANCH  10  13
ENDBRANCH   7   9
BRANCH   7  94
ATOM     94  CB  LYS d   1     -13.126   0.109  13.474  0.00  0.00    -0.038 C 
ATOM     95  H46 LYS d   1     -12.146  -0.374  13.598  0.00  0.00     0.036 H 
ATOM     96  H47 LYS d   1     -13.146   1.049  14.046  0.00  0.00     0.036 H 
BRANCH  94  97
ATOM     97  CG  LYS d   1     -13.318   0.433  12.014  0.00  0.00    -0.061 C 
ATOM     98  H48 LYS d   1     -14.265   0.975  11.879  0.00  0.00     0.033 H 
ATOM     99  H49 LYS d   1     -13.343  -0.499  11.431  0.00  0.00     0.033 H 
BRANCH  97 100
ATOM    100  CD  LYS d   1     -12.176   1.291  11.541  0.00  0.00    -0.043 C 
ATOM    101  H50 LYS d   1     -11.258   0.979  12.060  0.00  0.00     0.035 H 
ATOM    102  H51 LYS d   1     -12.395   2.341  11.783  0.00  0.00     0.035 H 
BRANCH 100 103
ATOM    103  CE  LYS d   1     -11.964   1.168  10.062  0.00  0.00     0.080 C 
ATOM    104  H52 LYS d   1     -12.891   0.813   9.588  0.00  0.00     0.075 H 
ATOM    105  H53 LYS d   1     -11.154   0.450   9.867  0.00  0.00     0.075 H 
BRANCH 103 106
ATOM    106  NZ  LYS d   1     -11.595   2.497   9.497  0.00  0.00    -0.079 N 
ATOM    107  H54 LYS d   1     -11.453   2.412   8.503  0.00  0.00     0.274 HD
ATOM    108  H55 LYS d   1     -10.745   2.822   9.931  0.00  0.00     0.274 HD
ATOM    109  H56 LYS d   1     -12.337   3.156   9.675  0.00  0.00     0.274 HD
ENDBRANCH 103 106
ENDBRANCH 100 103
ENDBRANCH  97 100
ENDBRANCH  94  97
ENDBRANCH   7  94
ENDBRANCH   4   7
ENDBRANCH   1   3
BRANCH   1 110
ATOM    110  C   PHE d   1     -14.541  -5.061  13.283  0.00  0.00     0.241 C 
ATOM    111  O   PHE d   1     -15.049  -5.688  12.359  0.00  0.00    -0.271 OA
ATOM    112  N   GLU d   1     -15.119  -4.939  14.475  0.00  0.00    -0.346 N 
ATOM    113  H66 GLU d   1     -14.664  -4.404  15.186  0.00  0.00     0.163 HD
BRANCH 112 114
ATOM    114  CA  GLU d   1     -16.402  -5.568  14.768  0.00  0.00     0.090 C 
ATOM    115  H67 GLU d   1     -16.306  -6.643  14.555  0.00  0.00     0.087 H 
BRANCH 114 116
ATOM    116  C   GLU d   1     -17.546  -5.028  13.911  0.00  0.00     0.241 C 
ATOM    117  O   GLU d   1     -18.373  -5.796  13.409  0.00  0.00    -0.271 OA
ATOM    118  N   ARG d   1     -17.588  -3.713  13.728  0.00  0.00    -0.346 N 
ATOM    119  H72 ARG d   1     -16.883  -3.135  14.139  0.00  0.00     0.163 HD
BRANCH 118 120
ATOM    120  CA  ARG d   1     -18.650  -3.099  12.935  0.00  0.00     0.089 C 
ATOM    121  H73 ARG d   1     -19.617  -3.483  13.291  0.00  0.00     0.087 H 
BRANCH 120 122
ATOM    122  C   ARG d   1     -18.509  -3.440  11.457  0.00  0.00     0.241 C 
ATOM    123  O   ARG d   1     -19.487  -3.651  10.752  0.00  0.00    -0.271 OA
ATOM    124  N   GLN d   1     -17.270  -3.515  11.004  0.00  0.00    -0.346 N 
ATOM    125  H85 GLN d   1     -16.511  -3.369  11.639  0.00  0.00     0.163 HD
BRANCH 124 126
ATOM    126  CA  GLN d   1     -16.980  -3.803   9.615  0.00  0.00     0.090 C 
ATOM    127  H86 GLN d   1     -17.730  -3.267   9.015  0.00  0.00     0.087 H 
BRANCH 126 128
ATOM    128  C   GLN d   1     -17.025  -5.264   9.188  0.00  0.00     0.241 C 
ATOM    129  O   GLN d   1     -17.370  -5.555   8.045  0.00  0.00    -0.271 OA
ATOM    130  N   HIS d   1     -16.673  -6.179  10.084  0.00  0.00    -0.346 N 
ATOM    131  H93 HIS d   1     -16.444  -5.904  11.018  0.00  0.00     0.163 HD
BRANCH 130 132
ATOM    132  CA  HIS d   1     -16.622  -7.582   9.704  0.00  0.00     0.094 C 
ATOM    133  H94 HIS d   1     -16.995  -7.623   8.670  0.00  0.00     0.088 H 
BRANCH 132 134
ATOM    134  C   HIS d   1     -17.443  -8.594  10.482  0.00  0.00     0.241 C 
ATOM    135  O   HIS d   1     -17.583  -9.728  10.031  0.00  0.00    -0.271 OA
ATOM    136  N   MET d   1     -17.988  -8.221  11.632  0.00  0.00    -0.346 N 
ATOM    137 0H10 MET d   1     -17.877  -7.284  11.962  0.00  0.00     0.163 HD
BRANCH 136 138
ATOM    138  CA  MET d   1     -18.753  -9.191  12.414  0.00  0.00     0.090 C 
ATOM    139 1H10 MET d   1     -18.328 -10.183  12.200  0.00  0.00     0.087 H 
BRANCH 138 140
ATOM    140  C   MET d   1     -20.242  -9.257  12.089  0.00  0.00     0.241 C 
ATOM    141  O   MET d   1     -20.933  -8.250  12.089  0.00  0.00    -0.271 OA
ATOM    142  N   ASP d   1     -20.726 -10.454  11.801  0.00  0.00    -0.346 N 
ATOM    143 9H10 ASP d   1     -20.104 -11.236  11.760  0.00  0.00     0.163 HD
BRANCH 142 144
ATOM    144  CA  ASP d   1     -22.136 -10.659  11.544  0.00  0.00     0.098 C 
ATOM    145 0H11 ASP d   1     -22.722  -9.931  12.124  0.00  0.00     0.088 H 
BRANCH 144 146
ATOM    146  C   ASP d   1     -22.461 -12.065  12.000  0.00  0.00     0.241 C 
ATOM    147  O   ASP d   1     -22.731 -12.944  11.188  0.00  0.00    -0.271 OA
ATOM    148  N   SER d   1     -22.428 -12.262  13.313  0.00  0.00    -0.344 N 
ATOM    149 3H11 SER d   1     -22.202 -11.492  13.911  0.00  0.00     0.163 HD
BRANCH 148 150
ATOM    150  CA  SER d   1     -22.708 -13.555  13.912  0.00  0.00     0.109 C 
ATOM    151 4H11 SER d   1     -21.961 -14.279  13.554  0.00  0.00     0.090 H 
BRANCH 150 152
ATOM    152  C   SER d   1     -24.097 -14.060  13.524  0.00  0.00     0.240 C 
ATOM    153  O   SER d   1     -24.264 -15.217  13.121  0.00  0.00    -0.271 OA
ATOM    154  N   NH2 d   1     -25.094 -13.186  13.640  0.00  0.00    -0.368 N 
ATOM    155 8H11 NH2 d   1     -26.027 -13.457  13.401  0.00  0.00     0.159 HD
ATOM    156 9H11 NH2 d   1     -24.910 -12.259  13.966  0.00  0.00     0.159 HD
ENDBRANCH 150 152
BRANCH 150 157
ATOM    157  CB  SER d   1     -22.597 -13.438  15.432  0.00  0.00     0.044 C 
ATOM    158 5H11 SER d   1     -22.211 -14.383  15.841  0.00  0.00     0.077 H 
ATOM    159 6H11 SER d   1     -23.593 -13.236  15.853  0.00  0.00     0.077 H 
BRANCH 157 160
ATOM    160  OG  SER d   1     -21.716 -12.381  15.786  0.00  0.00    -0.398 OA
ATOM    161 7H11 SER d   1     -21.658 -12.322  16.732  0.00  0.00     0.209 HD
ENDBRANCH 157 160
ENDBRANCH 150 157
ENDBRANCH 148 150
ENDBRANCH 144 146
BRANCH 144 162
ATOM    162  CB  ASP d   1     -22.490 -10.511  10.069  0.00  0.00     0.043 C 
ATOM    163 1H11 ASP d   1     -21.970 -11.295   9.499  0.00  0.00     0.052 H 
ATOM    164 2H11 ASP d   1     -22.156  -9.522   9.722  0.00  0.00     0.052 H 
BRANCH 162 165
ATOM    165  CG  ASP d   1     -23.987 -10.637   9.823  0.00  0.00     0.175 C 
ATOM    166  OD1 ASP d   1     -24.768 -10.314  10.748  0.00  0.00    -0.648 OA
ATOM    167  OD2 ASP d   1     -24.392 -11.063   8.718  0.00  0.00    -0.648 OA
ENDBRANCH 162 165
ENDBRANCH 144 162
ENDBRANCH 142 144
ENDBRANCH 138 140
BRANCH 138 168
ATOM    168  CB  MET d   1     -18.586  -8.911  13.914  0.00  0.00    -0.030 C 
ATOM    169 2H10 MET d   1     -19.369  -9.462  14.456  0.00  0.00     0.037 H 
ATOM    170 3H10 MET d   1     -18.717  -7.831  14.079  0.00  0.00     0.037 H 
BRANCH 168 171
ATOM    171  CG  MET d   1     -17.242  -9.317  14.481  0.00  0.00    -0.021 C 
ATOM    172 4H10 MET d   1     -17.302  -9.309  15.579  0.00  0.00     0.049 H 
ATOM    173 5H10 MET d   1     -16.483  -8.593  14.150  0.00  0.00     0.049 H 
BRANCH 171 174
ATOM    174  SD  MET d   1     -16.754 -10.970  13.933  0.00  0.00    -0.173 SA
BRANCH 174 175
ATOM    175  CE  MET d   1     -18.060 -11.970  14.631  0.00  0.00    -0.035 C 
ATOM    176 6H10 MET d   1     -17.891 -13.026  14.373  0.00  0.00     0.041 H 
ATOM    177 7H10 MET d   1     -19.029 -11.644  14.225  0.00  0.00     0.041 H 
ATOM    178 8H10 MET d   1     -18.064 -11.856  15.725  0.00  0.00     0.041 H 
ENDBRANCH 174 175
ENDBRANCH 171 174
ENDBRANCH 168 171
ENDBRANCH 138 168
ENDBRANCH 136 138
ENDBRANCH 132 134
BRANCH 132 179
ATOM    179  CB  HIS d   1     -15.162  -8.056   9.698  0.00  0.00     0.004 C 
ATOM    180  H95 HIS d   1     -15.117  -9.030   9.189  0.00  0.00     0.046 H 
ATOM    181  H96 HIS d   1     -14.831  -8.171  10.741  0.00  0.00     0.046 H 
BRANCH 179 182
ATOM    182  CG  HIS d   1     -14.220  -7.118   9.006  0.00  0.00     0.053 A 
ATOM    183  ND1 HIS d   1     -14.279  -6.867   7.653  0.00  0.00    -0.247 NA
ATOM    184  CE1 HIS d   1     -13.326  -6.014   7.321  0.00  0.00     0.064 A 
ATOM    185  NE2 HIS d   1     -12.648  -5.703   8.410  0.00  0.00    -0.359 N 
ATOM    186  H98 HIS d   1     -13.133  -5.633   6.319  0.00  0.00     0.143 H 
ATOM    187  CD2 HIS d   1     -13.189  -6.378   9.480  0.00  0.00     0.002 A 
ATOM    188  H99 HIS d   1     -11.845  -5.060   8.452  0.00  0.00     0.166 HD
ATOM    189  H97 HIS d   1     -12.852  -6.327  10.514  0.00  0.00     0.114 H 
ENDBRANCH 179 182
ENDBRANCH 132 179
ENDBRANCH 130 132
ENDBRANCH 126 128
BRANCH 126 190
ATOM    190  CB  GLN d   1     -15.597  -3.261   9.266  0.00  0.00    -0.030 C 
ATOM    191  H87 GLN d   1     -15.271  -3.741   8.332  0.00  0.00     0.037 H 
ATOM    192  H88 GLN d   1     -14.910  -3.537  10.079  0.00  0.00     0.037 H 
BRANCH 190 193
ATOM    193  CG  GLN d   1     -15.514  -1.771   9.075  0.00  0.00     0.011 C 
ATOM    194  H89 GLN d   1     -15.529  -1.282  10.060  0.00  0.00     0.047 H 
ATOM    195  H90 GLN d   1     -16.380  -1.436   8.486  0.00  0.00     0.047 H 
BRANCH 193 196
ATOM    196  CD  GLN d   1     -14.247  -1.382   8.352  0.00  0.00     0.215 C 
ATOM    197  OE1 GLN d   1     -13.228  -2.066   8.459  0.00  0.00    -0.274 OA
ATOM    198  NE2 GLN d   1     -14.300  -0.286   7.605  0.00  0.00    -0.370 N 
ATOM    199  H91 GLN d   1     -13.489   0.018   7.104  0.00  0.00     0.159 HD
ATOM    200  H92 GLN d   1     -15.151   0.236   7.543  0.00  0.00     0.159 HD
ENDBRANCH 193 196
ENDBRANCH 190 193
ENDBRANCH 126 190
ENDBRANCH 124 126
ENDBRANCH 120 122
BRANCH 120 201
ATOM    201  CB  ARG d   1     -18.624  -1.579  13.121  0.00  0.00    -0.036 C 
ATOM    202  H74 ARG d   1     -17.591  -1.231  12.971  0.00  0.00     0.036 H 
ATOM    203  H75 ARG d   1     -18.942  -1.352  14.149  0.00  0.00     0.036 H 
BRANCH 201 204
ATOM    204  CG  ARG d   1     -19.524  -0.820  12.168  0.00  0.00    -0.048 C 
ATOM    205  H76 ARG d   1     -20.560  -1.165  12.303  0.00  0.00     0.035 H 
ATOM    206  H77 ARG d   1     -19.202  -1.022  11.136  0.00  0.00     0.035 H 
BRANCH 204 207
ATOM    207  CD  ARG d   1     -19.465   0.683  12.421  0.00  0.00     0.009 C 
ATOM    208  H78 ARG d   1     -19.804   0.887  13.447  0.00  0.00     0.064 H 
ATOM    209  H79 ARG d   1     -20.129   1.192  11.707  0.00  0.00     0.064 H 
BRANCH 207 210
ATOM    210  NE  ARG d   1     -18.107   1.199  12.258  0.00  0.00    -0.227 N 
ATOM    211  CZ  ARG d   1     -17.614   1.684  11.122  0.00  0.00     0.665 C 
ATOM    212  NH1 ARG d   1     -16.364   2.130  11.075  0.00  0.00    -0.235 N 
ATOM    213  NH2 ARG d   1     -18.372   1.730  10.033  0.00  0.00    -0.235 N 
ATOM    214  H81 ARG d   1     -15.984   2.505  10.194  0.00  0.00     0.174 HD
ATOM    215  H82 ARG d   1     -15.775   2.101  11.919  0.00  0.00     0.174 HD
ATOM    216  H83 ARG d   1     -19.342   1.385  10.066  0.00  0.00     0.174 HD
ATOM    217  H84 ARG d   1     -17.990   2.111   9.155  0.00  0.00     0.174 HD
ATOM    218  H80 ARG d   1     -17.488   1.186  13.081  0.00  0.00     0.177 HD
ENDBRANCH 207 210
ENDBRANCH 204 207
ENDBRANCH 201 204
ENDBRANCH 120 201
ENDBRANCH 118 120
ENDBRANCH 114 116
BRANCH 114 219
ATOM    219  CB  GLU d   1     -16.722  -5.399  16.250  0.00  0.00    -0.029 C 
ATOM    220  H68 GLU d   1     -17.772  -5.683  16.416  0.00  0.00     0.037 H 
ATOM    221  H69 GLU d   1     -16.581  -4.342  16.520  0.00  0.00     0.037 H 
BRANCH 219 222
ATOM    222  CG  GLU d   1     -15.839  -6.254  17.154  0.00  0.00     0.018 C 
ATOM    223  H70 GLU d   1     -14.794  -6.139  16.830  0.00  0.00     0.049 H 
ATOM    224  H71 GLU d   1     -16.143  -7.305  17.045  0.00  0.00     0.049 H 
BRANCH 222 225
ATOM    225  CD  GLU d   1     -15.932  -5.874  18.629  0.00  0.00     0.172 C 
ATOM    226  OE1 GLU d   1     -16.266  -4.711  18.930  0.00  0.00    -0.648 OA
ATOM    227  OE2 GLU d   1     -15.667  -6.740  19.492  0.00  0.00    -0.648 OA
ENDBRANCH 222 225
ENDBRANCH 219 222
ENDBRANCH 114 219
ENDBRANCH 112 114
ENDBRANCH   1 110
BRANCH   1 228
ATOM    228  CB  PHE d   1     -12.087  -5.194  13.758  0.00  0.00    -0.014 C 
ATOM    229  H59 PHE d   1     -12.258  -5.211  14.845  0.00  0.00     0.043 H 
ATOM    230  H60 PHE d   1     -11.122  -4.711  13.546  0.00  0.00     0.043 H 
BRANCH 228 231
ATOM    231  CG  PHE d   1     -12.025  -6.622  13.262  0.00  0.00    -0.056 A 
ATOM    232  CD1 PHE d   1     -11.158  -6.981  12.241  0.00  0.00    -0.077 A 
ATOM    233  CE1 PHE d   1     -11.093  -8.305  11.784  0.00  0.00    -0.082 A 
ATOM    234  H61 PHE d   1     -10.522  -6.228  11.790  0.00  0.00     0.084 H 
ATOM    235  CZ  PHE d   1     -11.906  -9.284  12.354  0.00  0.00    -0.083 A 
ATOM    236  H63 PHE d   1     -10.409  -8.568  10.985  0.00  0.00     0.083 H 
ATOM    237  CE2 PHE d   1     -12.778  -8.945  13.374  0.00  0.00    -0.082 A 
ATOM    238  H65 PHE d   1     -11.855 -10.307  11.999  0.00  0.00     0.083 H 
ATOM    239  CD2 PHE d   1     -12.834  -7.612  13.827  0.00  0.00    -0.077 A 
ATOM    240  H64 PHE d   1     -13.414  -9.700  13.822  0.00  0.00     0.083 H 
ATOM    241  H62 PHE d   1     -13.516  -7.350  14.627  0.00  0.00     0.084 H 
ENDBRANCH 228 231
ENDBRANCH   1 228
TORSDOF 71
