REMARK  4 active torsions:
REMARK  status: ('A' for Active; 'I' for Inactive)
REMARK    1  A    between atoms: C1_1  and  S1_12 
REMARK    2  A    between atoms: N4_8  and  C2_2 
REMARK    3  A    between atoms: C3_3  and  C4_4 
REMARK       I    between atoms: C3_3  and  N4_8 
REMARK    4  A    between atoms: S1_12  and  N1_5 
ROOT
ATOM      1  C1  AZM d   1      17.791   5.537  25.436  0.00  0.00     0.237 A 
ATOM      2  C2  AZM d   1      18.344   7.677  25.906  0.00  0.00     0.197 A 
ATOM      3  N2  AZM d   1      17.084   7.474  26.128  0.00  0.00    -0.122 NA
ATOM      4  N3  AZM d   1      16.740   6.182  25.843  0.00  0.00    -0.126 NA
ATOM      5  S2  AZM d   1      19.263   6.384  25.356  0.00  0.00    -0.015 SA
ENDROOT
BRANCH   2   6
ATOM      6  N4  AZM d   1      18.746   8.946  26.166  0.00  0.00    -0.305 N 
ATOM      7  C3  AZM d   1      20.018   9.455  25.980  0.00  0.00     0.219 C 
ATOM      8  O3  AZM d   1      20.292  10.582  25.572  0.00  0.00    -0.274 OA
ATOM      9  H6  AZM d   1      18.056   9.574  26.527  0.00  0.00     0.171 HD
BRANCH   7  10
ATOM     10  C4  AZM d   1      21.163   8.518  26.318  0.00  0.00    -0.002 C 
ATOM     11  H1  AZM d   1      22.120   9.027  26.132  0.00  0.00     0.040 H 
ATOM     12  H2  AZM d   1      21.098   7.618  25.689  0.00  0.00     0.040 H 
ATOM     13  H3  AZM d   1      21.100   8.230  27.378  0.00  0.00     0.040 H 
ENDBRANCH   7  10
ENDBRANCH   2   6
BRANCH   1  14
ATOM     14  S1  AZM d   1      17.711   3.830  24.965  0.00  0.00     0.282 S 
ATOM     15  O1  AZM d   1      19.079   3.338  24.841  0.00  0.00    -0.199 OA
ATOM     16  O2  AZM d   1      17.069   3.774  23.653  0.00  0.00    -0.199 OA
BRANCH  14  17
ATOM     17  N1  AZM d   1      16.953   3.116  26.167  0.00  0.00    -0.323 N 
ATOM     18  H4  AZM d   1      16.782   2.131  26.136  0.00  0.00     0.169 HD
ATOM     19  H5  AZM d   1      16.647   3.652  26.954  0.00  0.00     0.169 HD
ENDBRANCH  14  17
ENDBRANCH   1  14
TORSDOF 4
