REMARK  32 active torsions:
REMARK  status: ('A' for Active; 'I' for Inactive)
REMARK    1  A    between atoms: CA_2  and  N_1 
REMARK    2  A    between atoms: C_3  and  CA_2 
REMARK    3  A    between atoms: CA_2  and  CB_5 
REMARK       I    between atoms: N_6  and  C_3 
REMARK    4  A    between atoms: CA_7  and  N_6 
REMARK    5  A    between atoms: C_8  and  CA_7 
REMARK    6  A    between atoms: CA_7  and  CB_10 
REMARK       I    between atoms: N_14  and  C_8 
REMARK    7  A    between atoms: CB_10  and  CG1_11 
REMARK    8  A    between atoms: CB_10  and  CG2_12 
REMARK    9  A    between atoms: CG1_11  and  CD1_13 
REMARK   10  A    between atoms: CA_15  and  N_14 
REMARK   11  A    between atoms: C_16  and  CA_15 
REMARK   12  A    between atoms: CA_15  and  CB_18 
REMARK       I    between atoms: N_19  and  C_16 
REMARK   13  A    between atoms: CA_20  and  N_19 
REMARK   14  A    between atoms: C_21  and  CA_20 
REMARK   15  A    between atoms: CA_20  and  CB_23 
REMARK       I    between atoms: N_31  and  C_21 
REMARK   16  A    between atoms: CB_23  and  CG_24 
REMARK   17  A    between atoms: CZ_29  and  OH_30 
REMARK   18  A    between atoms: CA_32  and  N_31 
REMARK   19  A    between atoms: C_33  and  CA_32 
REMARK   20  A    between atoms: CA_32  and  CB_35 
REMARK       I    between atoms: N_42  and  C_33 
REMARK   21  A    between atoms: CB_35  and  CG_36 
REMARK   22  A    between atoms: CA_43  and  N_42 
REMARK   23  A    between atoms: C_44  and  CA_43 
REMARK   24  A    between atoms: CA_43  and  CB_46 
REMARK       I    between atoms: N_50  and  C_44 
REMARK   25  A    between atoms: CB_46  and  CG1_47 
REMARK   26  A    between atoms: CB_46  and  CG2_48 
REMARK   27  A    between atoms: CG1_47  and  CD1_49 
REMARK   28  A    between atoms: C_52  and  CA_51 
REMARK       I    between atoms: C_52  and  N_57 
REMARK   29  A    between atoms: N_57  and  CA_58 
REMARK   30  A    between atoms: CA_58  and  C_59 
REMARK   31  A    between atoms: CA_58  and  CB_61 
REMARK   32  A    between atoms: CB_61  and  CG_62 
ROOT
ATOM      1  C   TYR d   1      -0.773  44.212  13.107  0.00  0.00     0.241 C 
ATOM      2  O   TYR d   1      -1.912  43.773  12.918  0.00  0.00    -0.271 OA
ATOM      3  N   PHE d   1      -0.488  45.508  13.115  0.00  0.00    -0.346 N 
ATOM      4  H33 PHE d   1       0.454  45.791  13.297  0.00  0.00     0.163 HD
ENDROOT
BRANCH   3   5
ATOM      5  CA  PHE d   1      -1.487  46.531  12.870  0.00  0.00     0.093 C 
ATOM      6  H34 PHE d   1      -2.241  46.128  12.178  0.00  0.00     0.088 H 
BRANCH   5   7
ATOM      7  C   PHE d   1      -0.810  47.725  12.229  0.00  0.00     0.241 C 
ATOM      8  O   PHE d   1       0.152  48.276  12.771  0.00  0.00    -0.271 OA
ATOM      9  N   ILE d   1      -1.294  48.087  11.044  0.00  0.00    -0.346 N 
ATOM     10  H42 ILE d   1      -2.038  47.551  10.645  0.00  0.00     0.163 HD
BRANCH   9  11
ATOM     11  CA  ILE d   1      -0.784  49.230  10.307  0.00  0.00     0.092 C 
ATOM     12  H43 ILE d   1       0.029  49.710  10.871  0.00  0.00     0.088 H 
BRANCH  11  13
ATOM     13  C   ILE d   1      -1.960  50.188  10.160  0.00  0.00     0.243 C 
ATOM     14  O   ILE d   1      -3.032  49.790   9.712  0.00  0.00    -0.271 OA
ATOM     15  N   PRO d   1      -1.792  51.447  10.609  0.00  0.00    -0.337 N 
ATOM     16  CA  PRO d   1      -2.827  52.486  10.544  0.00  0.00     0.091 C 
ATOM     17  CD  PRO d   1      -0.537  52.002  11.157  0.00  0.00    -0.001 C 
ATOM     18  CB  PRO d   1      -2.018  53.766  10.717  0.00  0.00    -0.036 C 
ATOM     19  H53 PRO d   1      -3.544  52.368  11.370  0.00  0.00     0.087 H 
ATOM     20  CG  PRO d   1      -0.978  53.346  11.696  0.00  0.00    -0.048 C 
ATOM     21  H54 PRO d   1      -2.639  54.580  11.119  0.00  0.00     0.036 H 
ATOM     22  H55 PRO d   1      -1.566  54.085   9.766  0.00  0.00     0.036 H 
ATOM     23  H56 PRO d   1      -1.401  53.249  12.707  0.00  0.00     0.035 H 
ATOM     24  H57 PRO d   1      -0.141  54.059  11.716  0.00  0.00     0.035 H 
ATOM     25  H58 PRO d   1      -0.138  51.364  11.959  0.00  0.00     0.064 H 
ATOM     26  H59 PRO d   1       0.222  52.120  10.370  0.00  0.00     0.064 H 
BRANCH  16  27
ATOM     27  C   PRO d   1      -3.598  52.462   9.221  0.00  0.00     0.241 C 
ATOM     28  O   PRO d   1      -3.022  52.693   8.161  0.00  0.00    -0.271 OA
ATOM     29  N   ASP d   1      -4.874  52.079   9.322  0.00  0.00    -0.344 N 
ATOM     30  H60 ASP d   1      -5.202  51.846  10.237  0.00  0.00     0.163 HD
BRANCH  29  31
ATOM     31  CA  ASP d   1      -5.844  51.966   8.223  0.00  0.00     0.105 C 
ATOM     32  H61 ASP d   1      -6.082  50.895   8.140  0.00  0.00     0.090 H 
BRANCH  31  33
ATOM     33  C   ASP d   1      -5.380  52.398   6.830  0.00  0.00     0.197 C 
ATOM     34  O   ASP d   1      -5.126  51.506   5.985  0.00  0.00    -0.646 OA
ATOM     35  O1  ASP d   1      -5.256  53.618   6.539  0.00  0.00    -0.646 OA
ENDBRANCH  31  33
BRANCH  31  36
ATOM     36  CB  ASP d   1      -7.138  52.691   8.605  0.00  0.00     0.044 C 
ATOM     37  H62 ASP d   1      -7.952  52.324   7.962  0.00  0.00     0.053 H 
ATOM     38  H63 ASP d   1      -7.000  53.770   8.442  0.00  0.00     0.053 H 
BRANCH  36  39
ATOM     39  CG  ASP d   1      -7.522  52.462  10.055  0.00  0.00     0.175 C 
ATOM     40  OD1 ASP d   1      -7.083  53.260  10.914  0.00  0.00    -0.648 OA
ATOM     41  OD2 ASP d   1      -8.225  51.469  10.345  0.00  0.00    -0.648 OA
ENDBRANCH  36  39
ENDBRANCH  31  36
ENDBRANCH  29  31
ENDBRANCH  16  27
ENDBRANCH  11  13
BRANCH  11  42
ATOM     42  CB  ILE d   1      -0.254  48.806   8.913  0.00  0.00    -0.030 C 
ATOM     43  H44 ILE d   1      -1.000  48.158   8.430  0.00  0.00     0.043 H 
BRANCH  42  44
ATOM     44  CG1 ILE d   1       1.050  48.020   9.085  0.00  0.00    -0.063 C 
ATOM     45  H45 ILE d   1       0.847  47.153   9.731  0.00  0.00     0.033 H 
ATOM     46  H46 ILE d   1       1.786  48.676   9.572  0.00  0.00     0.033 H 
BRANCH  44  47
ATOM     47  CD1 ILE d   1       1.649  47.516   7.788  0.00  0.00    -0.076 C 
ATOM     48  H50 ILE d   1       2.577  46.966   8.002  0.00  0.00     0.027 H 
ATOM     49  H51 ILE d   1       1.872  48.370   7.131  0.00  0.00     0.027 H 
ATOM     50  H52 ILE d   1       0.933  46.846   7.289  0.00  0.00     0.027 H 
ENDBRANCH  44  47
ENDBRANCH  42  44
BRANCH  42  51
ATOM     51  CG2 ILE d   1      -0.030  50.028   8.036  0.00  0.00    -0.071 C 
ATOM     52  H47 ILE d   1      -0.976  50.578   7.925  0.00  0.00     0.028 H 
ATOM     53  H48 ILE d   1       0.327  49.708   7.046  0.00  0.00     0.028 H 
ATOM     54  H49 ILE d   1       0.721  50.682   8.503  0.00  0.00     0.028 H 
ENDBRANCH  42  51
ENDBRANCH  11  42
ENDBRANCH   9  11
ENDBRANCH   5   7
BRANCH   5  55
ATOM     55  CB  PHE d   1      -2.194  46.971  14.158  0.00  0.00    -0.014 C 
ATOM     56  H35 PHE d   1      -1.431  47.278  14.888  0.00  0.00     0.043 H 
ATOM     57  H36 PHE d   1      -2.759  46.115  14.556  0.00  0.00     0.043 H 
BRANCH  55  58
ATOM     58  CG  PHE d   1      -3.149  48.121  13.952  0.00  0.00    -0.056 A 
ATOM     59  CD2 PHE d   1      -2.744  49.437  14.186  0.00  0.00    -0.077 A 
ATOM     60  CE2 PHE d   1      -3.596  50.515  13.930  0.00  0.00    -0.082 A 
ATOM     61  H38 PHE d   1      -1.750  49.626  14.574  0.00  0.00     0.084 H 
ATOM     62  CZ  PHE d   1      -4.873  50.280  13.433  0.00  0.00    -0.083 A 
ATOM     63  H40 PHE d   1      -3.263  51.529  14.118  0.00  0.00     0.083 H 
ATOM     64  CE1 PHE d   1      -5.298  48.967  13.197  0.00  0.00    -0.082 A 
ATOM     65  H41 PHE d   1      -5.538  51.111  13.229  0.00  0.00     0.083 H 
ATOM     66  CD1 PHE d   1      -4.434  47.897  13.459  0.00  0.00    -0.077 A 
ATOM     67  H39 PHE d   1      -6.294  48.779  12.812  0.00  0.00     0.083 H 
ATOM     68  H37 PHE d   1      -4.768  46.882  13.276  0.00  0.00     0.084 H 
ENDBRANCH  55  58
ENDBRANCH   5  55
ENDBRANCH   3   5
BRANCH   1  69
ATOM     69  CA  TYR d   1       0.411  43.276  13.336  0.00  0.00     0.093 C 
ATOM     70  H25 TYR d   1       0.356  42.501  12.558  0.00  0.00     0.088 H 
BRANCH  69  71
ATOM     71  CB  TYR d   1       0.333  42.551  14.694  0.00  0.00    -0.014 C 
ATOM     72  H26 TYR d   1       1.215  41.898  14.771  0.00  0.00     0.043 H 
ATOM     73  H27 TYR d   1      -0.579  41.936  14.688  0.00  0.00     0.043 H 
BRANCH  71  74
ATOM     74  CG  TYR d   1       0.294  43.410  15.937  0.00  0.00    -0.056 A 
ATOM     75  CD2 TYR d   1       1.469  43.799  16.578  0.00  0.00    -0.074 A 
ATOM     76  CE2 TYR d   1       1.436  44.494  17.792  0.00  0.00    -0.051 A 
ATOM     77  H29 TYR d   1       2.425  43.559  16.128  0.00  0.00     0.084 H 
ATOM     78  CZ  TYR d   1       0.215  44.801  18.372  0.00  0.00     0.065 A 
ATOM     79  H31 TYR d   1       2.360  44.791  18.276  0.00  0.00     0.087 H 
ATOM     80  CE1 TYR d   1      -0.965  44.433  17.747  0.00  0.00    -0.051 A 
ATOM     81  CD1 TYR d   1      -0.920  43.740  16.534  0.00  0.00    -0.074 A 
ATOM     82  H30 TYR d   1      -1.919  44.681  18.197  0.00  0.00     0.087 H 
ATOM     83  H28 TYR d   1      -1.847  43.454  16.049  0.00  0.00     0.084 H 
BRANCH  78  84
ATOM     84  OH  TYR d   1       0.164  45.442  19.584  0.00  0.00    -0.361 OA
ATOM     85  H32 TYR d   1       1.047  45.627  19.881  0.00  0.00     0.217 HD
ENDBRANCH  78  84
ENDBRANCH  71  74
ENDBRANCH  69  71
BRANCH  69  86
ATOM     86  N   TYR d   1       1.690  43.957  13.166  0.00  0.00    -0.346 N 
ATOM     87  C   ALA d   1       2.147  44.231  11.946  0.00  0.00     0.240 C 
ATOM     88  O   ALA d   1       1.556  43.898  10.923  0.00  0.00    -0.271 OA
ATOM     89  H24 TYR d   1       2.225  44.219  13.969  0.00  0.00     0.163 HD
BRANCH  87  90
ATOM     90  CA  ALA d   1       3.486  44.939  11.860  0.00  0.00     0.086 C 
ATOM     91  H20 ALA d   1       3.742  45.351  12.847  0.00  0.00     0.086 H 
BRANCH  90  92
ATOM     92  CB  ALA d   1       3.434  46.076  10.851  0.00  0.00    -0.049 C 
ATOM     93  H21 ALA d   1       2.669  46.804  11.158  0.00  0.00     0.030 H 
ATOM     94  H22 ALA d   1       3.180  45.675   9.859  0.00  0.00     0.030 H 
ATOM     95  H23 ALA d   1       4.415  46.572  10.806  0.00  0.00     0.030 H 
ENDBRANCH  90  92
BRANCH  90  96
ATOM     96  N   ALA d   1       4.492  43.970  11.467  0.00  0.00    -0.346 N 
ATOM     97  C   ILE d   1       5.102  43.211  12.367  0.00  0.00     0.241 C 
ATOM     98  O   ILE d   1       4.909  43.327  13.585  0.00  0.00    -0.271 OA
ATOM     99  H19 ALA d   1       4.729  43.873  10.501  0.00  0.00     0.163 HD
BRANCH  97 100
ATOM    100  CA  ILE d   1       6.141  42.228  11.832  0.00  0.00     0.092 C 
ATOM    101  H9  ILE d   1       6.520  42.587  10.864  0.00  0.00     0.088 H 
BRANCH 100 102
ATOM    102  CB  ILE d   1       5.499  40.827  11.619  0.00  0.00    -0.030 C 
ATOM    103  H10 ILE d   1       4.710  40.917  10.858  0.00  0.00     0.043 H 
BRANCH 102 104
ATOM    104  CG1 ILE d   1       4.879  40.318  12.911  0.00  0.00    -0.063 C 
ATOM    105  H11 ILE d   1       4.191  41.087  13.294  0.00  0.00     0.033 H 
ATOM    106  H12 ILE d   1       5.684  40.150  13.641  0.00  0.00     0.033 H 
BRANCH 104 107
ATOM    107  CD1 ILE d   1       4.112  39.033  12.744  0.00  0.00    -0.076 C 
ATOM    108  H16 ILE d   1       3.694  38.727  13.714  0.00  0.00     0.027 H 
ATOM    109  H17 ILE d   1       4.787  38.249  12.372  0.00  0.00     0.027 H 
ATOM    110  H18 ILE d   1       3.294  39.185  12.024  0.00  0.00     0.027 H 
ENDBRANCH 104 107
ENDBRANCH 102 104
BRANCH 102 111
ATOM    111  CG2 ILE d   1       6.544  39.819  11.130  0.00  0.00    -0.071 C 
ATOM    112  H13 ILE d   1       6.995  40.183  10.195  0.00  0.00     0.028 H 
ATOM    113  H14 ILE d   1       6.060  38.848  10.950  0.00  0.00     0.028 H 
ATOM    114  H15 ILE d   1       7.327  39.703  11.894  0.00  0.00     0.028 H 
ENDBRANCH 102 111
ENDBRANCH 100 102
BRANCH 100 115
ATOM    115  N   ILE d   1       7.236  42.196  12.786  0.00  0.00    -0.346 N 
ATOM    116  C   ALA d   1       8.466  42.525  12.422  0.00  0.00     0.248 C 
ATOM    117  O   ALA d   1       8.779  42.782  11.263  0.00  0.00    -0.271 OA
ATOM    118  H8  ILE d   1       7.058  41.922  13.731  0.00  0.00     0.163 HD
BRANCH 116 119
ATOM    119  CA  ALA d   1       9.519  42.486  13.502  0.00  0.00     0.172 C 
ATOM    120  H4  ALA d   1       9.382  41.599  14.139  0.00  0.00     0.098 H 
BRANCH 119 121
ATOM    121  CB  ALA d   1       9.428  43.746  14.356  0.00  0.00    -0.042 C 
ATOM    122  H5  ALA d   1       8.451  43.777  14.861  0.00  0.00     0.030 H 
ATOM    123  H6  ALA d   1       9.537  44.633  13.714  0.00  0.00     0.030 H 
ATOM    124  H7  ALA d   1      10.230  43.738  15.108  0.00  0.00     0.030 H 
ENDBRANCH 119 121
BRANCH 119 125
ATOM    125  N   ALA d   1      10.826  42.421  12.810  0.00  0.00    -0.067 N 
ATOM    126  H1  ALA d   1      11.567  42.393  13.493  0.00  0.00     0.275 HD
ATOM    127  H2  ALA d   1      10.938  43.235  12.226  0.00  0.00     0.275 HD
ATOM    128  H3  ALA d   1      10.863  41.591  12.240  0.00  0.00     0.275 HD
ENDBRANCH 119 125
ENDBRANCH 116 119
ENDBRANCH 100 115
ENDBRANCH  97 100
ENDBRANCH  90  96
ENDBRANCH  87  90
ENDBRANCH  69  86
ENDBRANCH   1  69
TORSDOF 32
