REMARK  30 active torsions:
REMARK  status: ('A' for Active; 'I' for Inactive)
REMARK    1  A    between atoms: N_1  and  CA_2 
REMARK    2  A    between atoms: CA_2  and  C_3 
REMARK    3  A    between atoms: CA_2  and  CB_5 
REMARK       I    between atoms: C_3  and  N_6 
REMARK    4  A    between atoms: N_6  and  CA_7 
REMARK    5  A    between atoms: CA_7  and  C_8 
REMARK    6  A    between atoms: CA_7  and  CB_10 
REMARK       I    between atoms: C_8  and  N_13 
REMARK    7  A    between atoms: CB_10  and  CG1_11 
REMARK    8  A    between atoms: CB_10  and  CG2_12 
REMARK    9  A    between atoms: CA_14  and  C_15 
REMARK       I    between atoms: C_15  and  N_20 
REMARK   10  A    between atoms: N_20  and  CA_21 
REMARK   11  A    between atoms: CA_21  and  C_22 
REMARK   12  A    between atoms: CA_21  and  CB_24 
REMARK       I    between atoms: C_22  and  N_31 
REMARK   13  A    between atoms: CB_24  and  CG_25 
REMARK   14  A    between atoms: N_31  and  CA_32 
REMARK   15  A    between atoms: CA_32  and  C_33 
REMARK   16  A    between atoms: CA_32  and  CB_35 
REMARK       I    between atoms: C_33  and  N_43 
REMARK   17  A    between atoms: CB_35  and  CG_36 
REMARK   18  A    between atoms: CZ_41  and  OH_42 
REMARK   19  A    between atoms: N_43  and  CA_44 
REMARK   20  A    between atoms: CA_44  and  C_45 
REMARK   21  A    between atoms: CA_44  and  CB_47 
REMARK       I    between atoms: C_45  and  N_51 
REMARK   22  A    between atoms: CB_47  and  CG_48 
REMARK   23  A    between atoms: CG_48  and  CD1_49 
REMARK   24  A    between atoms: CG_48  and  CD2_50 
REMARK   25  A    between atoms: CA_52  and  C_53 
REMARK       I    between atoms: C_53  and  N_58 
REMARK   26  A    between atoms: N_58  and  CA_59 
REMARK   27  A    between atoms: CA_59  and  C_60 
REMARK   28  A    between atoms: CA_59  and  CB_62 
REMARK   29  A    between atoms: CB_62  and  CG_63 
REMARK   30  A    between atoms: CG_63  and  CD_64 
ROOT
ATOM      1  CA  TYR d   1      -1.937  46.440  13.269  0.00  0.00     0.093 C 
ATOM      2  H34 TYR d   1      -2.737  46.058  12.618  0.00  0.00     0.088 H 
ENDROOT
BRANCH   1   3
ATOM      3  N   TYR d   1      -0.968  45.362  13.498  0.00  0.00    -0.346 N 
ATOM      4  C   PHE d   1      -1.300  44.092  13.735  0.00  0.00     0.241 C 
ATOM      5  O   PHE d   1      -2.470  43.681  13.737  0.00  0.00    -0.271 OA
ATOM      6  H33 TYR d   1       0.004  45.595  13.475  0.00  0.00     0.163 HD
BRANCH   4   7
ATOM      7  CA  PHE d   1      -0.124  43.146  13.931  0.00  0.00     0.093 C 
ATOM      8  H25 PHE d   1      -0.218  42.319  13.212  0.00  0.00     0.088 H 
BRANCH   7   9
ATOM      9  N   PHE d   1       1.093  43.887  13.618  0.00  0.00    -0.346 N 
ATOM     10  C   PRO d   1       1.832  43.575  12.561  0.00  0.00     0.241 C 
ATOM     11  O   PRO d   1       1.602  42.599  11.836  0.00  0.00    -0.271 OA
ATOM     12  H24 PHE d   1       1.375  44.642  14.210  0.00  0.00     0.163 HD
BRANCH  10  13
ATOM     13  CA  PRO d   1       3.038  44.474  12.293  0.00  0.00     0.091 C 
ATOM     14  N   PRO d   1       4.153  43.793  11.624  0.00  0.00    -0.337 N 
ATOM     15  C   VAL d   1       4.891  42.979  12.371  0.00  0.00     0.243 C 
ATOM     16  CD  PRO d   1       4.359  44.334  10.277  0.00  0.00    -0.001 C 
ATOM     17  O   VAL d   1       4.757  42.948  13.587  0.00  0.00    -0.271 OA
ATOM     18  CG  PRO d   1       2.978  44.928   9.982  0.00  0.00    -0.048 C 
ATOM     19  H22 PRO d   1       4.619  43.542   9.559  0.00  0.00     0.064 H 
ATOM     20  H23 PRO d   1       5.141  45.108  10.268  0.00  0.00     0.064 H 
ATOM     21  CB  PRO d   1       2.683  45.566  11.285  0.00  0.00    -0.036 C 
ATOM     22  H20 PRO d   1       3.018  45.666   9.167  0.00  0.00     0.035 H 
ATOM     23  H21 PRO d   1       2.243  44.148   9.735  0.00  0.00     0.035 H 
ATOM     24  H18 PRO d   1       3.305  46.461  11.437  0.00  0.00     0.036 H 
ATOM     25  H19 PRO d   1       1.621  45.841  11.358  0.00  0.00     0.036 H 
ATOM     26  H17 PRO d   1       3.372  44.909  13.246  0.00  0.00     0.087 H 
BRANCH  15  27
ATOM     27  CA  VAL d   1       6.062  42.233  11.698  0.00  0.00     0.092 C 
ATOM     28  H9  VAL d   1       6.351  42.780  10.789  0.00  0.00     0.088 H 
BRANCH  27  29
ATOM     29  N   VAL d   1       7.187  42.234  12.635  0.00  0.00    -0.346 N 
ATOM     30  C   ALA d   1       8.413  42.654  12.310  0.00  0.00     0.248 C 
ATOM     31  O   ALA d   1       8.714  43.016  11.168  0.00  0.00    -0.271 OA
ATOM     32  H8  VAL d   1       7.030  41.904  13.566  0.00  0.00     0.163 HD
BRANCH  30  33
ATOM     33  CA  ALA d   1       9.469  42.600  13.422  0.00  0.00     0.172 C 
ATOM     34  H4  ALA d   1       9.266  41.712  14.038  0.00  0.00     0.098 H 
BRANCH  33  35
ATOM     35  N   ALA d   1      10.834  42.470  12.853  0.00  0.00    -0.067 N 
ATOM     36  H1  ALA d   1      11.508  42.437  13.602  0.00  0.00     0.275 HD
ATOM     37  H2  ALA d   1      11.028  43.262  12.261  0.00  0.00     0.275 HD
ATOM     38  H3  ALA d   1      10.893  41.623  12.310  0.00  0.00     0.275 HD
ENDBRANCH  33  35
BRANCH  33  39
ATOM     39  CB  ALA d   1       9.400  43.837  14.330  0.00  0.00    -0.042 C 
ATOM     40  H5  ALA d   1       8.387  43.928  14.749  0.00  0.00     0.030 H 
ATOM     41  H6  ALA d   1       9.637  44.737  13.743  0.00  0.00     0.030 H 
ATOM     42  H7  ALA d   1      10.127  43.732  15.149  0.00  0.00     0.030 H 
ENDBRANCH  33  39
ENDBRANCH  30  33
ENDBRANCH  27  29
BRANCH  27  43
ATOM     43  CB  VAL d   1       5.688  40.755  11.282  0.00  0.00    -0.033 C 
ATOM     44  H10 VAL d   1       5.543  40.159  12.195  0.00  0.00     0.042 H 
BRANCH  43  45
ATOM     45  CG1 VAL d   1       4.403  40.718  10.457  0.00  0.00    -0.071 C 
ATOM     46  H11 VAL d   1       4.172  39.678  10.185  0.00  0.00     0.028 H 
ATOM     47  H12 VAL d   1       4.537  41.315   9.543  0.00  0.00     0.028 H 
ATOM     48  H13 VAL d   1       3.575  41.135  11.049  0.00  0.00     0.028 H 
ENDBRANCH  43  45
BRANCH  43  49
ATOM     49  CG2 VAL d   1       6.814  40.143  10.458  0.00  0.00    -0.071 C 
ATOM     50  H14 VAL d   1       7.747  40.163  11.040  0.00  0.00     0.028 H 
ATOM     51  H15 VAL d   1       6.947  40.722   9.532  0.00  0.00     0.028 H 
ATOM     52  H16 VAL d   1       6.561  39.102  10.207  0.00  0.00     0.028 H 
ENDBRANCH  43  49
ENDBRANCH  27  43
ENDBRANCH  15  27
ENDBRANCH  10  13
ENDBRANCH   7   9
BRANCH   7  53
ATOM     53  CB  PHE d   1      -0.113  42.527  15.348  0.00  0.00    -0.014 C 
ATOM     54  H26 PHE d   1       0.720  41.810  15.400  0.00  0.00     0.043 H 
ATOM     55  H27 PHE d   1      -1.065  41.995  15.494  0.00  0.00     0.043 H 
BRANCH  53  56
ATOM     56  CG  PHE d   1       0.050  43.517  16.483  0.00  0.00    -0.056 A 
ATOM     57  CD1 PHE d   1      -1.047  44.153  17.059  0.00  0.00    -0.077 A 
ATOM     58  CE1 PHE d   1      -0.879  44.998  18.162  0.00  0.00    -0.082 A 
ATOM     59  H28 PHE d   1      -2.038  43.992  16.650  0.00  0.00     0.084 H 
ATOM     60  CZ  PHE d   1       0.375  45.217  18.694  0.00  0.00    -0.083 A 
ATOM     61  H30 PHE d   1      -1.742  45.485  18.602  0.00  0.00     0.083 H 
ATOM     62  CE2 PHE d   1       1.456  44.610  18.141  0.00  0.00    -0.082 A 
ATOM     63  H32 PHE d   1       0.496  45.871  19.550  0.00  0.00     0.083 H 
ATOM     64  CD2 PHE d   1       1.302  43.762  17.034  0.00  0.00    -0.077 A 
ATOM     65  H31 PHE d   1       2.442  44.781  18.556  0.00  0.00     0.083 H 
ATOM     66  H29 PHE d   1       2.176  43.289  16.601  0.00  0.00     0.084 H 
ENDBRANCH  53  56
ENDBRANCH   7  53
ENDBRANCH   4   7
ENDBRANCH   1   3
BRANCH   1  67
ATOM     67  C   TYR d   1      -1.241  47.607  12.569  0.00  0.00     0.241 C 
ATOM     68  O   TYR d   1      -0.161  48.029  12.976  0.00  0.00    -0.271 OA
ATOM     69  N   LEU d   1      -1.862  48.086  11.493  0.00  0.00    -0.346 N 
ATOM     70  H42 LEU d   1      -2.715  47.647  11.211  0.00  0.00     0.163 HD
BRANCH  69  71
ATOM     71  CA  LEU d   1      -1.379  49.207  10.701  0.00  0.00     0.090 C 
ATOM     72  H43 LEU d   1      -0.533  49.699  11.204  0.00  0.00     0.087 H 
BRANCH  71  73
ATOM     73  C   LEU d   1      -2.561  50.175  10.571  0.00  0.00     0.243 C 
ATOM     74  O   LEU d   1      -3.702  49.743  10.501  0.00  0.00    -0.271 OA
ATOM     75  N   PRO d   1      -2.305  51.496  10.604  0.00  0.00    -0.337 N 
ATOM     76  CA  PRO d   1      -3.380  52.497  10.485  0.00  0.00     0.091 C 
ATOM     77  CD  PRO d   1      -1.015  52.146  10.859  0.00  0.00    -0.001 C 
ATOM     78  CB  PRO d   1      -2.611  53.824  10.509  0.00  0.00    -0.036 C 
ATOM     79  H53 PRO d   1      -4.093  52.429  11.320  0.00  0.00     0.087 H 
ATOM     80  CG  PRO d   1      -1.440  53.527  11.364  0.00  0.00    -0.048 C 
ATOM     81  H54 PRO d   1      -3.224  54.626  10.946  0.00  0.00     0.036 H 
ATOM     82  H55 PRO d   1      -2.295  54.114   9.496  0.00  0.00     0.036 H 
ATOM     83  H56 PRO d   1      -1.720  53.494  12.427  0.00  0.00     0.035 H 
ATOM     84  H57 PRO d   1      -0.641  54.269  11.218  0.00  0.00     0.035 H 
ATOM     85  H58 PRO d   1      -0.419  52.225   9.938  0.00  0.00     0.064 H 
ATOM     86  H59 PRO d   1      -0.439  51.603  11.623  0.00  0.00     0.064 H 
BRANCH  76  87
ATOM     87  C   PRO d   1      -4.110  52.320   9.157  0.00  0.00     0.241 C 
ATOM     88  O   PRO d   1      -3.501  51.871   8.171  0.00  0.00    -0.271 OA
ATOM     89  N   GLU d   1      -5.393  52.688   9.132  0.00  0.00    -0.348 N 
ATOM     90  H60 GLU d   1      -5.800  53.062   9.965  0.00  0.00     0.163 HD
BRANCH  89  91
ATOM     91  CA  GLU d   1      -6.230  52.567   7.936  0.00  0.00     0.063 C 
ATOM     92  H61 GLU d   1      -6.186  51.521   7.598  0.00  0.00     0.083 H 
BRANCH  91  93
ATOM     93  C   GLU d   1      -5.724  53.455   6.797  0.00  0.00     0.109 C 
ATOM     94  O   GLU d   1      -5.295  54.600   7.068  0.00  0.00    -0.305 OA
ATOM     95  H62 GLU d   1      -5.737  53.097   5.769  0.00  0.00     0.146 H 
ENDBRANCH  91  93
BRANCH  91  96
ATOM     96  CB  GLU d   1      -7.698  52.909   8.258  0.00  0.00    -0.031 C 
ATOM     97  H63 GLU d   1      -8.267  52.876   7.317  0.00  0.00     0.037 H 
ATOM     98  H64 GLU d   1      -7.726  53.929   8.668  0.00  0.00     0.037 H 
BRANCH  96  99
ATOM     99  CG  GLU d   1      -8.391  51.977   9.263  0.00  0.00     0.018 C 
ATOM    100  H65 GLU d   1      -8.000  50.959   9.123  0.00  0.00     0.049 H 
ATOM    101  H66 GLU d   1      -9.472  51.985   9.060  0.00  0.00     0.049 H 
BRANCH  99 102
ATOM    102  CD  GLU d   1      -8.168  52.386  10.710  0.00  0.00     0.172 C 
ATOM    103  OE1 GLU d   1      -8.888  53.290  11.191  0.00  0.00    -0.648 OA
ATOM    104  OE2 GLU d   1      -7.279  51.807  11.366  0.00  0.00    -0.648 OA
ENDBRANCH  99 102
ENDBRANCH  96  99
ENDBRANCH  91  96
ENDBRANCH  89  91
ENDBRANCH  76  87
ENDBRANCH  71  73
BRANCH  71 105
ATOM    105  CB  LEU d   1      -0.941  48.713   9.315  0.00  0.00    -0.035 C 
ATOM    106  H44 LEU d   1      -0.764  49.605   8.696  0.00  0.00     0.037 H 
ATOM    107  H45 LEU d   1      -1.780  48.138   8.897  0.00  0.00     0.037 H 
BRANCH 105 108
ATOM    108  CG  LEU d   1       0.311  47.830   9.203  0.00  0.00    -0.059 C 
ATOM    109  H46 LEU d   1       0.212  46.974   9.887  0.00  0.00     0.038 H 
BRANCH 108 110
ATOM    110  CD1 LEU d   1       0.473  47.315   7.771  0.00  0.00    -0.073 C 
ATOM    111  H47 LEU d   1       1.373  46.685   7.707  0.00  0.00     0.028 H 
ATOM    112  H48 LEU d   1       0.573  48.168   7.084  0.00  0.00     0.028 H 
ATOM    113  H49 LEU d   1      -0.410  46.721   7.493  0.00  0.00     0.028 H 
ENDBRANCH 108 110
BRANCH 108 114
ATOM    114  CD2 LEU d   1       1.545  48.647   9.587  0.00  0.00    -0.073 C 
ATOM    115  H50 LEU d   1       1.433  49.019  10.616  0.00  0.00     0.028 H 
ATOM    116  H51 LEU d   1       1.650  49.498   8.899  0.00  0.00     0.028 H 
ATOM    117  H52 LEU d   1       2.440  48.011   9.523  0.00  0.00     0.028 H 
ENDBRANCH 108 114
ENDBRANCH 105 108
ENDBRANCH  71 105
ENDBRANCH  69  71
ENDBRANCH   1  67
BRANCH   1 118
ATOM    118  CB  TYR d   1      -2.576  46.935  14.592  0.00  0.00    -0.014 C 
ATOM    119  H35 TYR d   1      -1.769  47.169  15.302  0.00  0.00     0.043 H 
ATOM    120  H36 TYR d   1      -3.200  46.126  15.000  0.00  0.00     0.043 H 
BRANCH 118 121
ATOM    121  CG  TYR d   1      -3.445  48.176  14.425  0.00  0.00    -0.056 A 
ATOM    122  CD1 TYR d   1      -4.694  48.111  13.813  0.00  0.00    -0.074 A 
ATOM    123  CE1 TYR d   1      -5.475  49.264  13.612  0.00  0.00    -0.051 A 
ATOM    124  H37 TYR d   1      -5.073  47.150  13.484  0.00  0.00     0.084 H 
ATOM    125  CZ  TYR d   1      -5.003  50.488  14.022  0.00  0.00     0.065 A 
ATOM    126  H39 TYR d   1      -6.446  49.187  13.135  0.00  0.00     0.087 H 
ATOM    127  CE2 TYR d   1      -3.779  50.580  14.632  0.00  0.00    -0.051 A 
ATOM    128  CD2 TYR d   1      -3.004  49.426  14.832  0.00  0.00    -0.074 A 
ATOM    129  H40 TYR d   1      -3.409  51.544  14.960  0.00  0.00     0.087 H 
ATOM    130  H38 TYR d   1      -2.038  49.515  15.316  0.00  0.00     0.084 H 
BRANCH 125 131
ATOM    131  OH  TYR d   1      -5.728  51.639  13.797  0.00  0.00    -0.361 OA
ATOM    132  H41 TYR d   1      -6.548  51.417  13.370  0.00  0.00     0.217 HD
ENDBRANCH 125 131
ENDBRANCH 118 121
ENDBRANCH   1 118
TORSDOF 30
