REMARK  0 active torsions:
REMARK  status: ('A' for Active; 'I' for Inactive)
ROOT
ATOM      1  N9  CFP d   1      33.188  55.096  30.868  0.00  0.00    -0.333 N 
ATOM      2  C8  CFP d   1      33.813  55.902  31.799  0.00  0.00     0.066 A 
ATOM      3  N7  CFP d   1      35.116  55.699  31.900  0.00  0.00    -0.237 NA
ATOM      4  C5  CFP d   1      35.378  54.693  30.977  0.00  0.00     0.144 A 
ATOM      5  C6  CFP d   1      36.572  53.984  30.558  0.00  0.00     0.163 A 
ATOM      6 CL6  CFP d   1      37.816  54.192  31.046  0.00  0.00    -0.060 Cl
ATOM      7  N1  CFP d   1      36.447  53.008  29.577  0.00  0.00    -0.188 NA
ATOM      8  C2  CFP d   1      35.220  52.738  29.033  0.00  0.00     0.312 A 
ATOM      9  N3  CFP d   1      34.045  53.338  29.349  0.00  0.00    -0.183 NA
ATOM     10  C4  CFP d   1      34.188  54.305  30.326  0.00  0.00     0.165 A 
ATOM     11  F2  CFP d   1      35.177  52.026  28.327  0.00  0.00    -0.161 F 
ATOM     12  H1  CFP d   1      32.187  55.085  30.627  0.00  0.00     0.168 HD
ATOM     13  H2  CFP d   1      33.280  56.640  32.397  0.00  0.00     0.143 H 
ENDROOT
TORSDOF 0
