REMARK  14 active torsions:
REMARK  status: ('A' for Active; 'I' for Inactive)
REMARK    1  A    between atoms: S4_23  and  C1_1 
REMARK    2  A    between atoms: C2_2  and  O2_8 
REMARK    3  A    between atoms: C3_3  and  O3_9 
REMARK    4  A    between atoms: C4_4  and  S4_10 
REMARK    5  A    between atoms: C5_5  and  C6_6 
REMARK    6  A    between atoms: C6_6  and  O6_12 
REMARK    7  A    between atoms: S4_10  and  C7_7 
REMARK    8  A    between atoms: C1_13  and  O1_20 
REMARK    9  A    between atoms: C2_14  and  O2_21 
REMARK   10  A    between atoms: C3_15  and  O3_22 
REMARK   11  A    between atoms: C4_16  and  S4_23 
REMARK   12  A    between atoms: C5_17  and  C6_18 
REMARK   13  A    between atoms: C6_18  and  O6_25 
REMARK   14  A    between atoms: O1_20  and  C7_19 
ROOT
ATOM      1  S4  MA3 d   1      -7.059  42.161  19.318  0.00  0.00    -0.124 SA
ENDROOT
BRANCH   1   2
ATOM      2  C1  MA2 d   1      -7.763  41.728  20.939  0.00  0.00     0.110 C 
ATOM      3  C2  MA2 d   1      -8.700  40.523  20.840  0.00  0.00     0.095 C 
ATOM      4  C3  MA2 d   1      -9.990  40.906  20.103  0.00  0.00     0.078 C 
ATOM      5  H2  MA2 d   1      -8.954  40.183  21.855  0.00  0.00     0.092 H 
ATOM      6  C4  MA2 d   1     -10.635  42.125  20.764  0.00  0.00     0.045 C 
ATOM      7  H3  MA2 d   1      -9.746  41.151  19.059  0.00  0.00     0.089 H 
ATOM      8  C5  MA2 d   1      -9.603  43.257  20.802  0.00  0.00     0.074 C 
ATOM      9  H4  MA2 d   1     -10.882  41.854  21.801  0.00  0.00     0.064 H 
ATOM     10  O5  MA2 d   1      -8.444  42.824  21.534  0.00  0.00    -0.364 OA
ATOM     11  H5  MA2 d   1      -9.316  43.496  19.767  0.00  0.00     0.088 H 
ATOM     12  H1  MA2 d   1      -6.927  41.453  21.599  0.00  0.00     0.104 H 
BRANCH   3  13
ATOM     13  O2  MA2 d   1      -8.050  39.470  20.144  0.00  0.00    -0.390 OA
ATOM     14  H11 MA2 d   1      -8.627  38.716  20.102  0.00  0.00     0.210 HD
ENDBRANCH   3  13
BRANCH   4  15
ATOM     15  O3  MA2 d   1     -10.898  39.814  20.124  0.00  0.00    -0.392 OA
ATOM     16  H12 MA2 d   1     -10.493  39.059  19.713  0.00  0.00     0.210 HD
ENDBRANCH   4  15
BRANCH   6  17
ATOM     17  S4  MA2 d   1     -12.202  42.646  19.955  0.00  0.00    -0.163 SA
BRANCH  17  18
ATOM     18  C7  MA2 d   1     -11.711  42.803  18.201  0.00  0.00    -0.034 C 
ATOM     19  H8  MA2 d   1     -12.580  43.116  17.604  0.00  0.00     0.041 H 
ATOM     20  H9  MA2 d   1     -11.344  41.833  17.835  0.00  0.00     0.041 H 
ATOM     21  H10 MA2 d   1     -10.913  43.555  18.109  0.00  0.00     0.041 H 
ENDBRANCH  17  18
ENDBRANCH   6  17
BRANCH   8  22
ATOM     22  C6  MA2 d   1     -10.112  44.521  21.470  0.00  0.00     0.042 C 
ATOM     23  H6  MA2 d   1     -10.963  44.914  20.894  0.00  0.00     0.077 H 
ATOM     24  H7  MA2 d   1      -9.305  45.268  21.487  0.00  0.00     0.077 H 
BRANCH  22  25
ATOM     25  O6  MA2 d   1     -10.533  44.263  22.801  0.00  0.00    -0.398 OA
ATOM     26  H13 MA2 d   1     -10.846  45.069  23.195  0.00  0.00     0.209 HD
ENDBRANCH  22  25
ENDBRANCH   8  22
ENDBRANCH   1   2
BRANCH   1  27
ATOM     27  C4  MA3 d   1      -5.245  42.152  19.586  0.00  0.00     0.048 C 
ATOM     28  C3  MA3 d   1      -4.538  41.607  18.343  0.00  0.00     0.079 C 
ATOM     29  C2  MA3 d   1      -3.019  41.678  18.508  0.00  0.00     0.108 C 
ATOM     30  H16 MA2 d   1      -4.830  42.214  17.473  0.00  0.00     0.089 H 
ATOM     31  C1  MA3 d   1      -2.560  43.097  18.885  0.00  0.00     0.158 C 
ATOM     32  H15 MA2 d   1      -2.725  40.995  19.318  0.00  0.00     0.094 H 
ATOM     33  O5  MA3 d   1      -3.275  43.509  20.041  0.00  0.00    -0.350 OA
ATOM     34  H14 MA2 d   1      -1.480  43.097  19.091  0.00  0.00     0.133 H 
ATOM     35  C5  MA3 d   1      -4.704  43.557  19.875  0.00  0.00     0.076 C 
ATOM     36  H18 MA2 d   1      -4.946  44.193  19.011  0.00  0.00     0.088 H 
ATOM     37  H17 MA2 d   1      -5.021  41.502  20.445  0.00  0.00     0.065 H 
BRANCH  28  38
ATOM     38  O3  MA3 d   1      -4.934  40.260  18.123  0.00  0.00    -0.392 OA
ATOM     39  H25 MA2 d   1      -4.494  39.924  17.351  0.00  0.00     0.210 HD
ENDBRANCH  28  38
BRANCH  29  40
ATOM     40  O2  MA3 d   1      -2.392  41.253  17.306  0.00  0.00    -0.388 OA
ATOM     41  H24 MA2 d   1      -2.649  40.359  17.115  0.00  0.00     0.210 HD
ENDBRANCH  29  40
BRANCH  31  42
ATOM     42  O1  MA3 d   1      -2.846  43.998  17.815  0.00  0.00    -0.363 OA
BRANCH  42  43
ATOM     43  C7  MA3 d   1      -2.554  45.392  18.099  0.00  0.00     0.007 C 
ATOM     44  H21 MA2 d   1      -2.805  46.005  17.221  0.00  0.00     0.066 H 
ATOM     45  H22 MA2 d   1      -1.484  45.503  18.330  0.00  0.00     0.066 H 
ATOM     46  H23 MA2 d   1      -3.151  45.724  18.961  0.00  0.00     0.066 H 
ENDBRANCH  42  43
ENDBRANCH  31  42
BRANCH  35  47
ATOM     47  C6  MA3 d   1      -5.277  44.209  21.120  0.00  0.00     0.042 C 
ATOM     48  H19 MA2 d   1      -6.374  44.233  21.038  0.00  0.00     0.077 H 
ATOM     49  H20 MA2 d   1      -4.892  45.237  21.195  0.00  0.00     0.077 H 
BRANCH  47  50
ATOM     50  O6  MA3 d   1      -4.918  43.496  22.290  0.00  0.00    -0.398 OA
ATOM     51  H26 MA2 d   1      -3.971  43.475  22.369  0.00  0.00     0.209 HD
ENDBRANCH  47  50
ENDBRANCH  35  47
ENDBRANCH   1  27
TORSDOF 14
