REMARK  15 active torsions:
REMARK  status: ('A' for Active; 'I' for Inactive)
REMARK    1  A    between atoms: C1_1  and  N1_13 
REMARK    2  A    between atoms: S_23  and  C5_6 
REMARK    3  A    between atoms: N1_13  and  C9_11 
REMARK    4  A    between atoms: N1_13  and  C10_12 
REMARK    5  A    between atoms: C11_14  and  C12_15 
REMARK    6  A    between atoms: C13_16  and  C11_14 
REMARK    7  A    between atoms: C11_14  and  N_26 
REMARK    8  A    between atoms: C14_17  and  C13_16 
REMARK    9  A    between atoms: O_29  and  C17_20 
REMARK   10  A    between atoms: N_26  and  S_23 
REMARK   11  A    between atoms: S_30  and  O_29 
REMARK   12  A    between atoms: C5_38  and  S_30 
REMARK   13  A    between atoms: C1_33  and  N1_45 
REMARK   14  A    between atoms: N1_45  and  C9_43 
REMARK   15  A    between atoms: N1_45  and  C10_44 
ROOT
ATOM      1  C14 DDT d   1      13.448  37.835  32.474  0.00  0.00    -0.056 A 
ATOM      2  C15 DDT d   1      12.497  38.223  31.499  0.00  0.00    -0.074 A 
ATOM      3  C16 DDT d   1      12.866  38.363  30.153  0.00  0.00    -0.049 A 
ATOM      4  C17 DDT d   1      14.207  38.102  29.792  0.00  0.00     0.089 A 
ATOM      5  C18 DDT d   1      15.177  37.743  30.756  0.00  0.00    -0.049 A 
ATOM      6  C19 DDT d   1      14.791  37.605  32.104  0.00  0.00    -0.074 A 
ATOM      7  H16 DDT d   1      11.472  38.414  31.796  0.00  0.00     0.084 H 
ATOM      8  H17 DDT d   1      12.139  38.664  29.407  0.00  0.00     0.087 H 
ATOM      9  H18 DDT d   1      16.207  37.576  30.461  0.00  0.00     0.087 H 
ATOM     10  H19 DDT d   1      15.522  37.324  32.854  0.00  0.00     0.084 H 
ENDROOT
BRANCH   1  11
ATOM     11  C13 DDT d   1      12.986  37.687  33.907  0.00  0.00    -0.012 C 
ATOM     12  H14 DDT d   1      12.202  36.917  33.954  0.00  0.00     0.044 H 
ATOM     13  H15 DDT d   1      13.839  37.381  34.530  0.00  0.00     0.044 H 
BRANCH  11  14
ATOM     14  C11 DDT d   1      12.411  39.036  34.454  0.00  0.00     0.107 C 
ATOM     15  H13 DDT d   1      11.616  39.366  33.769  0.00  0.00     0.091 H 
BRANCH  14  16
ATOM     16  C12 DDT d   1      11.811  38.820  35.826  0.00  0.00     0.197 C 
ATOM     17  OC1 DDT d   1      12.555  38.255  36.664  0.00  0.00    -0.646 OA
ATOM     18  OC2 DDT d   1      10.679  39.312  36.033  0.00  0.00    -0.646 OA
ENDBRANCH  14  16
BRANCH  14  19
ATOM     19  N   DDT d   1      13.444  40.139  34.538  0.00  0.00    -0.300 N 
ATOM     20  H20 DDT d   1      14.412  39.888  34.550  0.00  0.00     0.173 HD
BRANCH  19  21
ATOM     21  S   DDT d   1      13.025  41.801  34.614  0.00  0.00     0.260 S 
ATOM     22  O1  DDT d   1      11.765  42.019  35.352  0.00  0.00    -0.200 OA
ATOM     23  O2  DDT d   1      14.222  42.562  35.067  0.00  0.00    -0.200 OA
BRANCH  21  24
ATOM     24  C5  DDT d   1      12.652  42.221  32.921  0.00  0.00     0.090 A 
ATOM     25  C4A DDT d   1      13.537  41.897  31.809  0.00  0.00    -0.000 A 
ATOM     26  C4  DDT d   1      14.859  41.366  32.022  0.00  0.00    -0.071 A 
ATOM     27  C8A DDT d   1      13.104  42.185  30.463  0.00  0.00     0.002 A 
ATOM     28  C3  DDT d   1      15.702  41.097  30.953  0.00  0.00    -0.080 A 
ATOM     29  H3  DDT d   1      15.200  41.174  33.033  0.00  0.00     0.084 H 
ATOM     30  C2  DDT d   1      15.256  41.315  29.618  0.00  0.00    -0.057 A 
ATOM     31  H2  DDT d   1      16.702  40.720  31.134  0.00  0.00     0.083 H 
ATOM     32  C1  DDT d   1      13.983  41.833  29.352  0.00  0.00     0.040 A 
ATOM     33  H1  DDT d   1      15.915  41.075  28.792  0.00  0.00     0.086 H 
ATOM     34  C8  DDT d   1      11.824  42.819  30.293  0.00  0.00    -0.070 A 
ATOM     35  C7  DDT d   1      10.999  43.127  31.362  0.00  0.00    -0.081 A 
ATOM     36  H6  DDT d   1      11.493  43.065  29.291  0.00  0.00     0.084 H 
ATOM     37  C6  DDT d   1      11.421  42.818  32.686  0.00  0.00    -0.059 A 
ATOM     38  H5  DDT d   1      10.039  43.600  31.192  0.00  0.00     0.083 H 
ATOM     39  H4  DDT d   1      10.772  43.052  33.522  0.00  0.00     0.085 H 
BRANCH  32  40
ATOM     40  N1  DDT d   1      13.571  42.036  27.985  0.00  0.00    -0.389 N 
BRANCH  40  41
ATOM     41  C9  DDT d   1      12.340  41.347  27.567  0.00  0.00    -0.019 C 
ATOM     42  H7  DDT d   1      12.131  41.578  26.512  0.00  0.00     0.056 H 
ATOM     43  H8  DDT d   1      11.500  41.687  28.190  0.00  0.00     0.056 H 
ATOM     44  H9  DDT d   1      12.469  40.261  27.686  0.00  0.00     0.056 H 
ENDBRANCH  40  41
BRANCH  40  45
ATOM     45  C10 DDT d   1      14.599  42.031  26.896  0.00  0.00    -0.019 C 
ATOM     46  H10 DDT d   1      15.503  42.553  27.243  0.00  0.00     0.056 H 
ATOM     47  H11 DDT d   1      14.197  42.544  26.010  0.00  0.00     0.056 H 
ATOM     48  H12 DDT d   1      14.852  40.993  26.636  0.00  0.00     0.056 H 
ENDBRANCH  40  45
ENDBRANCH  32  40
ENDBRANCH  21  24
ENDBRANCH  19  21
ENDBRANCH  14  19
ENDBRANCH  11  14
ENDBRANCH   1  11
BRANCH   4  49
ATOM     49  O   DDT d   1      14.647  38.355  28.484  0.00  0.00    -0.229 OA
BRANCH  49  50
ATOM     50  S   DDT d   1      14.299  37.470  27.165  0.00  0.00     0.303 S 
ATOM     51  O1  DDT d   1      14.287  38.293  25.981  0.00  0.00    -0.193 OA
ATOM     52  O2  DDT d   1      13.095  36.614  27.359  0.00  0.00    -0.193 OA
BRANCH  50  53
ATOM     53  C5  DDT d   1      15.726  36.401  27.122  0.00  0.00     0.098 A 
ATOM     54  C4A DDT d   1      17.028  36.972  26.892  0.00  0.00     0.000 A 
ATOM     55  C4  DDT d   1      17.183  38.392  26.725  0.00  0.00    -0.070 A 
ATOM     56  C8A DDT d   1      18.154  36.101  26.738  0.00  0.00     0.002 A 
ATOM     57  C3  DDT d   1      18.421  38.944  26.475  0.00  0.00    -0.080 A 
ATOM     58  H23 DDT d   1      16.315  39.037  26.797  0.00  0.00     0.084 H 
ATOM     59  C2  DDT d   1      19.546  38.097  26.391  0.00  0.00    -0.057 A 
ATOM     60  H22 DDT d   1      18.529  40.015  26.345  0.00  0.00     0.083 H 
ATOM     61  C1  DDT d   1      19.439  36.707  26.521  0.00  0.00     0.040 A 
ATOM     62  H21 DDT d   1      20.523  38.535  26.221  0.00  0.00     0.086 H 
ATOM     63  C8  DDT d   1      17.941  34.683  26.749  0.00  0.00    -0.070 A 
ATOM     64  C7  DDT d   1      16.682  34.171  26.967  0.00  0.00    -0.081 A 
ATOM     65  H26 DDT d   1      18.776  34.011  26.585  0.00  0.00     0.084 H 
ATOM     66  C6  DDT d   1      15.568  35.036  27.163  0.00  0.00    -0.059 A 
ATOM     67  H25 DDT d   1      16.537  33.097  26.990  0.00  0.00     0.083 H 
ATOM     68  H24 DDT d   1      14.586  34.614  27.346  0.00  0.00     0.086 H 
BRANCH  61  69
ATOM     69  N1  DDT d   1      20.662  35.949  26.471  0.00  0.00    -0.389 N 
BRANCH  69  70
ATOM     70  C9  DDT d   1      21.797  36.424  25.636  0.00  0.00    -0.019 C 
ATOM     71  H27 DDT d   1      22.637  35.720  25.724  0.00  0.00     0.056 H 
ATOM     72  H28 DDT d   1      22.115  37.419  25.981  0.00  0.00     0.056 H 
ATOM     73  H29 DDT d   1      21.479  36.485  24.585  0.00  0.00     0.056 H 
ENDBRANCH  69  70
BRANCH  69  74
ATOM     74  C10 DDT d   1      20.982  34.781  27.341  0.00  0.00    -0.019 C 
ATOM     75  H30 DDT d   1      20.090  34.499  27.919  0.00  0.00     0.056 H 
ATOM     76  H31 DDT d   1      21.796  35.049  28.030  0.00  0.00     0.056 H 
ATOM     77  H32 DDT d   1      21.296  33.933  26.715  0.00  0.00     0.056 H 
ENDBRANCH  69  74
ENDBRANCH  61  69
ENDBRANCH  50  53
ENDBRANCH  49  50
ENDBRANCH   4  49
TORSDOF 15
