REMARK  3 active torsions:
REMARK  status: ('A' for Active; 'I' for Inactive)
REMARK    1  A    between atoms: N3_5  and  C10_15 
REMARK    2  A    between atoms: C6_11  and  C7_12 
REMARK    3  A    between atoms: C10_15  and  C11_16 
ROOT
ATOM      1  S1  JST d   1      27.033  60.877  55.674  0.00  0.00    -0.085 SA
ATOM      2  N1  JST d   1      24.181  61.061  56.851  0.00  0.00    -0.176 NA
ATOM      3  N2  JST d   1      24.467  60.102  55.844  0.00  0.00    -0.255 N 
ATOM      4  N3  JST d   1      25.646  59.346  53.977  0.00  0.00    -0.262 NA
ATOM      5  C7  JST d   1      25.154  61.452  57.619  0.00  0.00     0.074 C 
ATOM      6  C8  JST d   1      26.554  60.894  57.436  0.00  0.00     0.026 C 
ATOM      7  C9  JST d   1      25.621  60.037  55.110  0.00  0.00     0.178 C 
ATOM      8  H1  JST d   1      23.744  59.394  55.649  0.00  0.00     0.191 HD
ATOM      9  H6  JST d   1      27.265  61.519  57.995  0.00  0.00     0.059 H 
ATOM     10  H7  JST d   1      26.584  59.866  57.826  0.00  0.00     0.059 H 
ENDROOT
BRANCH   5  11
ATOM     11  C6  JST d   1      24.834  62.479  58.680  0.00  0.00    -0.009 A 
ATOM     12  C1  JST d   1      25.098  62.323  60.075  0.00  0.00    -0.069 A 
ATOM     13  C2  JST d   1      24.779  63.331  61.026  0.00  0.00    -0.061 A 
ATOM     14  H2  JST d   1      25.558  61.404  60.421  0.00  0.00     0.085 H 
ATOM     15  C3  JST d   1      24.183  64.527  60.587  0.00  0.00     0.034 A 
ATOM     16  H3  JST d   1      24.993  63.179  62.078  0.00  0.00     0.086 H 
ATOM     17 CL1  JST d   1      23.790  65.754  61.749  0.00  0.00    -0.084 Cl
ATOM     18  C4  JST d   1      23.895  64.747  59.220  0.00  0.00    -0.061 A 
ATOM     19  C5  JST d   1      24.225  63.720  58.283  0.00  0.00    -0.069 A 
ATOM     20  H4  JST d   1      23.435  65.672  58.891  0.00  0.00     0.086 H 
ATOM     21  H5  JST d   1      24.008  63.882  57.233  0.00  0.00     0.085 H 
ENDBRANCH   5  11
BRANCH   4  22
ATOM     22  C10 JST d   1      26.141  59.865  52.691  0.00  0.00     0.032 C 
ATOM     23  H8  JST d   1      27.054  60.451  52.874  0.00  0.00     0.073 H 
ATOM     24  H9  JST d   1      25.370  60.515  52.252  0.00  0.00     0.073 H 
BRANCH  22  25
ATOM     25  C11 JST d   1      26.458  58.769  51.720  0.00  0.00    -0.093 C 
ATOM     26  C12 JST d   1      26.923  58.969  50.490  0.00  0.00    -0.123 C 
ATOM     27  H11 JST d   1      27.130  58.119  49.841  0.00  0.00     0.066 H 
ATOM     28  H12 JST d   1      27.097  59.983  50.132  0.00  0.00     0.066 H 
ATOM     29  H10 JST d   1      26.297  57.741  52.042  0.00  0.00     0.078 H 
ENDBRANCH  22  25
ENDBRANCH   4  22
TORSDOF 3
