REMARK WARNING: 32 MAX_TORS EXCEEDED!!!
REMARK  52 active torsions:
REMARK  status: ('A' for Active; 'I' for Inactive)
REMARK       I    between atoms: C1_3  and  NA_1 
REMARK    1  A    between atoms: C2_2  and  C1_3 
REMARK    2  A    between atoms: C3_6  and  C2_2 
REMARK    3  A    between atoms: C2_2  and  NB_7 
REMARK    4  A    between atoms: NC_5  and  C3_6 
REMARK    5  A    between atoms: C6_18  and  NC_5 
REMARK       I    between atoms: C4_10  and  ND_8 
REMARK    6  A    between atoms: C5_9  and  C4_10 
REMARK    7  A    between atoms: C6_18  and  C5_9 
REMARK    8  A    between atoms: C8_12  and  NF_19 
REMARK    9  A    between atoms: C9_13  and  CA_20 
REMARK   10  A    between atoms: C12_21  and  C10_14 
REMARK   11  A    between atoms: C7_16  and  C6_18 
REMARK       I    between atoms: NH_23  and  C12_21 
REMARK   12  A    between atoms: C13_24  and  NH_23 
REMARK   13  A    between atoms: C13_24  and  C30_25 
REMARK   14  A    between atoms: C14_27  and  C13_24 
REMARK       I    between atoms: C30_25  and  NK_34 
REMARK   15  A    between atoms: C14_27  and  C27_28 
REMARK   16  A    between atoms: OH1_29  and  C14_27 
REMARK   17  A    between atoms: C63_79  and  OH1_29 
REMARK   18  A    between atoms: NK_34  and  C31_39 
REMARK   19  A    between atoms: C34_35  and  C36_36 
REMARK   20  A    between atoms: C33_41  and  C34_35 
REMARK   21  A    between atoms: C34_35  and  CC_42 
REMARK       I    between atoms: C36_36  and  NL_43 
REMARK   22  A    between atoms: C33_41  and  OH2_38 
REMARK   23  A    between atoms: C31_39  and  CB_40 
REMARK   24  A    between atoms: C31_39  and  C33_41 
REMARK   25  A    between atoms: NL_43  and  C37_44 
REMARK   26  A    between atoms: C37_44  and  C40_45 
REMARK   27  A    between atoms: C37_44  and  C38_47 
REMARK       I    between atoms: C40_45  and  NM_50 
REMARK   28  A    between atoms: C38_47  and  OH3_48 
REMARK   29  A    between atoms: C38_47  and  CD_49 
REMARK   30  A    between atoms: NM_50  and  C41_55 
REMARK   31  A    between atoms: C42_51  and  C43_54 
REMARK   32  A    between atoms: C41_55  and  C42_51 
REMARK   33  A    between atoms: C48_61  and  C49_52 
REMARK       I    between atoms: C49_52  and  NP_65 
REMARK   34  A    between atoms: C45_58  and  C46_63 
REMARK   35  A    between atoms: NP_65  and  C50_66 
REMARK   36  A    between atoms: C50_66  and  C51_67 
REMARK   37  A    between atoms: C51_67  and  C52_68 
REMARK   38  A    between atoms: C52_68  and  S53_69 
REMARK   39  A    between atoms: S53_69  and  C55_70 
REMARK   40  A    between atoms: S53_69  and  C54_71 
REMARK   41  A    between atoms: C59_82  and  O59_72 
REMARK   42  A    between atoms: C58_81  and  O58_73 
REMARK   43  A    between atoms: C61_74  and  O61_75 
REMARK   44  A    between atoms: C60_77  and  C61_74 
REMARK   45  A    between atoms: O56_76  and  C57_80 
REMARK   46  A    between atoms: C64_88  and  O56_76 
REMARK   47  A    between atoms: C69_83  and  O69_91 
REMARK   48  A    between atoms: C68_84  and  O68_89 
REMARK   49  A    between atoms: C67_85  and  O67_90 
REMARK   50  A    between atoms: C65_86  and  C66_96 
REMARK   51  A    between atoms: O68_89  and  C70_93 
REMARK       I    between atoms: C70_93  and  NQ_92 
REMARK   52  A    between atoms: C66_96  and  O66_95 
ROOT
ATOM      1  C13 BLM d   1      19.063   1.211  -1.116  0.00  0.00     0.120 C 
ATOM      2  H22 BLM d   1      19.654   2.128  -1.260  0.00  0.00     0.092 H 
ENDROOT
BRANCH   1   3
ATOM      3  NH  BLM d   1      18.878   1.019   0.315  0.00  0.00    -0.340 N 
ATOM      4  C12 BLM d   1      18.730   2.151   1.098  0.00  0.00     0.271 C 
ATOM      5  O12 BLM d   1      18.664   3.293   0.629  0.00  0.00    -0.266 OA
ATOM      6  H21 BLM d   1      18.858   0.104   0.717  0.00  0.00     0.163 HD
BRANCH   4   7
ATOM      7  C10 BLM d   1      18.582   1.988   2.539  0.00  0.00     0.136 A 
ATOM      8  C9  BLM d   1      18.412   2.844   3.462  0.00  0.00     0.018 A 
ATOM      9  C8  BLM d   1      18.238   2.311   4.891  0.00  0.00     0.131 A 
ATOM     10  NE  BLM d   1      18.235   0.856   5.066  0.00  0.00    -0.214 NA
ATOM     11  C7  BLM d   1      18.405   0.076   4.050  0.00  0.00     0.160 A 
ATOM     12  NG  BLM d   1      18.643   0.536   2.755  0.00  0.00    -0.225 NA
BRANCH   8  13
ATOM     13  CA  BLM d   1      18.358   4.388   3.312  0.00  0.00    -0.045 C 
ATOM     14  H18 BLM d   1      18.198   4.847   4.299  0.00  0.00     0.033 H 
ATOM     15  H19 BLM d   1      17.530   4.663   2.642  0.00  0.00     0.033 H 
ATOM     16  H20 BLM d   1      19.307   4.749   2.889  0.00  0.00     0.033 H 
ENDBRANCH   8  13
BRANCH   9  17
ATOM     17  NF  BLM d   1      18.009   3.144   5.970  0.00  0.00    -0.383 N 
ATOM     18  H16 BLM d   1      17.898   2.746   6.913  0.00  0.00     0.157 HD
ATOM     19  H17 BLM d   1      17.950   4.163   5.831  0.00  0.00     0.157 HD
ENDBRANCH   9  17
BRANCH  11  20
ATOM     20  C6  BLM d   1      18.400  -1.413   4.003  0.00  0.00     0.168 C 
ATOM     21  H15 BLM d   1      17.387  -1.736   3.720  0.00  0.00     0.097 H 
BRANCH  20  22
ATOM     22  NC  BLM d   1      19.277  -2.016   3.051  0.00  0.00    -0.061 N 
ATOM     23  H4  BLM d   1      19.041  -2.992   2.964  0.00  0.00     0.278 HD
ATOM     24  H5  BLM d   1      19.154  -1.560   2.160  0.00  0.00     0.278 HD
BRANCH  22  25
ATOM     25  C3  BLM d   1      20.665  -1.903   3.447  0.00  0.00     0.117 C 
ATOM     26  H6  BLM d   1      20.737  -1.038   4.122  0.00  0.00     0.079 H 
ATOM     27  H7  BLM d   1      20.918  -2.821   3.998  0.00  0.00     0.079 H 
BRANCH  25  28
ATOM     28  C2  BLM d   1      21.751  -1.717   2.354  0.00  0.00     0.198 C 
ATOM     29  H3  BLM d   1      22.749  -1.558   2.789  0.00  0.00     0.101 H 
BRANCH  28  30
ATOM     30  C1  BLM d   1      21.741  -2.975   1.482  0.00  0.00     0.247 C 
ATOM     31  NA  BLM d   1      22.218  -3.103   0.184  0.00  0.00    -0.368 N 
ATOM     32  H1  BLM d   1      22.156  -3.983  -0.287  0.00  0.00     0.159 HD
ATOM     33  H2  BLM d   1      22.623  -2.315  -0.280  0.00  0.00     0.159 HD
ATOM     34  O1  BLM d   1      21.275  -3.984   1.913  0.00  0.00    -0.271 OA
ENDBRANCH  28  30
BRANCH  28  35
ATOM     35  NB  BLM d   1      21.314  -0.549   1.611  0.00  0.00    -0.065 N 
ATOM     36  H8  BLM d   1      21.972  -0.355   0.872  0.00  0.00     0.275 HD
ATOM     37  H9  BLM d   1      21.263   0.244   2.231  0.00  0.00     0.275 HD
ATOM     38  H10 BLM d   1      20.404  -0.724   1.214  0.00  0.00     0.275 HD
ENDBRANCH  28  35
ENDBRANCH  25  28
ENDBRANCH  22  25
ENDBRANCH  20  22
BRANCH  20  39
ATOM     39  C5  BLM d   1      18.649  -1.846   5.508  0.00  0.00     0.042 C 
ATOM     40  H13 BLM d   1      19.719  -1.732   5.737  0.00  0.00     0.051 H 
ATOM     41  H14 BLM d   1      18.061  -1.191   6.167  0.00  0.00     0.051 H 
BRANCH  39  42
ATOM     42  C4  BLM d   1      18.233  -3.327   5.770  0.00  0.00     0.217 C 
ATOM     43  ND  BLM d   1      18.930  -4.218   6.308  0.00  0.00    -0.370 N 
ATOM     44  H11 BLM d   1      18.560  -5.139   6.426  0.00  0.00     0.159 HD
ATOM     45  H12 BLM d   1      19.857  -4.008   6.619  0.00  0.00     0.159 HD
ATOM     46  O4  BLM d   1      17.036  -3.603   5.385  0.00  0.00    -0.274 OA
ENDBRANCH  39  42
ENDBRANCH  20  39
ENDBRANCH  11  20
ENDBRANCH   4   7
ENDBRANCH   1   3
BRANCH   1  47
ATOM     47  C30 BLM d   1      17.713   1.379  -1.849  0.00  0.00     0.243 C 
ATOM     48  O30 BLM d   1      17.627   1.842  -3.012  0.00  0.00    -0.271 OA
ATOM     49  NK  BLM d   1      16.575   0.973  -1.241  0.00  0.00    -0.352 N 
ATOM     50  H27 BLM d   1      16.622   0.636  -0.301  0.00  0.00     0.163 HD
BRANCH  49  51
ATOM     51  C31 BLM d   1      15.278   1.012  -1.917  0.00  0.00     0.034 C 
ATOM     52  H30 BLM d   1      15.393   1.204  -2.994  0.00  0.00     0.075 H 
BRANCH  51  53
ATOM     53  CB  BLM d   1      14.436   2.120  -1.290  0.00  0.00    -0.055 C 
ATOM     54  H31 BLM d   1      13.456   2.162  -1.788  0.00  0.00     0.030 H 
ATOM     55  H32 BLM d   1      14.951   3.085  -1.411  0.00  0.00     0.030 H 
ATOM     56  H33 BLM d   1      14.294   1.912  -0.219  0.00  0.00     0.030 H 
ENDBRANCH  51  53
BRANCH  51  57
ATOM     57  C33 BLM d   1      14.706  -0.371  -1.685  0.00  0.00     0.066 C 
ATOM     58  H34 BLM d   1      14.549  -0.524  -0.607  0.00  0.00     0.087 H 
BRANCH  57  59
ATOM     59  C34 BLM d   1      15.545  -1.575  -2.240  0.00  0.00     0.047 C 
ATOM     60  H28 BLM d   1      16.540  -1.558  -1.771  0.00  0.00     0.058 H 
BRANCH  59  61
ATOM     61  C36 BLM d   1      14.842  -2.871  -1.903  0.00  0.00     0.224 C 
ATOM     62  O36 BLM d   1      14.250  -3.599  -2.696  0.00  0.00    -0.273 OA
ATOM     63  NL  BLM d   1      14.927  -3.238  -0.619  0.00  0.00    -0.345 N 
ATOM     64  H38 BLM d   1      15.334  -2.615   0.050  0.00  0.00     0.163 HD
BRANCH  63  65
ATOM     65  C37 BLM d   1      14.429  -4.544  -0.187  0.00  0.00     0.113 C 
ATOM     66  H39 BLM d   1      14.720  -5.309  -0.921  0.00  0.00     0.091 H 
BRANCH  65  67
ATOM     67  C40 BLM d   1      12.915  -4.577  -0.049  0.00  0.00     0.243 C 
ATOM     68  O40 BLM d   1      12.261  -3.581   0.213  0.00  0.00    -0.271 OA
ATOM     69  NM  BLM d   1      12.257  -5.706  -0.313  0.00  0.00    -0.359 N 
ATOM     70  H45 BLM d   1      12.785  -6.520  -0.555  0.00  0.00     0.162 HD
BRANCH  69  71
ATOM     71  C41 BLM d   1      10.801  -5.810  -0.265  0.00  0.00     0.001 C 
ATOM     72  H48 BLM d   1      10.437  -6.546  -0.997  0.00  0.00     0.064 H 
ATOM     73  H49 BLM d   1      10.332  -4.835  -0.461  0.00  0.00     0.064 H 
BRANCH  71  74
ATOM     74  C42 BLM d   1      10.510  -6.281   1.183  0.00  0.00    -0.004 C 
ATOM     75  H46 BLM d   1      11.159  -7.141   1.404  0.00  0.00     0.045 H 
ATOM     76  H47 BLM d   1      10.748  -5.455   1.870  0.00  0.00     0.045 H 
BRANCH  74  77
ATOM     77  C43 BLM d   1       9.094  -6.690   1.414  0.00  0.00     0.077 A 
ATOM     78  S43 BLM d   1       8.072  -5.735   2.415  0.00  0.00    -0.084 SA
ATOM     79  C44 BLM d   1       6.772  -6.794   2.078  0.00  0.00    -0.013 A 
ATOM     80  C45 BLM d   1       7.259  -7.832   1.270  0.00  0.00     0.100 A 
ATOM     81  H50 BLM d   1       5.747  -6.682   2.429  0.00  0.00     0.098 H 
ATOM     82  NN  BLM d   1       8.583  -7.750   0.905  0.00  0.00    -0.243 NA
BRANCH  80  83
ATOM     83  C46 BLM d   1       6.428  -8.897   0.866  0.00  0.00     0.127 C 
ATOM     84  NO  BLM d   1       5.174  -9.030   1.161  0.00  0.00    -0.233 NA
ATOM     85  C48 BLM d   1       4.711 -10.200   0.618  0.00  0.00     0.132 C 
ATOM     86  C47 BLM d   1       5.566 -10.866  -0.204  0.00  0.00    -0.010 C 
ATOM     87  S46 BLM d   1       7.131 -10.155  -0.107  0.00  0.00    -0.077 SA
ATOM     88  H51 BLM d   1       5.301 -11.718  -0.828  0.00  0.00     0.099 H 
BRANCH  85  89
ATOM     89  C49 BLM d   1       3.365 -10.805   0.867  0.00  0.00     0.270 C 
ATOM     90  O49 BLM d   1       3.124 -11.897   0.354  0.00  0.00    -0.266 OA
ATOM     91  NP  BLM d   1       2.567 -10.118   1.643  0.00  0.00    -0.356 N 
ATOM     92  H52 BLM d   1       2.890  -9.277   2.078  0.00  0.00     0.162 HD
BRANCH  91  93
ATOM     93  C50 BLM d   1       1.230 -10.575   1.867  0.00  0.00    -0.004 C 
ATOM     94  H53 BLM d   1       1.212 -11.673   1.926  0.00  0.00     0.064 H 
ATOM     95  H54 BLM d   1       0.576 -10.241   1.048  0.00  0.00     0.064 H 
BRANCH  93  96
ATOM     96  C51 BLM d   1       0.770  -9.984   3.166  0.00  0.00    -0.043 C 
ATOM     97  H55 BLM d   1       1.609  -9.943   3.876  0.00  0.00     0.036 H 
ATOM     98  H56 BLM d   1      -0.039 -10.597   3.590  0.00  0.00     0.036 H 
BRANCH  96  99
ATOM     99  C52 BLM d   1       0.256  -8.564   2.883  0.00  0.00    -0.031 C 
ATOM    100  H57 BLM d   1       1.052  -7.988   2.388  0.00  0.00     0.047 H 
ATOM    101  H58 BLM d   1      -0.006  -8.082   3.836  0.00  0.00     0.047 H 
BRANCH  99 102
ATOM    102  S53 BLM d   1      -1.199  -8.588   1.819  0.00  0.00    -0.228 SA
BRANCH 102 103
ATOM    103  C55 BLM d   1      -2.028 -10.138   2.101  0.00  0.00    -0.043 C 
ATOM    104  H59 BLM d   1      -2.926 -10.194   1.468  0.00  0.00     0.040 H 
ATOM    105  H60 BLM d   1      -2.320 -10.210   3.159  0.00  0.00     0.040 H 
ATOM    106  H61 BLM d   1      -1.350 -10.967   1.850  0.00  0.00     0.040 H 
ENDBRANCH 102 103
BRANCH 102 107
ATOM    107  C54 BLM d   1      -0.602  -8.691   0.139  0.00  0.00    -0.043 C 
ATOM    108  H62 BLM d   1      -0.071  -7.763  -0.119  0.00  0.00     0.040 H 
ATOM    109  H63 BLM d   1      -1.453  -8.829  -0.545  0.00  0.00     0.040 H 
ATOM    110  H64 BLM d   1       0.086  -9.544   0.046  0.00  0.00     0.040 H 
ENDBRANCH 102 107
ENDBRANCH  99 102
ENDBRANCH  96  99
ENDBRANCH  93  96
ENDBRANCH  91  93
ENDBRANCH  85  89
ENDBRANCH  80  83
ENDBRANCH  74  77
ENDBRANCH  71  74
ENDBRANCH  69  71
ENDBRANCH  65  67
BRANCH  65 111
ATOM    111  C38 BLM d   1      15.147  -4.813   1.153  0.00  0.00     0.060 C 
ATOM    112  H40 BLM d   1      15.124  -3.907   1.776  0.00  0.00     0.086 H 
BRANCH 111 113
ATOM    113  OH3 BLM d   1      16.487  -5.112   0.776  0.00  0.00    -0.393 OA
ATOM    114  H41 BLM d   1      17.001  -5.292   1.554  0.00  0.00     0.210 HD
ENDBRANCH 111 113
BRANCH 111 115
ATOM    115  CD  BLM d   1      14.521  -5.945   1.936  0.00  0.00    -0.050 C 
ATOM    116  H42 BLM d   1      15.073  -6.089   2.877  0.00  0.00     0.031 H 
ATOM    117  H43 BLM d   1      14.563  -6.869   1.341  0.00  0.00     0.031 H 
ATOM    118  H44 BLM d   1      13.472  -5.700   2.160  0.00  0.00     0.031 H 
ENDBRANCH 111 115
ENDBRANCH  65 111
ENDBRANCH  63  65
ENDBRANCH  59  61
BRANCH  59 119
ATOM    119  CC  BLM d   1      15.707  -1.528  -3.758  0.00  0.00    -0.062 C 
ATOM    120  H35 BLM d   1      16.301  -2.392  -4.090  0.00  0.00     0.028 H 
ATOM    121  H36 BLM d   1      16.221  -0.598  -4.043  0.00  0.00     0.028 H 
ATOM    122  H37 BLM d   1      14.716  -1.560  -4.234  0.00  0.00     0.028 H 
ENDBRANCH  59 119
ENDBRANCH  57  59
BRANCH  57 123
ATOM    123  OH2 BLM d   1      13.468  -0.334  -2.381  0.00  0.00    -0.393 OA
ATOM    124  H29 BLM d   1      13.002  -1.150  -2.240  0.00  0.00     0.210 HD
ENDBRANCH  57 123
ENDBRANCH  51  57
ENDBRANCH  49  51
ENDBRANCH   1  47
BRANCH   1 125
ATOM    125  C14 BLM d   1      19.825   0.036  -1.751  0.00  0.00     0.110 C 
ATOM    126  H23 BLM d   1      19.738   0.122  -2.844  0.00  0.00     0.097 H 
BRANCH 125 127
ATOM    127  C27 BLM d   1      19.298  -1.359  -1.350  0.00  0.00     0.059 C 
ATOM    128  NJ  BLM d   1      18.930  -1.725  -0.126  0.00  0.00    -0.351 N 
ATOM    129  C29 BLM d   1      18.641  -3.020  -0.202  0.00  0.00     0.064 C 
ATOM    130  H24 BLM d   1      18.879  -1.127   0.711  0.00  0.00     0.166 HD
ATOM    131  NI  BLM d   1      18.656  -3.420  -1.492  0.00  0.00    -0.254 NA
ATOM    132  H26 BLM d   1      18.424  -3.663   0.650  0.00  0.00     0.143 H 
ATOM    133  C28 BLM d   1      19.108  -2.414  -2.225  0.00  0.00     0.028 C 
ATOM    134  H25 BLM d   1      19.293  -2.417  -3.298  0.00  0.00     0.117 H 
ENDBRANCH 125 127
BRANCH 125 135
ATOM    135  OH1 BLM d   1      21.194   0.170  -1.383  0.00  0.00    -0.345 OA
BRANCH 135 136
ATOM    136  C63 BLM d   1      21.988   0.750  -2.442  0.00  0.00     0.160 C 
ATOM    137  O62 BLM d   1      22.201  -0.216  -3.498  0.00  0.00    -0.348 OA
ATOM    138  C60 BLM d   1      23.006  -1.370  -3.169  0.00  0.00     0.089 C 
ATOM    139  C59 BLM d   1      24.385  -0.924  -2.727  0.00  0.00     0.090 C 
ATOM    140  H70 BLM d   1      22.526  -1.905  -2.336  0.00  0.00     0.090 H 
ATOM    141  C58 BLM d   1      24.256   0.028  -1.526  0.00  0.00     0.092 C 
ATOM    142  H74 BLM d   1      25.007  -1.786  -2.444  0.00  0.00     0.091 H 
ATOM    143  C57 BLM d   1      23.337   1.222  -1.891  0.00  0.00     0.116 C 
ATOM    144  H73 BLM d   1      25.257   0.415  -1.286  0.00  0.00     0.091 H 
ATOM    145  H72 BLM d   1      23.841   1.843  -2.646  0.00  0.00     0.095 H 
ATOM    146  H71 BLM d   1      21.449   1.615  -2.855  0.00  0.00     0.133 H 
BRANCH 138 147
ATOM    147  C61 BLM d   1      23.112  -2.340  -4.378  0.00  0.00     0.043 C 
ATOM    148  H67 BLM d   1      23.478  -1.819  -5.275  0.00  0.00     0.078 H 
ATOM    149  H68 BLM d   1      23.774  -3.189  -4.151  0.00  0.00     0.078 H 
BRANCH 147 150
ATOM    150  O61 BLM d   1      21.775  -2.764  -4.543  0.00  0.00    -0.398 OA
ATOM    151  H69 BLM d   1      21.480  -3.193  -3.749  0.00  0.00     0.209 HD
ENDBRANCH 147 150
ENDBRANCH 138 147
BRANCH 139 152
ATOM    152  O59 BLM d   1      24.920  -0.282  -3.866  0.00  0.00    -0.390 OA
ATOM    153  H65 BLM d   1      24.366   0.452  -4.104  0.00  0.00     0.210 HD
ENDBRANCH 139 152
BRANCH 141 154
ATOM    154  O58 BLM d   1      23.746  -0.634  -0.372  0.00  0.00    -0.390 OA
ATOM    155  H66 BLM d   1      22.870  -0.954  -0.553  0.00  0.00     0.210 HD
ENDBRANCH 141 154
BRANCH 143 156
ATOM    156  O56 BLM d   1      23.084   1.993  -0.727  0.00  0.00    -0.346 OA
BRANCH 156 157
ATOM    157  C64 BLM d   1      23.770   3.236  -0.636  0.00  0.00     0.159 C 
ATOM    158  C69 BLM d   1      23.596   3.709   0.815  0.00  0.00     0.111 C 
ATOM    159  C68 BLM d   1      22.139   4.060   1.081  0.00  0.00     0.106 C 
ATOM    160  H75 BLM d   1      23.923   2.919   1.507  0.00  0.00     0.094 H 
ATOM    161  C67 BLM d   1      21.664   5.132   0.109  0.00  0.00     0.090 C 
ATOM    162  H76 BLM d   1      21.526   3.154   0.970  0.00  0.00     0.092 H 
ATOM    163  C65 BLM d   1      21.856   4.591  -1.312  0.00  0.00     0.089 C 
ATOM    164  H77 BLM d   1      22.265   6.044   0.238  0.00  0.00     0.091 H 
ATOM    165  O64 BLM d   1      23.227   4.198  -1.517  0.00  0.00    -0.348 OA
ATOM    166  H78 BLM d   1      21.193   3.727  -1.464  0.00  0.00     0.090 H 
ATOM    167  H79 BLM d   1      24.836   3.094  -0.867  0.00  0.00     0.133 H 
BRANCH 158 168
ATOM    168  O69 BLM d   1      24.378   4.880   1.003  0.00  0.00    -0.388 OA
ATOM    169  H81 BLM d   1      24.280   5.185   1.897  0.00  0.00     0.210 HD
ENDBRANCH 158 168
BRANCH 159 170
ATOM    170  O68 BLM d   1      21.971   4.600   2.390  0.00  0.00    -0.293 OA
BRANCH 170 171
ATOM    171  C70 BLM d   1      21.825   3.672   3.356  0.00  0.00     0.358 C 
ATOM    172  NQ  BLM d   1      21.604   4.317   4.531  0.00  0.00    -0.346 N 
ATOM    173  H82 BLM d   1      21.470   3.792   5.372  0.00  0.00     0.161 HD
ATOM    174  H83 BLM d   1      21.575   5.316   4.555  0.00  0.00     0.161 HD
ATOM    175  O70 BLM d   1      21.863   2.467   3.175  0.00  0.00    -0.239 OA
ENDBRANCH 170 171
ENDBRANCH 159 170
BRANCH 161 176
ATOM    176  O67 BLM d   1      20.323   5.431   0.360  0.00  0.00    -0.390 OA
ATOM    177  H80 BLM d   1      19.800   4.644   0.262  0.00  0.00     0.210 HD
ENDBRANCH 161 176
BRANCH 163 178
ATOM    178  C66 BLM d   1      21.536   5.685  -2.348  0.00  0.00     0.043 C 
ATOM    179  H85 BLM d   1      22.280   6.493  -2.292  0.00  0.00     0.078 H 
ATOM    180  H86 BLM d   1      20.532   6.098  -2.169  0.00  0.00     0.078 H 
BRANCH 178 181
ATOM    181  O66 BLM d   1      21.589   5.058  -3.609  0.00  0.00    -0.398 OA
ATOM    182  H84 BLM d   1      22.458   4.699  -3.747  0.00  0.00     0.209 HD
ENDBRANCH 178 181
ENDBRANCH 163 178
ENDBRANCH 156 157
ENDBRANCH 143 156
ENDBRANCH 135 136
ENDBRANCH 125 135
ENDBRANCH   1 125
TORSDOF 52
