REMARK  12 active torsions:
REMARK  status: ('A' for Active; 'I' for Inactive)
REMARK    1  A    between atoms: C12_3  and  O13_29 
REMARK    2  A    between atoms: C9_6  and  C14_7 
REMARK    3  A    between atoms: C14_7  and  C15_8 
REMARK    4  A    between atoms: C15_8  and  C17_9 
REMARK    5  A    between atoms: C15_8  and  N16_15 
REMARK       I    between atoms: C17_9  and  N19_10 
REMARK    6  A    between atoms: N19_10  and  C20_11 
REMARK    7  A    between atoms: C20_11  and  C21_12 
REMARK    8  A    between atoms: C20_11  and  C6_17 
REMARK    9  A    between atoms: N5_18  and  O28_23 
REMARK   10  A    between atoms: C3_20  and  O32_27 
REMARK   11  A    between atoms: C2_21  and  O29_24 
REMARK   12  A    between atoms: C1_22  and  O64_28 
ROOT
ATOM      1  C20 383 d   1     -11.983  16.414  84.541  0.00  0.00     0.133 C 
ATOM      2  H9  383 d   1     -12.918  16.694  84.034  0.00  0.00     0.093 H 
ENDROOT
BRANCH   1   3
ATOM      3  N19 383 d   1     -11.874  14.988  84.551  0.00  0.00    -0.342 N 
ATOM      4  C17 383 d   1     -12.557  14.171  83.860  0.00  0.00     0.249 C 
ATOM      5  O18 383 d   1     -13.653  14.456  83.413  0.00  0.00    -0.271 OA
ATOM      6  H8  383 d   1     -11.190  14.594  85.165  0.00  0.00     0.163 HD
BRANCH   4   7
ATOM      7  C15 383 d   1     -11.871  12.770  83.597  0.00  0.00     0.179 C 
ATOM      8  H7  383 d   1     -12.206  12.098  84.401  0.00  0.00     0.099 H 
BRANCH   7   9
ATOM      9  C14 383 d   1     -10.300  12.770  83.634  0.00  0.00    -0.006 C 
ATOM     10  H5  383 d   1      -9.950  12.935  82.605  0.00  0.00     0.043 H 
ATOM     11  H6  383 d   1      -9.989  13.614  84.267  0.00  0.00     0.043 H 
BRANCH   9  12
ATOM     12  C9  383 d   1      -9.563  11.475  84.180  0.00  0.00    -0.056 C 
ATOM     13  C8  383 d   1      -8.237  11.144  83.743  0.00  0.00    -0.074 C 
ATOM     14  C7  383 d   1      -7.569  10.048  84.273  0.00  0.00    -0.051 C 
ATOM     15  H1  383 d   1      -7.752  11.756  82.991  0.00  0.00     0.084 H 
ATOM     16  C12 383 d   1      -8.163   9.320  85.310  0.00  0.00     0.065 C 
ATOM     17  H2  383 d   1      -6.598   9.759  83.888  0.00  0.00     0.087 H 
ATOM     18  C11 383 d   1      -9.502   9.529  85.668  0.00  0.00    -0.051 C 
ATOM     19  C10 383 d   1     -10.183  10.623  85.141  0.00  0.00    -0.074 C 
ATOM     20  H3  383 d   1     -10.001   8.847  86.347  0.00  0.00     0.087 H 
ATOM     21  H4  383 d   1     -11.197  10.830  85.465  0.00  0.00     0.084 H 
BRANCH  16  22
ATOM     22  O13 383 d   1      -7.436   8.432  85.969  0.00  0.00    -0.361 OA
ATOM     23  H24 383 d   1      -7.395   8.676  86.886  0.00  0.00     0.217 HD
ENDBRANCH  16  22
ENDBRANCH   9  12
ENDBRANCH   7   9
BRANCH   7  24
ATOM     24  N16 383 d   1     -12.344  12.214  82.322  0.00  0.00    -0.066 N 
ATOM     25  H10 383 d   1     -13.352  12.218  82.307  0.00  0.00     0.275 HD
ATOM     26  H11 383 d   1     -12.010  11.268  82.224  0.00  0.00     0.275 HD
ATOM     27  H12 383 d   1     -11.995  12.775  81.561  0.00  0.00     0.275 HD
ENDBRANCH   7  24
ENDBRANCH   4   7
ENDBRANCH   1   3
BRANCH   1  28
ATOM     28  C21 383 d   1     -10.851  16.958  83.699  0.00  0.00     0.199 C 
ATOM     29  O23 383 d   1     -10.050  15.950  83.175  0.00  0.00    -0.646 OA
ATOM     30  O22 383 d   1     -10.675  18.184  83.507  0.00  0.00    -0.646 OA
ENDBRANCH   1  28
BRANCH   1  31
ATOM     31  C6  383 d   1     -12.106  16.891  85.965  0.00  0.00     0.200 C 
ATOM     32  N5  383 d   1     -12.694  15.836  86.835  0.00  0.00    -0.024 N 
ATOM     33  C4  383 d   1     -13.114  16.326  88.154  0.00  0.00     0.261 C 
ATOM     34  H14 383 d   1     -13.505  15.468  86.363  0.00  0.00     0.348 HD
ATOM     35  C3  383 d   1     -14.189  17.378  87.984  0.00  0.00     0.126 C 
ATOM     36  O31 383 d   1     -11.973  17.054  88.670  0.00  0.00    -0.348 OA
ATOM     37  H15 383 d   1     -13.436  15.507  88.814  0.00  0.00     0.146 H 
ATOM     38  C2  383 d   1     -13.308  18.488  87.420  0.00  0.00     0.138 C 
ATOM     39  H16 383 d   1     -14.634  17.656  88.951  0.00  0.00     0.095 H 
ATOM     40  C1  383 d   1     -13.065  18.074  85.924  0.00  0.00     0.106 C 
ATOM     41  C30 383 d   1     -11.955  18.394  88.152  0.00  0.00     0.056 C 
ATOM     42  H17 383 d   1     -14.019  17.755  85.479  0.00  0.00     0.092 H 
ATOM     43  H20 383 d   1     -11.890  19.133  88.964  0.00  0.00     0.079 H 
ATOM     44  H21 383 d   1     -11.116  18.540  87.456  0.00  0.00     0.079 H 
ATOM     45  H13 383 d   1     -11.123  17.194  86.355  0.00  0.00     0.105 H 
BRANCH  32  46
ATOM     46  O28 383 d   1     -11.768  14.786  87.038  0.00  0.00    -0.194 OA
ATOM     47  H18 383 d   1     -11.019  15.115  87.522  0.00  0.00     0.257 HD
ENDBRANCH  32  46
BRANCH  35  48
ATOM     48  O32 383 d   1     -15.236  17.024  87.084  0.00  0.00    -0.387 OA
ATOM     49  H22 383 d   1     -15.762  16.332  87.468  0.00  0.00     0.210 HD
ENDBRANCH  35  48
BRANCH  38  50
ATOM     50  O29 383 d   1     -13.910  19.758  87.577  0.00  0.00    -0.382 OA
ATOM     51  H19 383 d   1     -13.352  20.422  87.190  0.00  0.00     0.210 HD
ENDBRANCH  38  50
BRANCH  40  52
ATOM     52  O64 383 d   1     -12.548  19.136  85.141  0.00  0.00    -0.390 OA
ATOM     53  H23 383 d   1     -12.419  18.836  84.249  0.00  0.00     0.210 HD
ENDBRANCH  40  52
ENDBRANCH   1  31
TORSDOF 12
