REMARK  14 active torsions:
REMARK  status: ('A' for Active; 'I' for Inactive)
REMARK    1  A    between atoms: C12_3  and  O13_29 
REMARK    2  A    between atoms: C9_6  and  C14_7 
REMARK    3  A    between atoms: C14_7  and  C15_8 
REMARK    4  A    between atoms: C15_8  and  C17_9 
REMARK    5  A    between atoms: C15_8  and  N16_15 
REMARK       I    between atoms: C17_9  and  N19_10 
REMARK    6  A    between atoms: N19_10  and  C20_11 
REMARK    7  A    between atoms: C20_11  and  C21_12 
REMARK    8  A    between atoms: C20_11  and  C6_17 
REMARK    9  A    between atoms: N5_18  and  O28_23 
REMARK   10  A    between atoms: C3_20  and  O32_24 
REMARK   11  A    between atoms: C2_21  and  O29_25 
REMARK   12  A    between atoms: C2_21  and  C30_26 
REMARK   13  A    between atoms: C1_22  and  O64_28 
REMARK   14  A    between atoms: C30_26  and  O31_27 
ROOT
ATOM      1  C20 629 d   1     -12.001  16.740  85.051  0.00  0.00     0.133 C 
ATOM      2  H9  629 d   1     -12.939  16.869  84.491  0.00  0.00     0.093 H 
ENDROOT
BRANCH   1   3
ATOM      3  N19 629 d   1     -11.667  15.295  85.031  0.00  0.00    -0.342 N 
ATOM      4  C17 629 d   1     -12.131  14.357  84.202  0.00  0.00     0.249 C 
ATOM      5  O18 629 d   1     -13.020  14.556  83.378  0.00  0.00    -0.271 OA
ATOM      6  H8  629 d   1     -11.015  14.986  85.723  0.00  0.00     0.163 HD
BRANCH   4   7
ATOM      7  C15 629 d   1     -11.452  12.936  84.364  0.00  0.00     0.179 C 
ATOM      8  H7  629 d   1     -11.823  12.528  85.316  0.00  0.00     0.099 H 
BRANCH   7   9
ATOM      9  C14 629 d   1      -9.912  12.983  84.456  0.00  0.00    -0.006 C 
ATOM     10  H5  629 d   1      -9.520  13.273  83.470  0.00  0.00     0.043 H 
ATOM     11  H6  629 d   1      -9.637  13.746  85.199  0.00  0.00     0.043 H 
BRANCH   9  12
ATOM     12  C9  629 d   1      -9.250  11.666  84.862  0.00  0.00    -0.056 A 
ATOM     13  C8  629 d   1      -7.910  11.407  84.561  0.00  0.00    -0.074 A 
ATOM     14  C7  629 d   1      -7.310  10.220  84.985  0.00  0.00    -0.051 A 
ATOM     15  H2  629 d   1      -7.334  12.131  83.996  0.00  0.00     0.084 H 
ATOM     16  C12 629 d   1      -8.039   9.306  85.750  0.00  0.00     0.065 A 
ATOM     17  H1  629 d   1      -6.280  10.008  84.721  0.00  0.00     0.087 H 
ATOM     18  C11 629 d   1      -9.387   9.556  86.055  0.00  0.00    -0.051 A 
ATOM     19  C10 629 d   1     -10.002  10.699  85.550  0.00  0.00    -0.074 A 
ATOM     20  H3  629 d   1      -9.944   8.865  86.678  0.00  0.00     0.087 H 
ATOM     21  H4  629 d   1     -11.067  10.843  85.689  0.00  0.00     0.084 H 
BRANCH  16  22
ATOM     22  O13 629 d   1      -7.442   8.163  86.187  0.00  0.00    -0.361 OA
ATOM     23  H26 629 d   1      -7.901   7.411  85.832  0.00  0.00     0.217 HD
ENDBRANCH  16  22
ENDBRANCH   9  12
ENDBRANCH   7   9
BRANCH   7  24
ATOM     24  N16 629 d   1     -11.818  11.973  83.303  0.00  0.00    -0.066 N 
ATOM     25  H10 629 d   1     -12.822  11.925  83.224  0.00  0.00     0.275 HD
ATOM     26  H11 629 d   1     -11.456  11.062  83.537  0.00  0.00     0.275 HD
ATOM     27  H12 629 d   1     -11.426  12.275  82.425  0.00  0.00     0.275 HD
ENDBRANCH   7  24
ENDBRANCH   4   7
ENDBRANCH   1   3
BRANCH   1  28
ATOM     28  C21 629 d   1     -10.903  17.498  84.274  0.00  0.00     0.199 C 
ATOM     29  O23 629 d   1      -9.692  16.859  84.234  0.00  0.00    -0.646 OA
ATOM     30  O22 629 d   1     -11.104  18.584  83.737  0.00  0.00    -0.646 OA
ENDBRANCH   1  28
BRANCH   1  31
ATOM     31  C6  629 d   1     -12.270  17.262  86.444  0.00  0.00     0.197 C 
ATOM     32  N5  629 d   1     -12.439  16.082  87.439  0.00  0.00    -0.052 N 
ATOM     33  C4  629 d   1     -13.072  16.305  88.817  0.00  0.00     0.146 C 
ATOM     34  H14 629 d   1     -13.155  15.545  86.974  0.00  0.00     0.345 HD
ATOM     35  C3  629 d   1     -14.301  17.176  88.664  0.00  0.00     0.099 C 
ATOM     36  H15 629 d   1     -12.348  16.803  89.478  0.00  0.00     0.091 H 
ATOM     37  H16 629 d   1     -13.359  15.336  89.251  0.00  0.00     0.091 H 
ATOM     38  C2  629 d   1     -13.810  18.468  88.065  0.00  0.00     0.135 C 
ATOM     39  H17 629 d   1     -14.772  17.356  89.641  0.00  0.00     0.091 H 
ATOM     40  C1  629 d   1     -13.548  18.120  86.542  0.00  0.00     0.106 C 
ATOM     41  H18 629 d   1     -14.397  17.542  86.149  0.00  0.00     0.092 H 
ATOM     42  H13 629 d   1     -11.410  17.875  86.750  0.00  0.00     0.105 H 
BRANCH  32  43
ATOM     43  O28 629 d   1     -11.414  15.213  87.492  0.00  0.00    -0.196 OA
ATOM     44  H19 629 d   1     -10.745  15.550  88.076  0.00  0.00     0.257 HD
ENDBRANCH  32  43
BRANCH  35  45
ATOM     45  O32 629 d   1     -15.236  16.557  87.786  0.00  0.00    -0.390 OA
ATOM     46  H20 629 d   1     -15.974  17.139  87.650  0.00  0.00     0.210 HD
ENDBRANCH  35  45
BRANCH  38  47
ATOM     47  O29 629 d   1     -14.841  19.471  88.201  0.00  0.00    -0.382 OA
ATOM     48  H21 629 d   1     -14.572  20.263  87.750  0.00  0.00     0.210 HD
ENDBRANCH  38  47
BRANCH  38  49
ATOM     49  C30 629 d   1     -12.548  19.000  88.856  0.00  0.00     0.050 C 
ATOM     50  H22 629 d   1     -12.681  18.767  89.923  0.00  0.00     0.078 H 
ATOM     51  H23 629 d   1     -12.487  20.090  88.724  0.00  0.00     0.078 H 
BRANCH  49  52
ATOM     52  O31 629 d   1     -11.312  18.417  88.412  0.00  0.00    -0.398 OA
ATOM     53  H24 629 d   1     -11.348  17.475  88.529  0.00  0.00     0.209 HD
ENDBRANCH  49  52
ENDBRANCH  38  49
BRANCH  40  54
ATOM     54  O64 629 d   1     -13.426  19.339  85.783  0.00  0.00    -0.390 OA
ATOM     55  H25 629 d   1     -12.700  19.850  86.121  0.00  0.00     0.210 HD
ENDBRANCH  40  54
ENDBRANCH   1  31
TORSDOF 14
