REMARK  19 active torsions:
REMARK  status: ('A' for Active; 'I' for Inactive)
REMARK    1  A    between atoms: C12_3  and  O13_33 
REMARK    2  A    between atoms: C9_6  and  C14_7 
REMARK    3  A    between atoms: C14_7  and  C15_8 
REMARK    4  A    between atoms: C15_8  and  C17_9 
REMARK    5  A    between atoms: C15_8  and  N16_19 
REMARK       I    between atoms: C17_9  and  N19_10 
REMARK    6  A    between atoms: N19_10  and  C20_11 
REMARK    7  A    between atoms: C20_11  and  C21_12 
REMARK    8  A    between atoms: C20_11  and  C6_21 
REMARK    9  A    between atoms: C21_12  and  O23_13 
REMARK   10  A    between atoms: O23_13  and  C24_14 
REMARK   11  A    between atoms: C24_14  and  C25_15 
REMARK   12  A    between atoms: C25_15  and  C26_16 
REMARK   13  A    between atoms: C26_16  and  C27_17 
REMARK   14  A    between atoms: N5_22  and  O28_27 
REMARK   15  A    between atoms: C3_24  and  O32_28 
REMARK   16  A    between atoms: C2_25  and  O29_29 
REMARK   17  A    between atoms: C2_25  and  C30_30 
REMARK   18  A    between atoms: C1_26  and  O64_32 
REMARK   19  A    between atoms: C30_30  and  O31_31 
ROOT
ATOM      1  C20 545 d   1      34.170  12.125  83.264  0.00  0.00     0.132 C 
ATOM      2  H9  545 d   1      34.097  13.161  82.900  0.00  0.00     0.092 H 
ENDROOT
BRANCH   1   3
ATOM      3  N19 545 d   1      32.800  11.551  83.061  0.00  0.00    -0.343 N 
ATOM      4  C17 545 d   1      31.992  11.896  82.080  0.00  0.00     0.249 C 
ATOM      5  O18 545 d   1      32.372  12.520  81.105  0.00  0.00    -0.271 OA
ATOM      6  H8  545 d   1      32.480  10.863  83.712  0.00  0.00     0.163 HD
BRANCH   4   7
ATOM      7  C15 545 d   1      30.520  11.412  82.225  0.00  0.00     0.179 C 
ATOM      8  H7  545 d   1      30.129  11.845  83.157  0.00  0.00     0.099 H 
BRANCH   7   9
ATOM      9  C14 545 d   1      30.444   9.876  82.355  0.00  0.00    -0.006 C 
ATOM     10  H5  545 d   1      30.662   9.458  81.361  0.00  0.00     0.043 H 
ATOM     11  H6  545 d   1      31.232   9.573  83.061  0.00  0.00     0.043 H 
BRANCH   9  12
ATOM     12  C9  545 d   1      29.136   9.230  82.838  0.00  0.00    -0.056 C 
ATOM     13  C8  545 d   1      28.648   8.051  82.237  0.00  0.00    -0.074 C 
ATOM     14  C7  545 d   1      27.372   7.590  82.542  0.00  0.00    -0.051 C 
ATOM     15  H1  545 d   1      29.268   7.504  81.537  0.00  0.00     0.084 H 
ATOM     16  C12 545 d   1      26.735   8.081  83.660  0.00  0.00     0.065 C 
ATOM     17  H2  545 d   1      26.886   6.856  81.910  0.00  0.00     0.087 H 
ATOM     18  C11 545 d   1      27.247   9.189  84.336  0.00  0.00    -0.051 C 
ATOM     19  C10 545 d   1      28.425   9.796  83.888  0.00  0.00    -0.074 C 
ATOM     20  H3  545 d   1      26.733   9.579  85.207  0.00  0.00     0.087 H 
ATOM     21  H4  545 d   1      28.782  10.705  84.359  0.00  0.00     0.084 H 
BRANCH  16  22
ATOM     22  O13 545 d   1      25.638   7.481  84.112  0.00  0.00    -0.361 OA
ATOM     23  H35 545 d   1      25.422   6.750  83.545  0.00  0.00     0.217 HD
ENDBRANCH  16  22
ENDBRANCH   9  12
ENDBRANCH   7   9
BRANCH   7  24
ATOM     24  N16 545 d   1      29.636  11.876  81.115  0.00  0.00    -0.066 N 
ATOM     25  H19 545 d   1      29.692  12.880  81.038  0.00  0.00     0.275 HD
ATOM     26  H20 545 d   1      28.684  11.607  81.309  0.00  0.00     0.275 HD
ATOM     27  H21 545 d   1      29.935  11.455  80.249  0.00  0.00     0.275 HD
ENDBRANCH   7  24
ENDBRANCH   4   7
ENDBRANCH   1   3
BRANCH   1  28
ATOM     28  C21 545 d   1      35.197  11.433  82.315  0.00  0.00     0.284 C 
ATOM     29  O22 545 d   1      36.133  12.062  81.828  0.00  0.00    -0.263 OA
BRANCH  28  30
ATOM     30  O23 545 d   1      34.951  10.078  82.110  0.00  0.00    -0.320 OA
BRANCH  30  31
ATOM     31  C24 545 d   1      35.858   9.314  81.309  0.00  0.00     0.029 C 
ATOM     32  H10 545 d   1      35.624   9.478  80.247  0.00  0.00     0.075 H 
ATOM     33  H11 545 d   1      35.738   8.248  81.550  0.00  0.00     0.075 H 
BRANCH  31  34
ATOM     34  C25 545 d   1      37.349   9.735  81.576  0.00  0.00    -0.045 C 
ATOM     35  H12 545 d   1      37.453   9.995  82.640  0.00  0.00     0.036 H 
ATOM     36  H13 545 d   1      37.579  10.616  80.959  0.00  0.00     0.036 H 
BRANCH  34  37
ATOM     37  C26 545 d   1      38.372   8.616  81.239  0.00  0.00    -0.067 C 
ATOM     38  H14 545 d   1      39.082   8.998  80.491  0.00  0.00     0.032 H 
ATOM     39  H15 545 d   1      37.830   7.754  80.823  0.00  0.00     0.032 H 
BRANCH  37  40
ATOM     40  C27 545 d   1      39.166   8.152  82.492  0.00  0.00    -0.076 C 
ATOM     41  H16 545 d   1      39.875   7.362  82.205  0.00  0.00     0.027 H 
ATOM     42  H17 545 d   1      38.466   7.761  83.245  0.00  0.00     0.027 H 
ATOM     43  H18 545 d   1      39.718   9.005  82.913  0.00  0.00     0.027 H 
ENDBRANCH  37  40
ENDBRANCH  34  37
ENDBRANCH  31  34
ENDBRANCH  30  31
ENDBRANCH  28  30
ENDBRANCH   1  28
BRANCH   1  44
ATOM     44  C6  545 d   1      34.642  12.277  84.731  0.00  0.00     0.197 C 
ATOM     45  N5  545 d   1      33.467  12.720  85.620  0.00  0.00    -0.052 N 
ATOM     46  C4  545 d   1      33.766  13.385  86.944  0.00  0.00     0.146 C 
ATOM     47  H23 545 d   1      33.049  13.464  85.083  0.00  0.00     0.345 HD
ATOM     48  C3  545 d   1      34.890  14.412  86.787  0.00  0.00     0.099 C 
ATOM     49  H24 545 d   1      34.074  12.620  87.672  0.00  0.00     0.091 H 
ATOM     50  H25 545 d   1      32.860  13.893  87.307  0.00  0.00     0.091 H 
ATOM     51  C2  545 d   1      36.129  13.714  86.241  0.00  0.00     0.135 C 
ATOM     52  H26 545 d   1      35.109  14.873  87.761  0.00  0.00     0.091 H 
ATOM     53  C1  545 d   1      35.824  13.295  84.789  0.00  0.00     0.106 C 
ATOM     54  H27 545 d   1      35.546  14.193  84.217  0.00  0.00     0.092 H 
ATOM     55  H22 545 d   1      35.002  11.302  85.092  0.00  0.00     0.105 H 
BRANCH  45  56
ATOM     56  O28 545 d   1      32.491  11.796  85.713  0.00  0.00    -0.196 OA
ATOM     57  H28 545 d   1      32.754  11.120  86.327  0.00  0.00     0.257 HD
ENDBRANCH  45  56
BRANCH  48  58
ATOM     58  O32 545 d   1      34.518  15.425  85.833  0.00  0.00    -0.390 OA
ATOM     59  H29 545 d   1      35.233  16.042  85.733  0.00  0.00     0.210 HD
ENDBRANCH  48  58
BRANCH  51  60
ATOM     60  O29 545 d   1      37.127  14.717  86.225  0.00  0.00    -0.382 OA
ATOM     61  H30 545 d   1      36.814  15.466  85.732  0.00  0.00     0.210 HD
ENDBRANCH  51  60
BRANCH  51  62
ATOM     62  C30 545 d   1      36.695  12.544  87.144  0.00  0.00     0.050 C 
ATOM     63  H31 545 d   1      36.049  12.434  88.027  0.00  0.00     0.078 H 
ATOM     64  H32 545 d   1      37.714  12.806  87.466  0.00  0.00     0.078 H 
BRANCH  62  65
ATOM     65  O31 545 d   1      36.740  11.275  86.437  0.00  0.00    -0.398 OA
ATOM     66  H33 545 d   1      37.302  11.358  85.675  0.00  0.00     0.209 HD
ENDBRANCH  62  65
ENDBRANCH  51  62
BRANCH  53  67
ATOM     67  O64 545 d   1      36.966  12.713  84.200  0.00  0.00    -0.390 OA
ATOM     68  H34 545 d   1      36.766  12.459  83.307  0.00  0.00     0.210 HD
ENDBRANCH  53  67
ENDBRANCH   1  44
TORSDOF 19
