REMARK  12 active torsions:
REMARK  status: ('A' for Active; 'I' for Inactive)
REMARK    1  A    between atoms: O1_1  and  C2_2 
REMARK    2  A    between atoms: C5_5  and  C8_8 
REMARK    3  A    between atoms: C8_8  and  C9_9 
REMARK    4  A    between atoms: C9_9  and  C11_11 
REMARK    5  A    between atoms: C9_9  and  N10_10 
REMARK       I    between atoms: C11_11  and  N13_13 
REMARK    6  A    between atoms: N13_13  and  C14_14 
REMARK    7  A    between atoms: C14_14  and  C18_18 
REMARK    8  A    between atoms: C14_14  and  C15_15 
REMARK    9  A    between atoms: C19_19  and  O24_24 
REMARK   10  A    between atoms: C20_20  and  O25_25 
REMARK   11  A    between atoms: C21_21  and  O26_26 
REMARK   12  A    between atoms: C22_22  and  C27_27 
ROOT
ATOM      1  C14 485 d   1      34.128  11.984  81.931  0.00  0.00     0.123 C 
ATOM      2  H13 485 d   1      34.074  12.782  81.176  0.00  0.00     0.093 H 
ENDROOT
BRANCH   1   3
ATOM      3  N13 485 d   1      32.704  11.532  82.217  0.00  0.00    -0.342 N 
ATOM      4  C11 485 d   1      31.722  11.352  81.321  0.00  0.00     0.249 C 
ATOM      5  O12 485 d   1      31.877  11.522  80.149  0.00  0.00    -0.271 OA
ATOM      6  H12 485 d   1      32.476  11.350  83.174  0.00  0.00     0.163 HD
BRANCH   4   7
ATOM      7  C9  485 d   1      30.356  10.904  81.870  0.00  0.00     0.179 C 
ATOM      8  H8  485 d   1      30.209  11.402  82.840  0.00  0.00     0.099 H 
BRANCH   7   9
ATOM      9  C8  485 d   1      30.374   9.408  82.121  0.00  0.00    -0.006 C 
ATOM     10  H6  485 d   1      30.677   8.907  81.190  0.00  0.00     0.043 H 
ATOM     11  H7  485 d   1      31.115   9.201  82.907  0.00  0.00     0.043 H 
BRANCH   9  12
ATOM     12  C5  485 d   1      29.053   8.831  82.557  0.00  0.00    -0.056 A 
ATOM     13  C4  485 d   1      28.516   9.154  83.818  0.00  0.00    -0.074 A 
ATOM     14  C3  485 d   1      27.253   8.604  84.208  0.00  0.00    -0.051 A 
ATOM     15  H3  485 d   1      29.055   9.814  84.488  0.00  0.00     0.084 H 
ATOM     16  C2  485 d   1      26.577   7.755  83.326  0.00  0.00     0.065 A 
ATOM     17  H2  485 d   1      26.826   8.843  85.175  0.00  0.00     0.087 H 
ATOM     18  C7  485 d   1      27.120   7.433  82.072  0.00  0.00    -0.051 A 
ATOM     19  C6  485 d   1      28.342   7.956  81.677  0.00  0.00    -0.074 A 
ATOM     20  H5  485 d   1      26.579   6.770  81.407  0.00  0.00     0.087 H 
ATOM     21  H4  485 d   1      28.756   7.703  80.707  0.00  0.00     0.084 H 
BRANCH  16  22
ATOM     22  O1  485 d   1      25.394   7.234  83.678  0.00  0.00    -0.361 OA
ATOM     23  H1  485 d   1      25.160   7.541  84.546  0.00  0.00     0.217 HD
ENDBRANCH  16  22
ENDBRANCH   9  12
ENDBRANCH   7   9
BRANCH   7  24
ATOM     24  N10 485 d   1      29.213  11.325  80.980  0.00  0.00    -0.066 N 
ATOM     25  H9  485 d   1      29.244  12.323  80.843  0.00  0.00     0.275 HD
ATOM     26  H10 485 d   1      28.339  11.072  81.413  0.00  0.00     0.275 HD
ATOM     27  H11 485 d   1      29.293  10.861  80.089  0.00  0.00     0.275 HD
ENDBRANCH   7  24
ENDBRANCH   4   7
ENDBRANCH   1   3
BRANCH   1  28
ATOM     28  C18 485 d   1      34.718  12.597  83.192  0.00  0.00     0.095 C 
ATOM     29  O23 485 d   1      34.581  11.656  84.365  0.00  0.00    -0.373 OA
ATOM     30  C22 485 d   1      35.237  12.090  85.624  0.00  0.00     0.063 C 
ATOM     31  C21 485 d   1      34.526  13.449  86.050  0.00  0.00     0.087 C 
ATOM     32  H18 485 d   1      36.305  12.289  85.454  0.00  0.00     0.086 H 
ATOM     33  C20 485 d   1      34.611  14.462  84.888  0.00  0.00     0.089 C 
ATOM     34  H17 485 d   1      35.012  13.855  86.949  0.00  0.00     0.091 H 
ATOM     35  C19 485 d   1      34.009  13.894  83.576  0.00  0.00     0.090 C 
ATOM     36  H16 485 d   1      35.666  14.724  84.722  0.00  0.00     0.091 H 
ATOM     37  H15 485 d   1      32.938  13.692  83.724  0.00  0.00     0.091 H 
ATOM     38  H14 485 d   1      35.783  12.805  83.013  0.00  0.00     0.091 H 
BRANCH  30  39
ATOM     39  C27 485 d   1      35.107  10.915  86.627  0.00  0.00    -0.050 C 
ATOM     40  H22 485 d   1      35.633  10.034  86.230  0.00  0.00     0.031 H 
ATOM     41  H23 485 d   1      34.044  10.672  86.772  0.00  0.00     0.031 H 
ATOM     42  H24 485 d   1      35.552  11.204  87.591  0.00  0.00     0.031 H 
ENDBRANCH  30  39
BRANCH  31  43
ATOM     43  O26 485 d   1      33.126  13.225  86.299  0.00  0.00    -0.390 OA
ATOM     44  H21 485 d   1      32.718  12.877  85.515  0.00  0.00     0.210 HD
ENDBRANCH  31  43
BRANCH  33  45
ATOM     45  O25 485 d   1      33.881  15.611  85.207  0.00  0.00    -0.390 OA
ATOM     46  H20 485 d   1      33.959  16.241  84.500  0.00  0.00     0.210 HD
ENDBRANCH  33  45
BRANCH  35  47
ATOM     47  O24 485 d   1      34.170  14.840  82.549  0.00  0.00    -0.390 OA
ATOM     48  H19 485 d   1      33.728  15.646  82.790  0.00  0.00     0.210 HD
ENDBRANCH  35  47
ENDBRANCH   1  28
BRANCH   1  49
ATOM     49  C15 485 d   1      35.024  10.829  81.304  0.00  0.00     0.199 C 
ATOM     50  O17 485 d   1      36.187  11.040  80.828  0.00  0.00    -0.646 OA
ATOM     51  O16 485 d   1      34.400   9.579  81.310  0.00  0.00    -0.646 OA
ENDBRANCH   1  49
TORSDOF 12
