REMARK  11 active torsions:
REMARK  status: ('A' for Active; 'I' for Inactive)
REMARK    1  A    between atoms: N1_1  and  CC_2 
REMARK    2  A    between atoms: N1_1  and  CA_3 
REMARK    3  A    between atoms: N1_1  and  S4_4 
REMARK    4  A    between atoms: CC_2  and  C5_5 
REMARK    5  A    between atoms: CA_3  and  C34_21 
REMARK    6  A    between atoms: CA_3  and  CB_23 
REMARK    7  A    between atoms: S4_4  and  C17_11 
REMARK    8  A    between atoms: C20_14  and  O27_17 
REMARK    9  A    between atoms: O27_17  and  COM_18 
REMARK       I    between atoms: C34_21  and  N35_22 
REMARK   10  A    between atoms: CB_23  and  CG2_24 
REMARK   11  A    between atoms: CB_23  and  CG1_25 
ROOT
ATOM      1  N1  CGS d   1       1.139   3.575  70.524  0.00  0.00    -0.288 N 
ENDROOT
BRANCH   1   2
ATOM      2  CC  CGS d   1       2.250   2.917  71.267  0.00  0.00     0.031 C 
ATOM      3  H1  CGS d   1       2.485   3.549  72.136  0.00  0.00     0.072 H 
ATOM      4  H2  CGS d   1       3.120   2.880  70.595  0.00  0.00     0.072 H 
BRANCH   2   5
ATOM      5  C5  CGS d   1       2.011   1.502  71.782  0.00  0.00    -0.022 A 
ATOM      6  CD  CGS d   1       1.921   1.194  73.162  0.00  0.00    -0.072 A 
ATOM      7  CE  CGS d   1       1.699  -0.139  73.545  0.00  0.00    -0.065 A 
ATOM      8  H4  CGS d   1       2.022   1.973  73.909  0.00  0.00     0.084 H 
ATOM      9  CZ  CGS d   1       1.573  -1.123  72.555  0.00  0.00     0.002 A 
ATOM     10  H5  CGS d   1       1.626  -0.404  74.594  0.00  0.00     0.085 H 
ATOM     11  N11 CGS d   1       1.653  -0.858  71.237  0.00  0.00    -0.273 NA
ATOM     12  H6  CGS d   1       1.403  -2.148  72.865  0.00  0.00     0.114 H 
ATOM     13  CY  CGS d   1       1.866   0.420  70.880  0.00  0.00     0.009 A 
ATOM     14  H7  CGS d   1       1.932   0.639  69.820  0.00  0.00     0.115 H 
ENDBRANCH   2   5
ENDBRANCH   1   2
BRANCH   1  15
ATOM     15  CA  CGS d   1       1.206   3.625  69.014  0.00  0.00     0.106 C 
ATOM     16  H3  CGS d   1       0.304   4.176  68.710  0.00  0.00     0.089 H 
BRANCH  15  17
ATOM     17  C34 CGS d   1       2.452   4.511  68.663  0.00  0.00     0.293 C 
ATOM     18  N35 CGS d   1       2.143   5.757  68.080  0.00  0.00    -0.057 NA
ATOM     19  O48 CGS d   1       3.096   6.591  67.742  0.00  0.00    -0.058 OA
ATOM     20  O47 CGS d   1       3.636   4.221  68.846  0.00  0.00    -0.267 OA
ENDBRANCH  15  17
BRANCH  15  21
ATOM     21  CB  CGS d   1       1.208   2.355  68.101  0.00  0.00    -0.032 C 
ATOM     22  H15 CGS d   1       2.055   1.736  68.431  0.00  0.00     0.042 H 
BRANCH  21  23
ATOM     23  CG2 CGS d   1       1.400   2.609  66.593  0.00  0.00    -0.071 C 
ATOM     24  H16 CGS d   1       1.384   1.650  66.055  0.00  0.00     0.028 H 
ATOM     25  H17 CGS d   1       2.366   3.108  66.425  0.00  0.00     0.028 H 
ATOM     26  H18 CGS d   1       0.587   3.251  66.223  0.00  0.00     0.028 H 
ENDBRANCH  21  23
BRANCH  21  27
ATOM     27  CG1 CGS d   1      -0.087   1.530  68.295  0.00  0.00    -0.071 C 
ATOM     28  H19 CGS d   1      -0.242   1.338  69.367  0.00  0.00     0.028 H 
ATOM     29  H20 CGS d   1       0.004   0.573  67.760  0.00  0.00     0.028 H 
ATOM     30  H21 CGS d   1      -0.944   2.093  67.896  0.00  0.00     0.028 H 
ENDBRANCH  21  27
ENDBRANCH  15  21
ENDBRANCH   1  15
BRANCH   1  31
ATOM     31  S4  CGS d   1       0.062   4.577  71.347  0.00  0.00     0.261 S 
ATOM     32  O32 CGS d   1      -1.032   4.881  70.451  0.00  0.00    -0.200 OA
ATOM     33  O33 CGS d   1      -0.316   3.939  72.585  0.00  0.00    -0.200 OA
BRANCH  31  34
ATOM     34  C17 CGS d   1       0.862   6.069  71.757  0.00  0.00     0.079 A 
ATOM     35  CE2 CGS d   1       1.632   6.172  72.965  0.00  0.00    -0.058 A 
ATOM     36  CD2 CGS d   1       2.276   7.337  73.335  0.00  0.00    -0.049 A 
ATOM     37  H8  CGS d   1       1.711   5.304  73.610  0.00  0.00     0.086 H 
ATOM     38  C20 CGS d   1       2.209   8.500  72.533  0.00  0.00     0.068 A 
ATOM     39  H9  CGS d   1       2.844   7.360  74.258  0.00  0.00     0.087 H 
ATOM     40  CD1 CGS d   1       1.456   8.428  71.330  0.00  0.00    -0.049 A 
ATOM     41  CE1 CGS d   1       0.805   7.268  70.947  0.00  0.00    -0.058 A 
ATOM     42  H10 CGS d   1       1.390   9.305  70.696  0.00  0.00     0.087 H 
ATOM     43  H11 CGS d   1       0.241   7.257  70.022  0.00  0.00     0.086 H 
BRANCH  38  44
ATOM     44  O27 CGS d   1       2.854   9.646  72.922  0.00  0.00    -0.356 OA
BRANCH  44  45
ATOM     45  COM CGS d   1       3.476   9.784  74.196  0.00  0.00     0.010 C 
ATOM     46  H12 CGS d   1       3.925  10.785  74.278  0.00  0.00     0.066 H 
ATOM     47  H13 CGS d   1       4.260   9.020  74.306  0.00  0.00     0.066 H 
ATOM     48  H14 CGS d   1       2.723   9.654  74.988  0.00  0.00     0.066 H 
ENDBRANCH  44  45
ENDBRANCH  38  44
ENDBRANCH  31  34
ENDBRANCH   1  31
TORSDOF 11
