REMARK  5 active torsions:
REMARK  status: ('A' for Active; 'I' for Inactive)
REMARK    1  A    between atoms: C5_7  and  CG_19 
REMARK    2  A    between atoms: C5_7  and  NP1_10 
REMARK    3  A    between atoms: CP4_13  and  CP7_16 
REMARK    4  A    between atoms: CP7_16  and  CP8_17 
REMARK    5  A    between atoms: CP8_17  and  OP9_18 
ROOT
ATOM      1  NP1 BBT d   1      25.628  27.034  30.408  0.00  0.00    -0.040 N 
ATOM      2  CP2 BBT d   1      25.178  26.962  31.813  0.00  0.00     0.086 C 
ATOM      3  CP3 BBT d   1      26.197  27.436  32.784  0.00  0.00    -0.039 C 
ATOM      4  CP4 BBT d   1      27.531  26.763  32.485  0.00  0.00    -0.049 C 
ATOM      5  CP5 BBT d   1      27.950  27.012  31.030  0.00  0.00    -0.039 C 
ATOM      6  CP6 BBT d   1      26.928  26.451  29.984  0.00  0.00     0.086 C 
ATOM      7  H3  BBT d   1      25.896  28.006  30.397  0.00  0.00     0.282 HD
ATOM      8  H4  BBT d   1      24.933  25.916  32.047  0.00  0.00     0.076 H 
ATOM      9  H5  BBT d   1      24.277  27.583  31.923  0.00  0.00     0.076 H 
ATOM     10  H6  BBT d   1      25.878  27.181  33.805  0.00  0.00     0.035 H 
ATOM     11  H7  BBT d   1      26.308  28.527  32.696  0.00  0.00     0.035 H 
ATOM     12  H8  BBT d   1      27.403  25.678  32.617  0.00  0.00     0.040 H 
ATOM     13  H9  BBT d   1      28.924  26.529  30.860  0.00  0.00     0.035 H 
ATOM     14  H10 BBT d   1      28.047  28.097  30.876  0.00  0.00     0.035 H 
ATOM     15  H11 BBT d   1      27.190  26.777  28.967  0.00  0.00     0.076 H 
ATOM     16  H12 BBT d   1      26.895  25.352  30.020  0.00  0.00     0.076 H 
ENDROOT
BRANCH   1  17
ATOM     17  C5  BBT d   1      24.616  27.071  29.416  0.00  0.00     0.313 C 
ATOM     18  C4  BBT d   1      24.008  25.621  29.120  0.00  0.00     0.277 C 
ATOM     19  N3  BBT d   1      23.472  25.432  27.906  0.00  0.00    -0.276 N 
ATOM     20  O4  BBT d   1      23.869  24.807  30.047  0.00  0.00    -0.269 OA
ATOM     21  C2  BBT d   1      23.595  26.353  26.959  0.00  0.00     0.329 C 
ATOM     22  H2  BBT d   1      22.974  24.587  27.712  0.00  0.00     0.173 HD
ATOM     23  N1  BBT d   1      24.315  27.483  27.061  0.00  0.00    -0.276 N 
ATOM     24  O2  BBT d   1      23.052  26.185  25.791  0.00  0.00    -0.247 OA
ATOM     25  C6  BBT d   1      24.974  27.802  28.175  0.00  0.00     0.277 C 
ATOM     26  H1  BBT d   1      24.358  28.103  26.278  0.00  0.00     0.173 HD
ATOM     27  O6  BBT d   1      25.660  28.810  28.281  0.00  0.00    -0.269 OA
BRANCH  17  28
ATOM     28  CG  BBT d   1      23.387  27.943  29.995  0.00  0.00    -0.003 A 
ATOM     29  CD2 BBT d   1      23.561  29.289  30.340  0.00  0.00    -0.073 A 
ATOM     30  CE2 BBT d   1      22.499  30.104  30.819  0.00  0.00    -0.082 A 
ATOM     31  H19 BBT d   1      24.547  29.728  30.238  0.00  0.00     0.084 H 
ATOM     32  CZ  BBT d   1      21.205  29.570  30.953  0.00  0.00    -0.083 A 
ATOM     33  H21 BBT d   1      22.687  31.139  31.081  0.00  0.00     0.083 H 
ATOM     34  CE1 BBT d   1      21.009  28.217  30.609  0.00  0.00    -0.082 A 
ATOM     35  H22 BBT d   1      20.383  30.180  31.310  0.00  0.00     0.083 H 
ATOM     36  CD1 BBT d   1      22.109  27.426  30.131  0.00  0.00    -0.073 A 
ATOM     37  H20 BBT d   1      20.025  27.772  30.705  0.00  0.00     0.083 H 
ATOM     38  H18 BBT d   1      21.933  26.389  29.868  0.00  0.00     0.084 H 
ENDBRANCH  17  28
ENDBRANCH   1  17
BRANCH   4  39
ATOM     39  CP7 BBT d   1      28.603  27.232  33.475  0.00  0.00    -0.042 C 
ATOM     40  H13 BBT d   1      28.118  27.464  34.434  0.00  0.00     0.036 H 
ATOM     41  H14 BBT d   1      29.077  28.140  33.075  0.00  0.00     0.036 H 
BRANCH  39  42
ATOM     42  CP8 BBT d   1      29.688  26.182  33.718  0.00  0.00     0.017 C 
ATOM     43  H15 BBT d   1      30.309  26.023  32.824  0.00  0.00     0.073 H 
ATOM     44  H16 BBT d   1      29.261  25.222  34.043  0.00  0.00     0.073 H 
BRANCH  42  45
ATOM     45  OP9 BBT d   1      30.418  26.814  34.762  0.00  0.00    -0.401 OA
ATOM     46  H17 BBT d   1      31.144  26.258  35.021  0.00  0.00     0.209 HD
ENDBRANCH  42  45
ENDBRANCH  39  42
ENDBRANCH   4  39
TORSDOF 5
