REMARK  7 active torsions:
REMARK  status: ('A' for Active; 'I' for Inactive)
REMARK    1  A    between atoms: C1_9  and  C12_20 
REMARK    2  A    between atoms: C5_13  and  C1_9 
REMARK    3  A    between atoms: C1_9  and  C2_10 
REMARK    4  A    between atoms: C6_14  and  C5_13 
REMARK    5  A    between atoms: C12_20  and  C16_24 
REMARK    6  A    between atoms: C12_20  and  C13_21 
REMARK    7  A    between atoms: C16_24  and  C17_25 
ROOT
ATOM      1  C12 BYS d   1      57.637  25.171  34.547  0.00  0.00     0.047 C 
ATOM      2  H9  BYS d   1      58.655  24.818  34.767  0.00  0.00     0.058 H 
ENDROOT
BRANCH   1   3
ATOM      3  C1  BYS d   1      57.416  25.103  33.028  0.00  0.00     0.047 C 
ATOM      4  H1  BYS d   1      56.336  25.017  32.837  0.00  0.00     0.058 H 
BRANCH   3   5
ATOM      5  C5  BYS d   1      58.113  23.837  32.491  0.00  0.00    -0.028 C 
ATOM      6  H2  BYS d   1      57.634  22.947  32.926  0.00  0.00     0.041 H 
ATOM      7  H3  BYS d   1      59.175  23.858  32.778  0.00  0.00     0.041 H 
BRANCH   5   8
ATOM      8  C6  BYS d   1      58.004  23.775  30.975  0.00  0.00    -0.057 A 
ATOM      9  C11 BYS d   1      56.817  23.367  30.354  0.00  0.00    -0.077 A 
ATOM     10  C10 BYS d   1      56.711  23.355  28.953  0.00  0.00    -0.082 A 
ATOM     11  H8  BYS d   1      55.973  23.058  30.959  0.00  0.00     0.084 H 
ATOM     12  C9  BYS d   1      57.807  23.665  28.158  0.00  0.00    -0.083 A 
ATOM     13  H7  BYS d   1      55.765  23.102  28.488  0.00  0.00     0.083 H 
ATOM     14  H6  BYS d   1      57.740  23.590  27.079  0.00  0.00     0.083 H 
ATOM     15  C8  BYS d   1      59.005  24.077  28.771  0.00  0.00    -0.082 A 
ATOM     16  H5  BYS d   1      59.854  24.373  28.166  0.00  0.00     0.083 H 
ATOM     17  C7  BYS d   1      59.093  24.102  30.170  0.00  0.00    -0.077 A 
ATOM     18  H4  BYS d   1      60.031  24.382  30.636  0.00  0.00     0.084 H 
ENDBRANCH   5   8
ENDBRANCH   3   5
BRANCH   3  19
ATOM     19  C2  BYS d   1      57.915  26.347  32.321  0.00  0.00     0.178 C 
ATOM     20  O4  BYS d   1      59.123  26.660  32.244  0.00  0.00    -0.648 OA
ATOM     21  O3  BYS d   1      57.085  27.116  31.789  0.00  0.00    -0.648 OA
ENDBRANCH   3  19
ENDBRANCH   1   3
BRANCH   1  22
ATOM     22  C16 BYS d   1      56.626  24.221  35.243  0.00  0.00    -0.028 C 
ATOM     23  H10 BYS d   1      56.639  23.232  34.762  0.00  0.00     0.041 H 
ATOM     24  H11 BYS d   1      55.611  24.641  35.192  0.00  0.00     0.041 H 
BRANCH  22  25
ATOM     25  C17 BYS d   1      57.077  24.110  36.685  0.00  0.00    -0.054 A 
ATOM     26  C25 BYS d   1      58.095  23.202  36.955  0.00  0.00    -0.074 A 
ATOM     27  C24 BYS d   1      58.604  23.044  38.263  0.00  0.00    -0.047 A 
ATOM     28  H16 BYS d   1      58.505  22.605  36.148  0.00  0.00     0.084 H 
ATOM     29  C23 BYS d   1      57.996  23.797  39.264  0.00  0.00     0.105 A 
ATOM     30  H15 BYS d   1      59.426  22.371  38.477  0.00  0.00     0.087 H 
ATOM     31  C19 BYS d   1      56.968  24.686  38.989  0.00  0.00     0.105 A 
ATOM     32  O22 BYS d   1      58.280  23.803  40.573  0.00  0.00    -0.323 OA
ATOM     33  C18 BYS d   1      56.483  24.898  37.700  0.00  0.00    -0.042 A 
ATOM     34  O20 BYS d   1      56.645  25.332  40.114  0.00  0.00    -0.323 OA
ATOM     35  H12 BYS d   1      55.702  25.619  37.488  0.00  0.00     0.088 H 
ATOM     36  C21 BYS d   1      57.437  24.799  41.187  0.00  0.00     0.115 A 
ATOM     37  H13 BYS d   1      56.793  24.341  41.952  0.00  0.00     0.118 H 
ATOM     38  H14 BYS d   1      58.047  25.591  41.647  0.00  0.00     0.118 H 
ENDBRANCH  22  25
ENDBRANCH   1  22
BRANCH   1  39
ATOM     39  C13 BYS d   1      57.514  26.579  35.058  0.00  0.00     0.178 C 
ATOM     40  O15 BYS d   1      58.296  26.984  35.956  0.00  0.00    -0.648 OA
ATOM     41  O14 BYS d   1      56.673  27.387  34.600  0.00  0.00    -0.648 OA
ENDBRANCH   1  39
TORSDOF 7
