REMARK  8 active torsions:
REMARK  status: ('A' for Active; 'I' for Inactive)
REMARK    1  A    between atoms: O5'_14  and  P_1 
REMARK    2  A    between atoms: C1'_22  and  N1_2 
REMARK    3  A    between atoms: C2_3  and  O2_4 
REMARK    4  A    between atoms: C6_9  and  O1_10 
REMARK    5  A    between atoms: C5'_15  and  O5'_14 
REMARK    6  A    between atoms: C4'_16  and  C5'_15 
REMARK    7  A    between atoms: C3'_18  and  O3'_19 
REMARK    8  A    between atoms: C2'_20  and  O2'_21 
ROOT
ATOM      1  C4' BMP d   1     -18.675   2.448  14.134  0.00  0.00     0.089 C 
ATOM      2  O4' BMP d   1     -19.302   1.253  14.898  0.00  0.00    -0.353 OA
ATOM      3  C3' BMP d   1     -17.200   2.486  14.484  0.00  0.00     0.091 C 
ATOM      4  C2' BMP d   1     -16.911   1.089  15.099  0.00  0.00     0.105 C 
ATOM      5  C1' BMP d   1     -18.238   0.748  15.749  0.00  0.00     0.142 C 
ATOM      6  H6  BMP d   1     -19.076   3.350  14.620  0.00  0.00     0.090 H 
ATOM      7  H7  BMP d   1     -16.576   2.683  13.599  0.00  0.00     0.091 H 
ATOM      8  H9  BMP d   1     -16.721   0.384  14.277  0.00  0.00     0.093 H 
ATOM      9  H11 BMP d   1     -18.281   1.290  16.705  0.00  0.00     0.123 H 
ENDROOT
BRANCH   5  10
ATOM     10  N1  BMP d   1     -18.446  -0.747  16.078  0.00  0.00    -0.261 N 
ATOM     11  C2  BMP d   1     -18.434  -1.677  15.033  0.00  0.00     0.253 A 
ATOM     12  N3  BMP d   1     -18.618  -3.018  15.372  0.00  0.00    -0.169 NA
ATOM     13  C4  BMP d   1     -18.806  -3.412  16.675  0.00  0.00     0.274 A 
ATOM     14  O4  BMP d   1     -18.966  -4.615  16.933  0.00  0.00    -0.266 OA
ATOM     15  C5  BMP d   1     -18.812  -2.419  17.698  0.00  0.00     0.034 A 
ATOM     16  C6  BMP d   1     -18.624  -1.117  17.305  0.00  0.00     0.152 A 
ATOM     17  H2  BMP d   1     -18.959  -2.682  18.745  0.00  0.00     0.099 H 
BRANCH  11  18
ATOM     18  O2  BMP d   1     -18.253  -1.315  13.764  0.00  0.00    -0.331 OA
ATOM     19  H1  BMP d   1     -18.278  -2.086  13.209  0.00  0.00     0.221 HD
ENDBRANCH  11  18
BRANCH  16  20
ATOM     20  O1  BMP d   1     -18.628  -0.170  18.291  0.00  0.00    -0.346 OA
ATOM     21  H3  BMP d   1     -18.768  -0.590  19.131  0.00  0.00     0.219 HD
ENDBRANCH  16  20
ENDBRANCH   5  10
BRANCH   4  22
ATOM     22  O2' BMP d   1     -15.845   0.978  15.949  0.00  0.00    -0.388 OA
ATOM     23  H10 BMP d   1     -15.049   1.219  15.490  0.00  0.00     0.210 HD
ENDBRANCH   4  22
BRANCH   1  24
ATOM     24  C5' BMP d   1     -19.183   2.580  12.748  0.00  0.00     0.059 C 
ATOM     25  H4  BMP d   1     -20.280   2.513  12.796  0.00  0.00     0.079 H 
ATOM     26  H5  BMP d   1     -18.892   3.578  12.388  0.00  0.00     0.079 H 
BRANCH  24  27
ATOM     27  O5' BMP d   1     -18.739   1.624  11.761  0.00  0.00    -0.280 OA
BRANCH  27  28
ATOM     28  P   BMP d   1     -19.248   1.833  10.251  0.00  0.00     0.422 P 
ATOM     29  OP1 BMP d   1     -18.614   0.644   9.490  0.00  0.00    -0.617 OA
ATOM     30  OP2 BMP d   1     -20.756   1.864  10.234  0.00  0.00    -0.617 OA
ATOM     31  OP3 BMP d   1     -18.688   3.138   9.696  0.00  0.00    -0.617 OA
ENDBRANCH  27  28
ENDBRANCH  24  27
ENDBRANCH   1  24
BRANCH   3  32
ATOM     32  O3' BMP d   1     -16.973   3.506  15.529  0.00  0.00    -0.390 OA
ATOM     33  H8  BMP d   1     -17.246   4.356  15.205  0.00  0.00     0.210 HD
ENDBRANCH   3  32
TORSDOF 8
