REMARK  19 active torsions:
REMARK  status: ('A' for Active; 'I' for Inactive)
REMARK    1  A    between atoms: C1_1  and  C2_2 
REMARK    2  A    between atoms: C2_2  and  C3_3 
REMARK    3  A    between atoms: C2_2  and  C44_44 
REMARK    4  A    between atoms: C2_2  and  O3_47 
REMARK    5  A    between atoms: C3_3  and  C4_4 
REMARK    6  A    between atoms: C7_7  and  O5_49 
REMARK    7  A    between atoms: C10_10  and  C43_43 
REMARK    8  A    between atoms: C12_12  and  C13_13 
REMARK    9  A    between atoms: C13_13  and  C14_14 
REMARK   10  A    between atoms: C13_13  and  C42_42 
REMARK   11  A    between atoms: C15_15  and  C16_16 
REMARK   12  A    between atoms: C24_24  and  O10_54 
REMARK   13  A    between atoms: C26_26  and  C27_27 
REMARK   14  A    between atoms: C27_27  and  C28_28 
REMARK   15  A    between atoms: C27_27  and  O11_55 
REMARK   16  A    between atoms: C28_28  and  C29_29 
REMARK   17  A    between atoms: C29_29  and  C30_30 
REMARK   18  A    between atoms: C29_29  and  C40_40 
REMARK   19  A    between atoms: C31_31  and  C39_39 
ROOT
ATOM      1  C16 OKA d   1      88.779  55.518  20.926  0.00  0.00     0.058 C 
ATOM      2  C17 OKA d   1      89.759  56.019  19.873  0.00  0.00    -0.033 C 
ATOM      3  C18 OKA d   1      91.015  55.100  19.992  0.00  0.00    -0.010 C 
ATOM      4  C19 OKA d   1      90.600  54.120  21.183  0.00  0.00     0.165 C 
ATOM      5  C20 OKA d   1      91.755  53.791  22.041  0.00  0.00    -0.010 C 
ATOM      6  C21 OKA d   1      91.291  52.804  23.197  0.00  0.00    -0.034 C 
ATOM      7  C22 OKA d   1      90.652  51.576  22.506  0.00  0.00     0.067 C 
ATOM      8  C23 OKA d   1      89.540  52.047  21.619  0.00  0.00     0.095 C 
ATOM      9  C24 OKA d   1      88.916  50.776  20.957  0.00  0.00     0.086 C 
ATOM     10  C25 OKA d   1      88.417  49.769  22.090  0.00  0.00    -0.027 C 
ATOM     11  C26 OKA d   1      89.519  49.474  23.035  0.00  0.00     0.087 C 
ATOM     12  C41 OKA d   1      87.232  49.366  22.103  0.00  0.00    -0.114 C 
ATOM     13  O7  OKA d   1      89.573  54.866  21.887  0.00  0.00    -0.346 OA
ATOM     14  O8  OKA d   1      89.989  52.934  20.595  0.00  0.00    -0.344 OA
ATOM     15  O9  OKA d   1      90.198  50.702  23.531  0.00  0.00    -0.371 OA
ATOM     16  H16 OKA d   1      88.135  54.778  20.428  0.00  0.00     0.089 H 
ATOM     17  H17 OKA d   1      90.031  57.067  20.070  0.00  0.00     0.037 H 
ATOM     18  H18 OKA d   1      89.318  55.937  18.869  0.00  0.00     0.037 H 
ATOM     19  H19 OKA d   1      91.913  55.682  20.248  0.00  0.00     0.041 H 
ATOM     20  H20 OKA d   1      91.192  54.543  19.060  0.00  0.00     0.041 H 
ATOM     21  H21 OKA d   1      92.156  54.714  22.486  0.00  0.00     0.041 H 
ATOM     22  H22 OKA d   1      92.535  53.306  21.436  0.00  0.00     0.041 H 
ATOM     23  H23 OKA d   1      90.554  53.300  23.845  0.00  0.00     0.037 H 
ATOM     24  H24 OKA d   1      92.157  52.492  23.799  0.00  0.00     0.037 H 
ATOM     25  H25 OKA d   1      91.403  51.056  21.893  0.00  0.00     0.087 H 
ATOM     26  H26 OKA d   1      88.784  52.563  22.229  0.00  0.00     0.092 H 
ATOM     27  H27 OKA d   1      89.701  50.271  20.375  0.00  0.00     0.094 H 
ATOM     28  H28 OKA d   1      89.026  49.002  23.898  0.00  0.00     0.094 H 
ATOM     29  H53 OKA d   1      86.541  49.682  21.323  0.00  0.00     0.067 H 
ATOM     30  H54 OKA d   1      86.892  48.699  22.894  0.00  0.00     0.067 H 
ENDROOT
BRANCH   1  31
ATOM     31  C15 OKA d   1      87.838  56.473  21.645  0.00  0.00    -0.079 C 
ATOM     32  C14 OKA d   1      86.619  56.349  21.922  0.00  0.00    -0.098 C 
ATOM     33  H14 OKA d   1      86.129  55.440  21.578  0.00  0.00     0.077 H 
ATOM     34  H15 OKA d   1      88.291  57.408  21.970  0.00  0.00     0.080 H 
BRANCH  32  35
ATOM     35  C13 OKA d   1      85.779  57.316  22.671  0.00  0.00    -0.016 C 
ATOM     36  H13 OKA d   1      86.429  58.119  23.049  0.00  0.00     0.049 H 
BRANCH  35  37
ATOM     37  C12 OKA d   1      85.153  56.620  23.873  0.00  0.00     0.052 C 
ATOM     38  C11 OKA d   1      84.289  57.572  24.750  0.00  0.00    -0.020 C 
ATOM     39  C10 OKA d   1      83.976  56.936  26.096  0.00  0.00    -0.080 C 
ATOM     40  H10 OKA d   1      84.840  58.510  24.914  0.00  0.00     0.043 H 
ATOM     41  H11 OKA d   1      83.346  57.788  24.226  0.00  0.00     0.043 H 
ATOM     42  C9  OKA d   1      84.710  55.906  26.538  0.00  0.00    -0.040 C 
ATOM     43  C8  OKA d   1      85.848  55.327  25.847  0.00  0.00     0.211 C 
ATOM     44  H9  OKA d   1      84.430  55.467  27.494  0.00  0.00     0.085 H 
ATOM     45  C7  OKA d   1      87.124  55.176  26.600  0.00  0.00     0.093 C 
ATOM     46  O4  OKA d   1      85.413  53.972  25.383  0.00  0.00    -0.344 OA
ATOM     47  O6  OKA d   1      86.177  56.046  24.641  0.00  0.00    -0.343 OA
ATOM     48  C6  OKA d   1      88.249  54.469  25.783  0.00  0.00    -0.034 C 
ATOM     49  H8  OKA d   1      86.920  54.564  27.491  0.00  0.00     0.091 H 
ATOM     50  C5  OKA d   1      87.707  53.102  25.389  0.00  0.00    -0.038 C 
ATOM     51  H6  OKA d   1      88.490  55.055  24.884  0.00  0.00     0.037 H 
ATOM     52  H7  OKA d   1      89.152  54.356  26.400  0.00  0.00     0.037 H 
ATOM     53  C4  OKA d   1      86.466  53.230  24.643  0.00  0.00     0.045 C 
ATOM     54  H4  OKA d   1      88.451  52.586  24.764  0.00  0.00     0.036 H 
ATOM     55  H5  OKA d   1      87.521  52.513  26.299  0.00  0.00     0.036 H 
ATOM     56  H3  OKA d   1      86.706  53.785  23.724  0.00  0.00     0.083 H 
ATOM     57  H12 OKA d   1      84.498  55.818  23.502  0.00  0.00     0.085 H 
BRANCH  39  58
ATOM     58  C43 OKA d   1      82.804  57.515  26.854  0.00  0.00    -0.055 C 
ATOM     59  H58 OKA d   1      82.679  56.975  27.804  0.00  0.00     0.033 H 
ATOM     60  H59 OKA d   1      81.890  57.411  26.251  0.00  0.00     0.033 H 
ATOM     61  H60 OKA d   1      82.990  58.580  27.059  0.00  0.00     0.033 H 
ENDBRANCH  39  58
BRANCH  45  62
ATOM     62  O5  OKA d   1      87.586  56.491  27.033  0.00  0.00    -0.390 OA
ATOM     63  H65 OKA d   1      86.930  56.887  27.594  0.00  0.00     0.210 HD
ENDBRANCH  45  62
BRANCH  53  64
ATOM     64  C3  OKA d   1      85.802  51.875  24.237  0.00  0.00    -0.003 C 
ATOM     65  H1  OKA d   1      86.529  51.315  23.630  0.00  0.00     0.042 H 
ATOM     66  H2  OKA d   1      85.589  51.317  25.161  0.00  0.00     0.042 H 
BRANCH  64  67
ATOM     67  C2  OKA d   1      84.513  51.965  23.446  0.00  0.00     0.144 C 
BRANCH  67  68
ATOM     68  C1  OKA d   1      84.732  52.587  22.076  0.00  0.00     0.208 C 
ATOM     69  O1  OKA d   1      83.967  53.680  21.829  0.00  0.00    -0.646 OA
ATOM     70  O2  OKA d   1      85.507  52.214  21.207  0.00  0.00    -0.646 OA
ENDBRANCH  67  68
BRANCH  67  71
ATOM     71  C44 OKA d   1      83.936  50.552  23.117  0.00  0.00    -0.038 C 
ATOM     72  H61 OKA d   1      83.003  50.661  22.544  0.00  0.00     0.032 H 
ATOM     73  H62 OKA d   1      83.730  50.013  24.053  0.00  0.00     0.032 H 
ATOM     74  H63 OKA d   1      84.668  49.986  22.522  0.00  0.00     0.032 H 
ENDBRANCH  67  71
BRANCH  67  75
ATOM     75  O3  OKA d   1      83.480  52.613  24.109  0.00  0.00    -0.379 OA
ATOM     76  H64 OKA d   1      82.710  52.630  23.553  0.00  0.00     0.211 HD
ENDBRANCH  67  75
ENDBRANCH  64  67
ENDBRANCH  53  64
ENDBRANCH  35  37
BRANCH  35  77
ATOM     77  C42 OKA d   1      84.766  57.943  21.761  0.00  0.00    -0.067 C 
ATOM     78  H55 OKA d   1      85.281  58.426  20.917  0.00  0.00     0.028 H 
ATOM     79  H56 OKA d   1      84.189  58.696  22.318  0.00  0.00     0.028 H 
ATOM     80  H57 OKA d   1      84.086  57.167  21.380  0.00  0.00     0.028 H 
ENDBRANCH  35  77
ENDBRANCH  32  35
ENDBRANCH   1  31
BRANCH   9  81
ATOM     81  O10 OKA d   1      87.876  51.126  20.065  0.00  0.00    -0.388 OA
ATOM     82  H66 OKA d   1      87.174  51.546  20.548  0.00  0.00     0.210 HD
ENDBRANCH   9  81
BRANCH  11  83
ATOM     83  C27 OKA d   1      90.659  48.496  22.606  0.00  0.00     0.065 C 
ATOM     84  H29 OKA d   1      91.160  48.926  21.726  0.00  0.00     0.087 H 
BRANCH  83  85
ATOM     85  C28 OKA d   1      90.063  47.112  22.213  0.00  0.00    -0.033 C 
ATOM     86  H30 OKA d   1      89.338  47.271  21.401  0.00  0.00     0.037 H 
ATOM     87  H31 OKA d   1      89.545  46.702  23.092  0.00  0.00     0.037 H 
BRANCH  85  88
ATOM     88  C29 OKA d   1      91.105  46.058  21.731  0.00  0.00    -0.030 C 
ATOM     89  H32 OKA d   1      91.877  45.920  22.502  0.00  0.00     0.043 H 
BRANCH  88  90
ATOM     90  C30 OKA d   1      90.356  44.710  21.485  0.00  0.00     0.048 C 
ATOM     91  C31 OKA d   1      89.643  44.141  22.726  0.00  0.00    -0.032 C 
ATOM     92  C32 OKA d   1      89.040  42.797  22.311  0.00  0.00    -0.055 C 
ATOM     93  H34 OKA d   1      88.835  44.833  23.006  0.00  0.00     0.043 H 
ATOM     94  C33 OKA d   1      90.109  41.828  21.722  0.00  0.00    -0.012 C 
ATOM     95  H35 OKA d   1      88.266  42.976  21.550  0.00  0.00     0.033 H 
ATOM     96  H36 OKA d   1      88.583  42.326  23.194  0.00  0.00     0.033 H 
ATOM     97  C34 OKA d   1      90.913  42.463  20.641  0.00  0.00     0.164 C 
ATOM     98  H37 OKA d   1      89.598  40.945  21.311  0.00  0.00     0.041 H 
ATOM     99  H38 OKA d   1      90.787  41.516  22.530  0.00  0.00     0.041 H 
ATOM    100  C35 OKA d   1      92.163  41.707  20.221  0.00  0.00    -0.013 C 
ATOM    101  O12 OKA d   1      91.360  43.767  20.999  0.00  0.00    -0.349 OA
ATOM    102  O13 OKA d   1      89.987  42.537  19.520  0.00  0.00    -0.355 OA
ATOM    103  C36 OKA d   1      92.731  42.215  18.865  0.00  0.00    -0.058 C 
ATOM    104  H39 OKA d   1      91.915  40.640  20.123  0.00  0.00     0.041 H 
ATOM    105  H40 OKA d   1      92.932  41.835  20.997  0.00  0.00     0.041 H 
ATOM    106  C37 OKA d   1      91.724  42.366  17.751  0.00  0.00    -0.045 C 
ATOM    107  H41 OKA d   1      93.500  41.502  18.532  0.00  0.00     0.033 H 
ATOM    108  H42 OKA d   1      93.193  43.198  19.039  0.00  0.00     0.033 H 
ATOM    109  C38 OKA d   1      90.487  43.106  18.257  0.00  0.00     0.023 C 
ATOM    110  H43 OKA d   1      91.429  41.370  17.390  0.00  0.00     0.036 H 
ATOM    111  H44 OKA d   1      92.177  42.936  16.926  0.00  0.00     0.036 H 
ATOM    112  H45 OKA d   1      89.695  43.036  17.497  0.00  0.00     0.074 H 
ATOM    113  H46 OKA d   1      90.746  44.162  18.421  0.00  0.00     0.074 H 
ATOM    114  H33 OKA d   1      89.597  44.869  20.705  0.00  0.00     0.084 H 
BRANCH  91 115
ATOM    115  C39 OKA d   1      90.551  43.942  23.975  0.00  0.00    -0.070 C 
ATOM    116  H47 OKA d   1      90.983  44.909  24.272  0.00  0.00     0.028 H 
ATOM    117  H48 OKA d   1      91.360  43.238  23.732  0.00  0.00     0.028 H 
ATOM    118  H49 OKA d   1      89.951  43.539  24.804  0.00  0.00     0.028 H 
ENDBRANCH  91 115
ENDBRANCH  88  90
BRANCH  88 119
ATOM    119  C40 OKA d   1      91.757  46.519  20.442  0.00  0.00    -0.070 C 
ATOM    120  H50 OKA d   1      92.284  47.468  20.617  0.00  0.00     0.028 H 
ATOM    121  H51 OKA d   1      90.985  46.665  19.672  0.00  0.00     0.028 H 
ATOM    122  H52 OKA d   1      92.475  45.758  20.102  0.00  0.00     0.028 H 
ENDBRANCH  88 119
ENDBRANCH  85  88
ENDBRANCH  83  85
BRANCH  83 123
ATOM    123  O11 OKA d   1      91.594  48.314  23.581  0.00  0.00    -0.393 OA
ATOM    124  H67 OKA d   1      91.962  49.155  23.826  0.00  0.00     0.210 HD
ENDBRANCH  83 123
ENDBRANCH  11  83
TORSDOF 19
