REMARK  25 active torsions:
REMARK  status: ('A' for Active; 'I' for Inactive)
REMARK    1  A    between atoms: C_2  and  C2_4 
REMARK       I    between atoms: N_13  and  C_2 
REMARK    2  A    between atoms: CA_14  and  N_13 
REMARK    3  A    between atoms: C_15  and  CA_14 
REMARK    4  A    between atoms: CA_14  and  CB_17 
REMARK       I    between atoms: N_21  and  C_15 
REMARK    5  A    between atoms: CB_17  and  OG1_18 
REMARK    6  A    between atoms: CB_17  and  CG2_19 
REMARK    7  A    between atoms: C_30  and  CM_20 
REMARK    8  A    between atoms: CM_20  and  N'_32 
REMARK    9  A    between atoms: N_21  and  CA_22 
REMARK   10  A    between atoms: CA_22  and  C_30 
REMARK   11  A    between atoms: CA_22  and  CB_23 
REMARK   12  A    between atoms: CB_23  and  CG_24 
REMARK   13  A    between atoms: C_30  and  O_31 
REMARK       I    between atoms: N'_32  and  C'_33 
REMARK   14  A    between atoms: C'_33  and  C2'_35 
REMARK   15  A    between atoms: C2'_35  and  C1'_40 
REMARK   16  A    between atoms: C2'_35  and  CT1_36 
REMARK   17  A    between atoms: CT1_36  and  CT4_39 
REMARK   18  A    between atoms: CT1_36  and  CT3_38 
REMARK   19  A    between atoms: CT1_36  and  CT2_37 
REMARK   20  A    between atoms: C1'_40  and  C_41 
REMARK   21  A    between atoms: N_43  and  C3_44 
REMARK   22  A    between atoms: C3_44  and  C2_47 
REMARK   23  A    between atoms: C3_44  and  C4_45 
REMARK   24  A    between atoms: C4_45  and  C5_46 
REMARK   25  A    between atoms: C2_47  and  C1_48 
ROOT
ATOM      1  CA  0PP d   1      51.953  23.736   4.249  0.00  0.00     0.042 C 
ATOM      2  H17 0PP d   1      51.135  23.048   3.989  0.00  0.00     0.077 H 
ENDROOT
BRANCH   1   3
ATOM      3  C   0PP d   1      53.178  23.242   3.481  0.00  0.00     0.070 C 
ATOM      4  H25 0PP d   1      53.396  22.216   3.811  0.00  0.00     0.088 H 
BRANCH   3   5
ATOM      5  CM  0PP d   1      53.002  23.240   1.974  0.00  0.00     0.021 C 
ATOM      6  H14 0PP d   1      53.310  24.216   1.571  0.00  0.00     0.068 H 
ATOM      7  H15 0PP d   1      51.944  23.061   1.732  0.00  0.00     0.068 H 
BRANCH   5   8
ATOM      8  N'  0PP d   1      53.816  22.194   1.372  0.00  0.00    -0.358 N 
ATOM      9  C'  0PP d   1      53.331  21.016   1.039  0.00  0.00     0.223 C 
ATOM     10  O'  0PP d   1      52.173  20.678   1.217  0.00  0.00    -0.273 OA
ATOM     11  H27 0PP d   1      54.785  22.378   1.204  0.00  0.00     0.162 HD
BRANCH   9  12
ATOM     12  C2' 0PP d   1      54.353  20.075   0.412  0.00  0.00     0.037 C 
ATOM     13  H28 0PP d   1      55.194  20.718   0.113  0.00  0.00     0.056 H 
BRANCH  12  14
ATOM     14  C1' 0PP d   1      53.768  19.530  -0.907  0.00  0.00     0.009 C 
ATOM     15  H38 0PP d   1      52.818  19.023  -0.684  0.00  0.00     0.046 H 
ATOM     16  H39 0PP d   1      54.479  18.806  -1.331  0.00  0.00     0.046 H 
BRANCH  14  17
ATOM     17  C   0PP d   1      53.507  20.610  -1.939  0.00  0.00     0.152 C 
ATOM     18  N   0PP d   1      52.254  20.878  -2.326  0.00  0.00    -0.367 N 
ATOM     19  H40 0PP d   1      51.510  20.360  -1.903  0.00  0.00     0.161 HD
ATOM     20  O   0PP d   1      54.462  21.352  -2.557  0.00  0.00    -0.177 OA
BRANCH  18  21
ATOM     21  C3  0PP d   1      51.915  21.864  -3.312  0.00  0.00     0.010 C 
ATOM     22  H41 0PP d   1      52.806  22.452  -3.577  0.00  0.00     0.072 H 
BRANCH  21  23
ATOM     23  C2  0PP d   1      50.820  22.768  -2.780  0.00  0.00    -0.050 C 
ATOM     24  H47 0PP d   1      49.958  22.134  -2.523  0.00  0.00     0.035 H 
ATOM     25  H48 0PP d   1      50.538  23.462  -3.586  0.00  0.00     0.035 H 
BRANCH  23  26
ATOM     26  C1  0PP d   1      51.174  23.617  -1.527  0.00  0.00    -0.075 C 
ATOM     27  H49 0PP d   1      50.305  24.227  -1.240  0.00  0.00     0.027 H 
ATOM     28  H50 0PP d   1      52.023  24.276  -1.759  0.00  0.00     0.027 H 
ATOM     29  H51 0PP d   1      51.444  22.949  -0.696  0.00  0.00     0.027 H 
ENDBRANCH  23  26
ENDBRANCH  21  23
BRANCH  21  30
ATOM     30  C4  0PP d   1      51.343  21.173  -4.540  0.00  0.00    -0.050 C 
ATOM     31  H42 0PP d   1      51.377  21.884  -5.379  0.00  0.00     0.035 H 
ATOM     32  H43 0PP d   1      50.297  20.907  -4.326  0.00  0.00     0.035 H 
BRANCH  30  33
ATOM     33  C5  0PP d   1      52.092  19.880  -4.972  0.00  0.00    -0.075 C 
ATOM     34  H44 0PP d   1      51.607  19.456  -5.863  0.00  0.00     0.027 H 
ATOM     35  H45 0PP d   1      52.060  19.146  -4.153  0.00  0.00     0.027 H 
ATOM     36  H46 0PP d   1      53.139  20.123  -5.205  0.00  0.00     0.027 H 
ENDBRANCH  30  33
ENDBRANCH  21  30
ENDBRANCH  18  21
ENDBRANCH  14  17
ENDBRANCH  12  14
BRANCH  12  37
ATOM     37  CT1 0PP d   1      55.015  19.014   1.374  0.00  0.00    -0.039 C 
BRANCH  37  38
ATOM     38  CT4 0PP d   1      55.395  19.696   2.677  0.00  0.00    -0.069 C 
ATOM     39  H35 0PP d   1      56.042  20.560   2.464  0.00  0.00     0.028 H 
ATOM     40  H36 0PP d   1      55.934  18.984   3.320  0.00  0.00     0.028 H 
ATOM     41  H37 0PP d   1      54.485  20.038   3.191  0.00  0.00     0.028 H 
ENDBRANCH  37  38
BRANCH  37  42
ATOM     42  CT3 0PP d   1      56.229  18.480   0.627  0.00  0.00    -0.069 C 
ATOM     43  H32 0PP d   1      56.904  19.313   0.382  0.00  0.00     0.028 H 
ATOM     44  H33 0PP d   1      55.901  17.988  -0.301  0.00  0.00     0.028 H 
ATOM     45  H34 0PP d   1      56.759  17.753   1.260  0.00  0.00     0.028 H 
ENDBRANCH  37  42
BRANCH  37  46
ATOM     46  CT2 0PP d   1      54.118  17.819   1.687  0.00  0.00    -0.069 C 
ATOM     47  H29 0PP d   1      54.648  17.129   2.360  0.00  0.00     0.028 H 
ATOM     48  H30 0PP d   1      53.863  17.297   0.753  0.00  0.00     0.028 H 
ATOM     49  H31 0PP d   1      53.196  18.170   2.174  0.00  0.00     0.028 H 
ENDBRANCH  37  46
ENDBRANCH  12  37
ENDBRANCH   9  12
ENDBRANCH   5   8
ENDBRANCH   3   5
BRANCH   3  50
ATOM     50  O   0PP d   1      54.282  24.070   3.758  0.00  0.00    -0.392 OA
ATOM     51  H26 0PP d   1      54.108  24.947   3.436  0.00  0.00     0.210 HD
ENDBRANCH   3  50
ENDBRANCH   1   3
BRANCH   1  52
ATOM     52  CB  0PP d   1      51.480  25.147   3.909  0.00  0.00    -0.020 C 
ATOM     53  H18 0PP d   1      51.321  25.216   2.823  0.00  0.00     0.043 H 
ATOM     54  H19 0PP d   1      52.257  25.865   4.212  0.00  0.00     0.043 H 
BRANCH  52  55
ATOM     55  CG  0PP d   1      50.200  25.494   4.609  0.00  0.00    -0.056 A 
ATOM     56  CD2 0PP d   1      50.155  26.484   5.593  0.00  0.00    -0.077 A 
ATOM     57  CE2 0PP d   1      48.975  26.802   6.271  0.00  0.00    -0.082 A 
ATOM     58  H21 0PP d   1      51.063  27.022   5.838  0.00  0.00     0.084 H 
ATOM     59  CZ  0PP d   1      47.790  26.153   5.940  0.00  0.00    -0.083 A 
ATOM     60  H23 0PP d   1      48.983  27.553   7.053  0.00  0.00     0.083 H 
ATOM     61  CE1 0PP d   1      47.818  25.167   4.952  0.00  0.00    -0.082 A 
ATOM     62  H24 0PP d   1      46.862  26.408   6.440  0.00  0.00     0.083 H 
ATOM     63  CD1 0PP d   1      49.014  24.824   4.306  0.00  0.00    -0.077 A 
ATOM     64  H22 0PP d   1      46.900  24.658   4.680  0.00  0.00     0.083 H 
ATOM     65  H20 0PP d   1      49.017  24.032   3.566  0.00  0.00     0.084 H 
ENDBRANCH  52  55
ENDBRANCH   1  52
BRANCH   1  66
ATOM     66  N   0PP d   1      52.126  23.690   5.680  0.00  0.00    -0.352 N 
ATOM     67  C   0PP d   1      51.901  22.586   6.382  0.00  0.00     0.243 C 
ATOM     68  O   0PP d   1      51.566  21.523   5.878  0.00  0.00    -0.271 OA
ATOM     69  H16 0PP d   1      52.425  24.516   6.159  0.00  0.00     0.163 HD
BRANCH  67  70
ATOM     70  CA  0PP d   1      52.003  22.800   7.857  0.00  0.00     0.114 C 
ATOM     71  H8  0PP d   1      52.869  23.456   8.029  0.00  0.00     0.091 H 
BRANCH  70  72
ATOM     72  CB  0PP d   1      52.294  21.503   8.699  0.00  0.00     0.060 C 
ATOM     73  H9  0PP d   1      51.529  20.751   8.456  0.00  0.00     0.086 H 
BRANCH  72  74
ATOM     74  OG1 0PP d   1      52.263  21.783  10.083  0.00  0.00    -0.393 OA
ATOM     75  H10 0PP d   1      52.441  20.987  10.570  0.00  0.00     0.210 HD
ENDBRANCH  72  74
BRANCH  72  76
ATOM     76  CG2 0PP d   1      53.666  20.932   8.420  0.00  0.00    -0.050 C 
ATOM     77  H11 0PP d   1      53.819  20.030   9.031  0.00  0.00     0.031 H 
ATOM     78  H12 0PP d   1      54.432  21.680   8.671  0.00  0.00     0.031 H 
ATOM     79  H13 0PP d   1      53.745  20.670   7.354  0.00  0.00     0.031 H 
ENDBRANCH  72  76
ENDBRANCH  70  72
BRANCH  70  80
ATOM     80  N   0PP d   1      50.813  23.556   8.244  0.00  0.00    -0.340 N 
ATOM     81  C   0PP d   1      50.559  24.713   8.900  0.00  0.00     0.271 C 
ATOM     82  O   0PP d   1      51.470  25.435   9.367  0.00  0.00    -0.266 OA
ATOM     83  H7  0PP d   1      49.972  23.103   7.949  0.00  0.00     0.163 HD
BRANCH  81  84
ATOM     84  C2  0PP d   1      49.178  25.063   9.014  0.00  0.00     0.125 A 
ATOM     85  N1  0PP d   1      48.171  24.252   8.624  0.00  0.00    -0.243 NA
ATOM     86  C8A 0PP d   1      46.865  24.498   8.828  0.00  0.00     0.068 A 
ATOM     87  C4A 0PP d   1      46.493  25.679   9.401  0.00  0.00    -0.007 A 
ATOM     88  C8  0PP d   1      45.912  23.579   8.423  0.00  0.00    -0.054 A 
ATOM     89  C4  0PP d   1      47.471  26.591   9.786  0.00  0.00    -0.068 A 
ATOM     90  C5  0PP d   1      45.134  25.966   9.605  0.00  0.00    -0.071 A 
ATOM     91  C3  0PP d   1      48.795  26.264   9.601  0.00  0.00    -0.049 A 
ATOM     92  H2  0PP d   1      47.195  27.543  10.224  0.00  0.00     0.085 H 
ATOM     93  H1  0PP d   1      49.560  26.962   9.922  0.00  0.00     0.087 H 
ATOM     94  C6  0PP d   1      44.178  25.033   9.207  0.00  0.00    -0.082 A 
ATOM     95  H3  0PP d   1      44.832  26.900  10.066  0.00  0.00     0.084 H 
ATOM     96  C7  0PP d   1      44.567  23.859   8.583  0.00  0.00    -0.081 A 
ATOM     97  H4  0PP d   1      43.127  25.227   9.386  0.00  0.00     0.083 H 
ATOM     98  H5  0PP d   1      43.820  23.162   8.221  0.00  0.00     0.083 H 
ATOM     99  H6  0PP d   1      46.220  22.639   7.980  0.00  0.00     0.087 H 
ENDBRANCH  81  84
ENDBRANCH  70  80
ENDBRANCH  67  70
ENDBRANCH   1  66
TORSDOF 25
