REMARK  5 active torsions:
REMARK  status: ('A' for Active; 'I' for Inactive)
REMARK    1  A    between atoms: C2_2  and  N1_18 
REMARK    2  A    between atoms: C4_4  and  S_7 
REMARK    3  A    between atoms: S_7  and  C7_10 
REMARK    4  A    between atoms: C9_12  and  C14_19 
REMARK    5  A    between atoms: C11_14  and  C15_20 
ROOT
ATOM      1  C1  SBN d   1      -3.901 -33.584  22.533  0.00  0.00    -0.056 A 
ATOM      2  C2  SBN d   1      -2.899 -34.304  21.825  0.00  0.00     0.048 A 
ATOM      3  C3  SBN d   1      -2.040 -35.221  22.531  0.00  0.00     0.092 A 
ATOM      4  C4  SBN d   1      -2.177 -35.435  23.975  0.00  0.00     0.087 A 
ATOM      5  C5  SBN d   1      -3.210 -34.677  24.629  0.00  0.00    -0.060 A 
ATOM      6  C6  SBN d   1      -4.055 -33.771  23.924  0.00  0.00    -0.079 A 
ATOM      7  N2  SBN d   1      -0.234 -36.491  21.201  0.00  0.00    -0.191 NA
ATOM      8  C13 SBN d   1      -1.037 -35.925  21.791  0.00  0.00     0.103 C 
ATOM      9  H1  SBN d   1      -4.546 -32.892  22.005  0.00  0.00     0.086 H 
ATOM     10  H2  SBN d   1      -3.351 -34.799  25.697  0.00  0.00     0.085 H 
ATOM     11  H3  SBN d   1      -4.821 -33.222  24.459  0.00  0.00     0.083 H 
ENDROOT
BRANCH   2  12
ATOM     12  N1  SBN d   1      -2.778 -34.126  20.412  0.00  0.00    -0.398 N 
ATOM     13  H7  SBN d   1      -3.399 -33.467  19.921  0.00  0.00     0.156 HD
ATOM     14  H8  SBN d   1      -2.070 -34.657  19.885  0.00  0.00     0.156 HD
ENDBRANCH   2  12
BRANCH   4  15
ATOM     15  S   SBN d   1      -1.212 -36.552  24.893  0.00  0.00     0.208 S 
ATOM     16  O1  SBN d   1      -1.820 -36.746  26.219  0.00  0.00    -0.217 OA
ATOM     17  O2  SBN d   1      -0.997 -37.788  24.138  0.00  0.00    -0.217 OA
BRANCH  15  18
ATOM     18  C7  SBN d   1       0.283 -35.750  25.155  0.00  0.00     0.065 A 
ATOM     19  C8  SBN d   1       0.340 -34.614  26.045  0.00  0.00    -0.056 A 
ATOM     20  C9  SBN d   1       1.555 -33.905  26.248  0.00  0.00    -0.060 A 
ATOM     21  H4  SBN d   1      -0.557 -34.298  26.566  0.00  0.00     0.086 H 
ATOM     22  C10 SBN d   1       2.735 -34.331  25.561  0.00  0.00    -0.071 A 
ATOM     23  C11 SBN d   1       2.712 -35.466  24.679  0.00  0.00    -0.060 A 
ATOM     24  H5  SBN d   1       3.662 -33.789  25.708  0.00  0.00     0.085 H 
ATOM     25  C12 SBN d   1       1.472 -36.159  24.493  0.00  0.00    -0.056 A 
ATOM     26  H6  SBN d   1       1.440 -37.017  23.831  0.00  0.00     0.086 H 
BRANCH  20  27
ATOM     27  C14 SBN d   1       1.571 -32.700  27.198  0.00  0.00    -0.051 C 
ATOM     28  H9  SBN d   1       0.565 -32.549  27.616  0.00  0.00     0.033 H 
ATOM     29  H10 SBN d   1       1.877 -31.800  26.644  0.00  0.00     0.033 H 
ATOM     30  H11 SBN d   1       2.283 -32.887  28.015  0.00  0.00     0.033 H 
ENDBRANCH  20  27
BRANCH  23  31
ATOM     31  C15 SBN d   1       3.978 -35.950  23.969  0.00  0.00    -0.051 C 
ATOM     32  H12 SBN d   1       4.821 -35.295  24.235  0.00  0.00     0.033 H 
ATOM     33  H13 SBN d   1       3.821 -35.923  22.881  0.00  0.00     0.033 H 
ATOM     34  H14 SBN d   1       4.202 -36.981  24.281  0.00  0.00     0.033 H 
ENDBRANCH  23  31
ENDBRANCH  15  18
ENDBRANCH   4  15
TORSDOF 5
