REMARK  15 active torsions:
REMARK  status: ('A' for Active; 'I' for Inactive)
REMARK    1  A    between atoms: O3_22  and  C1_1 
REMARK    2  A    between atoms: C2_2  and  O2_7 
REMARK    3  A    between atoms: C3_3  and  O3_8 
REMARK    4  A    between atoms: C4_4  and  O4_9 
REMARK    5  A    between atoms: C5_5  and  C6_6 
REMARK    6  A    between atoms: C6_6  and  O6_11 
REMARK    7  A    between atoms: C1_12  and  O1_21 
REMARK    8  A    between atoms: C2_13  and  N2_20 
REMARK    9  A    between atoms: O3_22  and  C3_14 
REMARK   10  A    between atoms: C4_15  and  O4_23 
REMARK   11  A    between atoms: C5_16  and  C6_17 
REMARK   12  A    between atoms: C6_17  and  O6_25 
REMARK       I    between atoms: N2_20  and  C7_18 
REMARK   13  A    between atoms: C7_18  and  C8_19 
REMARK   14  A    between atoms: O1_21  and  C_27 
REMARK   15  A    between atoms: C_27  and  C1_28 
ROOT
ATOM      1  H12 GAL d   1      59.574  89.781 -29.018  0.00  0.00     0.132 H 
ATOM      2  H13 GAL d   1      57.493  88.491 -28.672  0.00  0.00     0.084 H 
ATOM      3  H14 GAL d   1      56.648  89.748 -31.338  0.00  0.00     0.091 H 
ATOM      4  H15 GAL d   1      54.955  90.941 -30.082  0.00  0.00     0.091 H 
ATOM      5  H16 GAL d   1      57.046  92.126 -30.214  0.00  0.00     0.090 H 
ATOM      6  C1  A2G d   1      58.645  90.105 -29.509  0.00  0.00     0.153 C 
ATOM      7  C2  A2G d   1      57.719  88.911 -29.663  0.00  0.00     0.087 C 
ATOM      8  C3  A2G d   1      56.420  89.386 -30.324  0.00  0.00     0.093 C 
ATOM      9  C4  A2G d   1      55.804  90.525 -29.520  0.00  0.00     0.089 C 
ATOM     10  C5  A2G d   1      56.814  91.628 -29.261  0.00  0.00     0.089 C 
ATOM     11  O5  A2G d   1      58.012  91.074 -28.695  0.00  0.00    -0.349 OA
ENDROOT
BRANCH   8  12
ATOM     12  O3  A2G d   1      55.488  88.293 -30.415  0.00  0.00    -0.348 OA
BRANCH  12  13
ATOM     13  C1  GAL d   1      54.468  88.388 -31.365  0.00  0.00     0.159 C 
ATOM     14  O5  GAL d   1      53.306  88.965 -30.748  0.00  0.00    -0.348 OA
ATOM     15  C5  GAL d   1      52.174  89.070 -31.654  0.00  0.00     0.089 C 
ATOM     16  C4  GAL d   1      51.813  87.714 -32.278  0.00  0.00     0.090 C 
ATOM     17  H5  GAL d   1      52.427  89.768 -32.466  0.00  0.00     0.090 H 
ATOM     18  C3  GAL d   1      53.015  87.057 -32.895  0.00  0.00     0.092 C 
ATOM     19  H4  GAL d   1      51.060  87.884 -33.062  0.00  0.00     0.091 H 
ATOM     20  C2  GAL d   1      54.141  87.000 -31.868  0.00  0.00     0.110 C 
ATOM     21  H3  GAL d   1      53.345  87.631 -33.773  0.00  0.00     0.091 H 
ATOM     22  H2  GAL d   1      53.819  86.377 -31.020  0.00  0.00     0.094 H 
ATOM     23  H1  GAL d   1      54.795  89.020 -32.204  0.00  0.00     0.133 H 
BRANCH  15  24
ATOM     24  C6  GAL d   1      51.016  89.628 -30.861  0.00  0.00     0.043 C 
ATOM     25  H6  GAL d   1      50.827  88.981 -29.991  0.00  0.00     0.078 H 
ATOM     26  H7  GAL d   1      50.120  89.656 -31.499  0.00  0.00     0.078 H 
BRANCH  24  27
ATOM     27  O6  GAL d   1      51.309  90.936 -30.413  0.00  0.00    -0.398 OA
ATOM     28  H11 GAL d   1      52.081  90.915 -29.860  0.00  0.00     0.209 HD
ENDBRANCH  24  27
ENDBRANCH  15  24
BRANCH  16  29
ATOM     29  O4  GAL d   1      51.273  86.840 -31.307  0.00  0.00    -0.390 OA
ATOM     30  H10 GAL d   1      51.020  86.024 -31.723  0.00  0.00     0.210 HD
ENDBRANCH  16  29
BRANCH  18  31
ATOM     31  O3  GAL d   1      52.655  85.740 -33.289  0.00  0.00    -0.390 OA
ATOM     32  H9  GAL d   1      52.362  85.252 -32.528  0.00  0.00     0.210 HD
ENDBRANCH  18  31
BRANCH  20  33
ATOM     33  O2  GAL d   1      55.296  86.432 -32.449  0.00  0.00    -0.388 OA
ATOM     34  H8  GAL d   1      55.985  86.381 -31.797  0.00  0.00     0.210 HD
ENDBRANCH  20  33
ENDBRANCH  12  13
ENDBRANCH   8  12
BRANCH   7  35
ATOM     35  N2  A2G d   1      58.351  87.892 -30.478  0.00  0.00    -0.349 N 
ATOM     36  C7  A2G d   1      58.560  86.675 -29.990  0.00  0.00     0.214 C 
ATOM     37  O7  A2G d   1      58.276  86.383 -28.827  0.00  0.00    -0.274 OA
ATOM     38  H22 GAL d   1      58.631  88.107 -31.413  0.00  0.00     0.163 HD
BRANCH  36  39
ATOM     39  C8  A2G d   1      59.206  85.657 -30.918  0.00  0.00    -0.003 C 
ATOM     40  H19 GAL d   1      59.319  84.699 -30.389  0.00  0.00     0.040 H 
ATOM     41  H20 GAL d   1      60.195  86.022 -31.231  0.00  0.00     0.040 H 
ATOM     42  H21 GAL d   1      58.570  85.513 -31.804  0.00  0.00     0.040 H 
ENDBRANCH  36  39
ENDBRANCH   7  35
BRANCH   9  43
ATOM     43  O4  A2G d   1      55.348  90.025 -28.282  0.00  0.00    -0.390 OA
ATOM     44  H23 GAL d   1      54.695  89.352 -28.435  0.00  0.00     0.210 HD
ENDBRANCH   9  43
BRANCH   6  45
ATOM     45  O1  A2G d   1      58.963  90.624 -30.778  0.00  0.00    -0.355 OA
BRANCH  45  46
ATOM     46  C   MBN d   1      60.257  91.238 -30.943  0.00  0.00     0.046 C 
ATOM     47  H25 GAL d   1      60.194  91.928 -31.798  0.00  0.00     0.082 H 
ATOM     48  H26 GAL d   1      60.476  91.807 -30.028  0.00  0.00     0.082 H 
BRANCH  46  49
ATOM     49  C1  MBN d   1      61.418  90.302 -31.192  0.00  0.00    -0.035 A 
ATOM     50  C6  MBN d   1      62.690  90.620 -30.753  0.00  0.00    -0.075 A 
ATOM     51  C5  MBN d   1      63.722  89.729 -30.886  0.00  0.00    -0.082 A 
ATOM     52  H31 GAL d   1      62.873  91.587 -30.298  0.00  0.00     0.084 H 
ATOM     53  C4  MBN d   1      63.496  88.503 -31.466  0.00  0.00    -0.083 A 
ATOM     54  H30 GAL d   1      64.714  89.990 -30.535  0.00  0.00     0.083 H 
ATOM     55  C3  MBN d   1      62.233  88.175 -31.922  0.00  0.00    -0.082 A 
ATOM     56  H29 GAL d   1      64.309  87.793 -31.566  0.00  0.00     0.083 H 
ATOM     57  C2  MBN d   1      61.208  89.066 -31.787  0.00  0.00    -0.075 A 
ATOM     58  H28 GAL d   1      62.057  87.211 -32.386  0.00  0.00     0.083 H 
ATOM     59  H27 GAL d   1      60.220  88.805 -32.148  0.00  0.00     0.084 H 
ENDBRANCH  46  49
ENDBRANCH  45  46
ENDBRANCH   6  45
BRANCH  10  60
ATOM     60  C6  A2G d   1      56.300  92.651 -28.269  0.00  0.00     0.043 C 
ATOM     61  H17 GAL d   1      57.042  93.457 -28.172  0.00  0.00     0.078 H 
ATOM     62  H18 GAL d   1      56.160  92.162 -27.294  0.00  0.00     0.078 H 
BRANCH  60  63
ATOM     63  O6  A2G d   1      55.061  93.213 -28.684  0.00  0.00    -0.398 OA
ATOM     64  H24 GAL d   1      54.771  93.848 -28.040  0.00  0.00     0.209 HD
ENDBRANCH  60  63
ENDBRANCH  10  60
TORSDOF 15
