REMARK WARNING: 32 MAX_TORS EXCEEDED!!!
REMARK  59 active torsions:
REMARK  status: ('A' for Active; 'I' for Inactive)
REMARK    1  A    between atoms: CA_2  and  N_1 
REMARK    2  A    between atoms: C_3  and  CA_2 
REMARK    3  A    between atoms: CA_2  and  CB_5 
REMARK       I    between atoms: N_7  and  C_3 
REMARK    4  A    between atoms: CB_5  and  OG_6 
REMARK    5  A    between atoms: CA_8  and  N_7 
REMARK    6  A    between atoms: C_9  and  CA_8 
REMARK    7  A    between atoms: CA_8  and  CB_11 
REMARK       I    between atoms: N_19  and  C_9 
REMARK    8  A    between atoms: CB_11  and  CG_12 
REMARK    9  A    between atoms: CZ_17  and  OH_18 
REMARK   10  A    between atoms: CA_20  and  N_19 
REMARK   11  A    between atoms: C_21  and  CA_20 
REMARK       I    between atoms: N_23  and  C_21 
REMARK   12  A    between atoms: CA_24  and  N_23 
REMARK   13  A    between atoms: C_25  and  CA_24 
REMARK   14  A    between atoms: CA_24  and  CB_27 
REMARK       I    between atoms: N_43  and  C_25 
REMARK   15  A    between atoms: CB_27  and  CG_28 
REMARK   16  A    between atoms: CG_28  and  CD_29 
REMARK   17  A    between atoms: CD_29  and  NE_30 
REMARK       I    between atoms: NE_30  and  CZ_31 
REMARK       I    between atoms: CZ_31  and  NH1_32 
REMARK       I    between atoms: CZ_31  and  NH2_33 
REMARK   18  A    between atoms: CH_35  and  CH3_36 
REMARK       I    between atoms: NZ_37  and  CH_35 
REMARK   19  A    between atoms: CE_38  and  NZ_37 
REMARK   20  A    between atoms: CD_39  and  CE_38 
REMARK   21  A    between atoms: CG_40  and  CD_39 
REMARK   22  A    between atoms: CB_41  and  CG_40 
REMARK   23  A    between atoms: CA_42  and  CB_41 
REMARK   24  A    between atoms: CA_42  and  N_43 
REMARK   25  A    between atoms: CA_42  and  C_44 
REMARK       I    between atoms: C_44  and  N_46 
REMARK   26  A    between atoms: N_46  and  CA_47 
REMARK   27  A    between atoms: CA_47  and  C_48 
REMARK   28  A    between atoms: CA_47  and  CB_50 
REMARK       I    between atoms: C_48  and  N_55 
REMARK   29  A    between atoms: CB_50  and  CG_51 
REMARK   30  A    between atoms: CG_51  and  CD_52 
REMARK   31  A    between atoms: CD_52  and  CE_53 
REMARK   32  A    between atoms: CE_53  and  NZ_54 
REMARK   33  A    between atoms: N_55  and  CA_56 
REMARK   34  A    between atoms: CA_56  and  C_57 
REMARK   35  A    between atoms: CA_56  and  CB_59 
REMARK       I    between atoms: C_57  and  N_66 
REMARK   36  A    between atoms: CB_59  and  CG_60 
REMARK   37  A    between atoms: CG_60  and  CD_61 
REMARK   38  A    between atoms: CD_61  and  NE_62 
REMARK       I    between atoms: NE_62  and  CZ_63 
REMARK       I    between atoms: CZ_63  and  NH1_64 
REMARK       I    between atoms: CZ_63  and  NH2_65 
REMARK   39  A    between atoms: N_66  and  CA_67 
REMARK   40  A    between atoms: CA_67  and  C_68 
REMARK   41  A    between atoms: CA_67  and  CB_70 
REMARK       I    between atoms: C_68  and  N_77 
REMARK   42  A    between atoms: CB_70  and  CG_71 
REMARK   43  A    between atoms: CG_71  and  CD_72 
REMARK   44  A    between atoms: CD_72  and  NE_73 
REMARK       I    between atoms: NE_73  and  CZ_74 
REMARK       I    between atoms: CZ_74  and  NH1_75 
REMARK       I    between atoms: CZ_74  and  NH2_76 
REMARK   45  A    between atoms: N_77  and  CA_78 
REMARK   46  A    between atoms: CA_78  and  C_79 
REMARK   47  A    between atoms: CA_78  and  CB_81 
REMARK       I    between atoms: C_79  and  N_86 
REMARK   48  A    between atoms: CB_81  and  CG_82 
REMARK   49  A    between atoms: CG_82  and  CD_83 
REMARK       I    between atoms: CD_83  and  NE2_85 
REMARK   50  A    between atoms: N_86  and  CA_87 
REMARK   51  A    between atoms: CA_87  and  C_88 
REMARK   52  A    between atoms: CA_87  and  CB_90 
REMARK       I    between atoms: C_88  and  N_97 
REMARK   53  A    between atoms: CB_90  and  CG_91 
REMARK   54  A    between atoms: CG_91  and  CD_92 
REMARK   55  A    between atoms: CD_92  and  NE_93 
REMARK       I    between atoms: NE_93  and  CZ_94 
REMARK       I    between atoms: CZ_94  and  NH1_95 
REMARK   56  A    between atoms: N_97  and  CA_98 
REMARK   57  A    between atoms: CA_98  and  C_99 
REMARK   58  A    between atoms: CA_98  and  CB_101 
REMARK   59  A    between atoms: CB_101  and  SG_102 
ROOT
ATOM      1  CA  LYS d   1     -18.874   0.124   2.271  0.00  0.00     0.089 C 
ATOM      2  H48 LYS d   1     -18.709   0.856   3.076  0.00  0.00     0.087 H 
ENDROOT
BRANCH   1   3
ATOM      3  N   LYS d   1     -17.694   0.058   1.364  0.00  0.00    -0.346 N 
ATOM      4  C   ALY d   1     -16.739   0.944   1.460  0.00  0.00     0.241 C 
ATOM      5  O   ALY d   1     -16.785   1.839   2.280  0.00  0.00    -0.271 OA
ATOM      6  H47 LYS d   1     -17.633  -0.668   0.679  0.00  0.00     0.163 HD
BRANCH   4   7
ATOM      7  CA  ALY d   1     -15.565   0.814   0.487  0.00  0.00     0.089 C 
ATOM      8  H45 ALY d   1     -15.067  -0.155   0.638  0.00  0.00     0.087 H 
BRANCH   7   9
ATOM      9  CB  ALY d   1     -14.573   1.966   0.670  0.00  0.00    -0.038 C 
ATOM     10  H43 ALY d   1     -15.098   2.926   0.556  0.00  0.00     0.036 H 
ATOM     11  H44 ALY d   1     -14.125   1.910   1.673  0.00  0.00     0.036 H 
BRANCH   9  12
ATOM     12  CG  ALY d   1     -13.472   1.853  -0.392  0.00  0.00    -0.061 C 
ATOM     13  H41 ALY d   1     -13.679   0.987  -1.038  0.00  0.00     0.033 H 
ATOM     14  H42 ALY d   1     -13.459   2.769  -1.000  0.00  0.00     0.033 H 
BRANCH  12  15
ATOM     15  CD  ALY d   1     -12.102   1.670   0.276  0.00  0.00    -0.050 C 
ATOM     16  H39 ALY d   1     -11.347   1.462  -0.496  0.00  0.00     0.035 H 
ATOM     17  H40 ALY d   1     -11.834   2.592   0.813  0.00  0.00     0.035 H 
BRANCH  15  18
ATOM     18  CE  ALY d   1     -12.148   0.504   1.266  0.00  0.00    -0.005 C 
ATOM     19  H37 ALY d   1     -11.773   0.816   2.252  0.00  0.00     0.064 H 
ATOM     20  H38 ALY d   1     -13.174   0.122   1.369  0.00  0.00     0.064 H 
BRANCH  18  21
ATOM     21  NZ  ALY d   1     -11.260  -0.529   0.669  0.00  0.00    -0.361 N 
ATOM     22  CH  ALY d   1     -10.205  -0.933   1.323  0.00  0.00     0.213 C 
ATOM     23  OH  ALY d   1     -10.300  -1.709   2.253  0.00  0.00    -0.274 OA
ATOM     24  H36 ALY d   1     -11.470  -0.913  -0.230  0.00  0.00     0.162 HD
BRANCH  22  25
ATOM     25  CH3 ALY d   1      -8.856  -0.323   0.935  0.00  0.00    -0.003 C 
ATOM     26  H33 ALY d   1      -8.991   0.347   0.073  0.00  0.00     0.040 H 
ATOM     27  H34 ALY d   1      -8.153  -1.126   0.668  0.00  0.00     0.040 H 
ATOM     28  H35 ALY d   1      -8.454   0.248   1.785  0.00  0.00     0.040 H 
ENDBRANCH  22  25
ENDBRANCH  18  21
ENDBRANCH  15  18
ENDBRANCH  12  15
ENDBRANCH   9  12
ENDBRANCH   7   9
BRANCH   7  29
ATOM     29  N   ALY d   1     -16.041   0.952  -0.918  0.00  0.00    -0.346 N 
ATOM     30  C   ARG d   1     -16.754   1.989  -1.265  0.00  0.00     0.241 C 
ATOM     31  O   ARG d   1     -17.044   2.853  -0.461  0.00  0.00    -0.271 OA
ATOM     32  H46 ALY d   1     -15.815   0.251  -1.594  0.00  0.00     0.163 HD
BRANCH  30  33
ATOM     33  CA  ARG d   1     -17.200   2.081  -2.723  0.00  0.00     0.089 C 
ATOM     34  H21 ARG d   1     -17.863   2.949  -2.854  0.00  0.00     0.087 H 
BRANCH  33  35
ATOM     35  N   ARG d   1     -16.011   2.186  -3.615  0.00  0.00    -0.346 N 
ATOM     36  C   GLY d   1     -16.042   2.984  -4.647  0.00  0.00     0.236 C 
ATOM     37  O   GLY d   1     -17.032   3.639  -4.906  0.00  0.00    -0.272 OA
ATOM     38  H20 ARG d   1     -15.191   1.646  -3.423  0.00  0.00     0.163 HD
BRANCH  36  39
ATOM     39  CA  GLY d   1     -14.789   3.060  -5.519  0.00  0.00     0.069 C 
ATOM     40  H18 GLY d   1     -13.925   3.330  -4.895  0.00  0.00     0.078 H 
ATOM     41  H19 GLY d   1     -14.610   2.082  -5.989  0.00  0.00     0.078 H 
BRANCH  39  42
ATOM     42  N   GLY d   1     -14.979   4.093  -6.579  0.00  0.00    -0.351 N 
ATOM     43  C   TYR d   1     -16.015   4.037  -7.373  0.00  0.00     0.241 C 
ATOM     44  O   TYR d   1     -16.839   3.149  -7.273  0.00  0.00    -0.271 OA
ATOM     45  H17 GLY d   1     -14.311   4.830  -6.682  0.00  0.00     0.163 HD
BRANCH  43  46
ATOM     46  CA  TYR d   1     -16.150   5.128  -8.438  0.00  0.00     0.093 C 
ATOM     47  H9  TYR d   1     -15.324   5.045  -9.160  0.00  0.00     0.088 H 
BRANCH  46  48
ATOM     48  N   TYR d   1     -17.468   5.022  -9.127  0.00  0.00    -0.346 N 
ATOM     49  C   SER d   1     -18.569   4.989  -8.427  0.00  0.00     0.251 C 
ATOM     50  O   SER d   1     -18.546   5.043  -7.213  0.00  0.00    -0.271 OA
ATOM     51  H8  TYR d   1     -17.508   4.976 -10.125  0.00  0.00     0.163 HD
BRANCH  49  52
ATOM     52  CA  SER d   1     -19.891   4.883  -9.190  0.00  0.00     0.195 C 
ATOM     53  H4  SER d   1     -19.731   5.144 -10.246  0.00  0.00     0.102 H 
BRANCH  52  54
ATOM     54  N   SER d   1     -20.453   3.510  -9.065  0.00  0.00    -0.064 N 
ATOM     55  H1  SER d   1     -21.323   3.455  -9.572  0.00  0.00     0.275 HD
ATOM     56  H2  SER d   1     -20.617   3.301  -8.093  0.00  0.00     0.275 HD
ATOM     57  H3  SER d   1     -19.800   2.844  -9.446  0.00  0.00     0.275 HD
ENDBRANCH  52  54
BRANCH  52  58
ATOM     58  CB  SER d   1     -20.943   5.797  -8.558  0.00  0.00     0.051 C 
ATOM     59  H5  SER d   1     -20.558   6.197  -7.608  0.00  0.00     0.077 H 
ATOM     60  H6  SER d   1     -21.862   5.223  -8.368  0.00  0.00     0.077 H 
BRANCH  58  61
ATOM     61  OG  SER d   1     -21.230   6.870  -9.442  0.00  0.00    -0.398 OA
ATOM     62  H7  SER d   1     -21.883   7.437  -9.049  0.00  0.00     0.209 HD
ENDBRANCH  58  61
ENDBRANCH  52  58
ENDBRANCH  49  52
ENDBRANCH  46  48
BRANCH  46  63
ATOM     63  CB  TYR d   1     -16.162   6.511  -7.784  0.00  0.00    -0.014 C 
ATOM     64  H10 TYR d   1     -15.679   6.453  -6.797  0.00  0.00     0.043 H 
ATOM     65  H11 TYR d   1     -17.201   6.850  -7.665  0.00  0.00     0.043 H 
BRANCH  63  66
ATOM     66  CG  TYR d   1     -15.411   7.490  -8.654  0.00  0.00    -0.056 A 
ATOM     67  CD1 TYR d   1     -14.039   7.319  -8.878  0.00  0.00    -0.074 A 
ATOM     68  CE1 TYR d   1     -13.341   8.228  -9.682  0.00  0.00    -0.051 A 
ATOM     69  H12 TYR d   1     -13.517   6.482  -8.428  0.00  0.00     0.084 H 
ATOM     70  CZ  TYR d   1     -14.015   9.311 -10.262  0.00  0.00     0.065 A 
ATOM     71  H14 TYR d   1     -12.279   8.094  -9.856  0.00  0.00     0.087 H 
ATOM     72  CE2 TYR d   1     -15.386   9.483 -10.037  0.00  0.00    -0.051 A 
ATOM     73  CD2 TYR d   1     -16.084   8.574  -9.232  0.00  0.00    -0.074 A 
ATOM     74  H15 TYR d   1     -15.908  10.320 -10.486  0.00  0.00     0.087 H 
ATOM     75  H13 TYR d   1     -17.145   8.709  -9.056  0.00  0.00     0.084 H 
BRANCH  70  76
ATOM     76  OH  TYR d   1     -13.327  10.207 -11.055  0.00  0.00    -0.361 OA
ATOM     77  H16 TYR d   1     -12.414   9.948 -11.105  0.00  0.00     0.217 HD
ENDBRANCH  70  76
ENDBRANCH  63  66
ENDBRANCH  46  63
ENDBRANCH  43  46
ENDBRANCH  39  42
ENDBRANCH  36  39
ENDBRANCH  33  35
BRANCH  33  78
ATOM     78  CB  ARG d   1     -17.908   0.793  -3.147  0.00  0.00    -0.036 C 
ATOM     79  H22 ARG d   1     -17.342  -0.076  -2.780  0.00  0.00     0.036 H 
ATOM     80  H23 ARG d   1     -17.971   0.752  -4.244  0.00  0.00     0.036 H 
BRANCH  78  81
ATOM     81  CG  ARG d   1     -19.318   0.774  -2.552  0.00  0.00    -0.048 C 
ATOM     82  H24 ARG d   1     -19.255   0.854  -1.457  0.00  0.00     0.035 H 
ATOM     83  H25 ARG d   1     -19.818  -0.168  -2.823  0.00  0.00     0.035 H 
BRANCH  81  84
ATOM     84  CD  ARG d   1     -20.119   1.955  -3.105  0.00  0.00     0.009 C 
ATOM     85  H26 ARG d   1     -19.559   2.463  -3.904  0.00  0.00     0.064 H 
ATOM     86  H27 ARG d   1     -20.351   2.674  -2.305  0.00  0.00     0.064 H 
BRANCH  84  87
ATOM     87  NE  ARG d   1     -21.372   1.347  -3.646  0.00  0.00    -0.227 N 
ATOM     88  CZ  ARG d   1     -22.418   2.092  -3.922  0.00  0.00     0.665 C 
ATOM     89  NH1 ARG d   1     -22.392   3.389  -3.733  0.00  0.00    -0.235 N 
ATOM     90  NH2 ARG d   1     -23.499   1.533  -4.393  0.00  0.00    -0.235 N 
ATOM     91  H29 ARG d   1     -23.221   3.958  -3.955  0.00  0.00     0.174 HD
ATOM     92  H30 ARG d   1     -21.542   3.839  -3.363  0.00  0.00     0.174 HD
ATOM     93  H31 ARG d   1     -23.528   0.515  -4.545  0.00  0.00     0.174 HD
ATOM     94  H32 ARG d   1     -24.323   2.110  -4.613  0.00  0.00     0.174 HD
ATOM     95  H28 ARG d   1     -21.416   0.330  -3.805  0.00  0.00     0.177 HD
ENDBRANCH  84  87
ENDBRANCH  81  84
ENDBRANCH  78  81
ENDBRANCH  33  78
ENDBRANCH  30  33
ENDBRANCH   7  29
ENDBRANCH   4   7
ENDBRANCH   1   3
BRANCH   1  96
ATOM     96  C   LYS d   1     -19.156  -1.253   2.876  0.00  0.00     0.241 C 
ATOM     97  O   LYS d   1     -18.283  -2.094   2.960  0.00  0.00    -0.271 OA
ATOM     98  N   ARG d   1     -20.369  -1.495   3.291  0.00  0.00    -0.346 N 
ATOM     99  H60 ARG d   1     -21.074  -0.790   3.215  0.00  0.00     0.163 HD
BRANCH  98 100
ATOM    100  CA  ARG d   1     -20.702  -2.823   3.878  0.00  0.00     0.089 C 
ATOM    101  H61 ARG d   1     -19.954  -3.117   4.629  0.00  0.00     0.087 H 
BRANCH 100 102
ATOM    102  C   ARG d   1     -20.771  -3.882   2.775  0.00  0.00     0.241 C 
ATOM    103  O   ARG d   1     -20.593  -3.588   1.609  0.00  0.00    -0.271 OA
ATOM    104  N   ARG d   1     -21.024  -5.111   3.131  0.00  0.00    -0.346 N 
ATOM    105  H73 ARG d   1     -21.167  -5.334   4.095  0.00  0.00     0.163 HD
BRANCH 104 106
ATOM    106  CA  ARG d   1     -21.100  -6.182   2.098  0.00  0.00     0.089 C 
ATOM    107  H74 ARG d   1     -20.304  -6.058   1.349  0.00  0.00     0.087 H 
BRANCH 106 108
ATOM    108  C   ARG d   1     -22.464  -6.158   1.406  0.00  0.00     0.241 C 
ATOM    109  O   ARG d   1     -23.493  -6.310   2.035  0.00  0.00    -0.271 OA
ATOM    110  N   GLN d   1     -22.480  -5.969   0.116  0.00  0.00    -0.346 N 
ATOM    111  H86 GLN d   1     -21.621  -5.847  -0.381  0.00  0.00     0.163 HD
BRANCH 110 112
ATOM    112  CA  GLN d   1     -23.776  -5.935  -0.618  0.00  0.00     0.090 C 
ATOM    113  H87 GLN d   1     -24.415  -5.121  -0.246  0.00  0.00     0.087 H 
BRANCH 112 114
ATOM    114  C   GLN d   1     -24.506  -7.272  -0.470  0.00  0.00     0.241 C 
ATOM    115  O   GLN d   1     -24.152  -8.256  -1.088  0.00  0.00    -0.271 OA
ATOM    116  N   ARG d   1     -25.528  -7.312   0.339  0.00  0.00    -0.346 N 
ATOM    117  H94 ARG d   1     -25.805  -6.489   0.836  0.00  0.00     0.163 HD
BRANCH 116 118
ATOM    118  CA  ARG d   1     -26.283  -8.583   0.523  0.00  0.00     0.089 C 
ATOM    119  H95 ARG d   1     -25.595  -9.432   0.646  0.00  0.00     0.087 H 
BRANCH 118 120
ATOM    120  C   ARG d   1     -27.202  -8.834  -0.674  0.00  0.00     0.241 C 
ATOM    121  O   ARG d   1     -28.192  -8.155  -0.861  0.00  0.00    -0.271 OA
ATOM    122  N   CYS d   1     -26.883  -9.804  -1.486  0.00  0.00    -0.344 N 
ATOM    123 7H10 CYS d   1     -26.064 -10.351  -1.315  0.00  0.00     0.163 HD
BRANCH 122 124
ATOM    124  CA  CYS d   1     -27.741 -10.096  -2.669  0.00  0.00     0.104 C 
ATOM    125 8H10 CYS d   1     -28.342  -9.216  -2.941  0.00  0.00     0.090 H 
BRANCH 124 126
ATOM    126  C   CYS d   1     -28.665 -11.280  -2.377  0.00  0.00     0.197 C 
ATOM    127  O   CYS d   1     -28.747 -12.163  -3.215  0.00  0.00    -0.646 OA
ATOM    128  OXT CYS d   1     -29.322 -11.253  -1.349  0.00  0.00    -0.646 OA
ENDBRANCH 124 126
BRANCH 124 129
ATOM    129  CB  CYS d   1     -26.759 -10.450  -3.789  0.00  0.00     0.003 C 
ATOM    130 9H10 CYS d   1     -27.264 -11.083  -4.533  0.00  0.00     0.052 H 
ATOM    131 0H11 CYS d   1     -25.901 -10.994  -3.366  0.00  0.00     0.052 H 
BRANCH 129 132
ATOM    132  SG  CYS d   1     -26.178  -8.931  -4.584  0.00  0.00    -0.180 SA
ATOM    133 1H11 CYS d   1     -25.532  -9.165  -5.321  0.00  0.00     0.101 HD
ENDBRANCH 129 132
ENDBRANCH 124 129
ENDBRANCH 122 124
ENDBRANCH 118 120
BRANCH 118 134
ATOM    134  CB  ARG d   1     -27.108  -8.365   1.792  0.00  0.00    -0.036 C 
ATOM    135  H96 ARG d   1     -28.009  -7.782   1.548  0.00  0.00     0.036 H 
ATOM    136  H97 ARG d   1     -26.506  -7.817   2.532  0.00  0.00     0.036 H 
BRANCH 134 137
ATOM    137  CG  ARG d   1     -27.518  -9.720   2.371  0.00  0.00    -0.048 C 
ATOM    138  H98 ARG d   1     -27.972  -9.573   3.362  0.00  0.00     0.035 H 
ATOM    139  H99 ARG d   1     -26.630 -10.362   2.466  0.00  0.00     0.035 H 
BRANCH 137 140
ATOM    140  CD  ARG d   1     -28.532 -10.387   1.439  0.00  0.00     0.009 C 
ATOM    141 0H10 ARG d   1     -28.043 -11.153   0.819  0.00  0.00     0.064 H 
ATOM    142 1H10 ARG d   1     -29.011  -9.640   0.789  0.00  0.00     0.064 H 
BRANCH 140 143
ATOM    143  NE  ARG d   1     -29.536 -11.011   2.350  0.00  0.00    -0.227 N 
ATOM    144  CZ  ARG d   1     -29.264 -12.124   2.992  0.00  0.00     0.665 C 
ATOM    145  NH1 ARG d   1     -28.105 -12.719   2.852  0.00  0.00    -0.235 N 
ATOM    146  NH2 ARG d   1     -30.163 -12.645   3.781  0.00  0.00    -0.235 N 
ATOM    147 3H10 ARG d   1     -27.909 -13.591   3.363  0.00  0.00     0.174 HD
ATOM    148 4H10 ARG d   1     -27.390 -12.314   2.231  0.00  0.00     0.174 HD
ATOM    149 5H10 ARG d   1     -31.076 -12.183   3.897  0.00  0.00     0.174 HD
ATOM    150 6H10 ARG d   1     -29.959 -13.518   4.288  0.00  0.00     0.174 HD
ATOM    151 2H10 ARG d   1     -30.455 -10.563   2.477  0.00  0.00     0.177 HD
ENDBRANCH 140 143
ENDBRANCH 137 140
ENDBRANCH 134 137
ENDBRANCH 118 134
ENDBRANCH 116 118
ENDBRANCH 112 114
BRANCH 112 152
ATOM    152  CB  GLN d   1     -23.387  -5.697  -2.078  0.00  0.00    -0.030 C 
ATOM    153  H88 GLN d   1     -22.665  -6.465  -2.394  0.00  0.00     0.037 H 
ATOM    154  H89 GLN d   1     -22.930  -4.701  -2.177  0.00  0.00     0.037 H 
BRANCH 152 155
ATOM    155  CG  GLN d   1     -24.633  -5.775  -2.965  0.00  0.00     0.011 C 
ATOM    156  H90 GLN d   1     -25.523  -5.924  -2.335  0.00  0.00     0.047 H 
ATOM    157  H91 GLN d   1     -24.533  -6.618  -3.664  0.00  0.00     0.047 H 
BRANCH 155 158
ATOM    158  CD  GLN d   1     -24.780  -4.473  -3.754  0.00  0.00     0.215 C 
ATOM    159  OE1 GLN d   1     -25.700  -3.712  -3.528  0.00  0.00    -0.274 OA
ATOM    160  NE2 GLN d   1     -23.906  -4.182  -4.678  0.00  0.00    -0.370 N 
ATOM    161  H92 GLN d   1     -23.993  -3.333  -5.199  0.00  0.00     0.159 HD
ATOM    162  H93 GLN d   1     -23.149  -4.808  -4.865  0.00  0.00     0.159 HD
ENDBRANCH 155 158
ENDBRANCH 152 155
ENDBRANCH 112 152
ENDBRANCH 110 112
ENDBRANCH 106 108
BRANCH 106 163
ATOM    163  CB  ARG d   1     -20.917  -7.489   2.869  0.00  0.00    -0.036 C 
ATOM    164  H75 ARG d   1     -21.808  -8.121   2.737  0.00  0.00     0.036 H 
ATOM    165  H76 ARG d   1     -20.779  -7.268   3.938  0.00  0.00     0.036 H 
BRANCH 163 166
ATOM    166  CG  ARG d   1     -19.685  -8.225   2.337  0.00  0.00    -0.048 C 
ATOM    167  H77 ARG d   1     -18.813  -7.980   2.962  0.00  0.00     0.035 H 
ATOM    168  H78 ARG d   1     -19.492  -7.914   1.300  0.00  0.00     0.035 H 
BRANCH 166 169
ATOM    169  CD  ARG d   1     -19.935  -9.733   2.379  0.00  0.00     0.009 C 
ATOM    170  H79 ARG d   1     -20.799 -10.000   1.753  0.00  0.00     0.064 H 
ATOM    171  H80 ARG d   1     -20.113 -10.068   3.412  0.00  0.00     0.064 H 
BRANCH 169 172
ATOM    172  NE  ARG d   1     -18.685 -10.343   1.837  0.00  0.00    -0.227 N 
ATOM    173  CZ  ARG d   1     -18.636 -11.619   1.530  0.00  0.00     0.665 C 
ATOM    174  NH1 ARG d   1     -19.681 -12.393   1.689  0.00  0.00    -0.235 N 
ATOM    175  NH2 ARG d   1     -17.529 -12.124   1.058  0.00  0.00    -0.235 N 
ATOM    176  H82 ARG d   1     -19.625 -13.392   1.443  0.00  0.00     0.174 HD
ATOM    177  H83 ARG d   1     -20.559 -12.003   2.060  0.00  0.00     0.174 HD
ATOM    178  H84 ARG d   1     -16.702 -11.523   0.930  0.00  0.00     0.174 HD
ATOM    179  H85 ARG d   1     -17.482 -13.123   0.814  0.00  0.00     0.174 HD
ATOM    180  H81 ARG d   1     -17.850  -9.755   1.702  0.00  0.00     0.177 HD
ENDBRANCH 169 172
ENDBRANCH 166 169
ENDBRANCH 163 166
ENDBRANCH 106 163
ENDBRANCH 104 106
ENDBRANCH 100 102
BRANCH 100 181
ATOM    181  CB  ARG d   1     -22.076  -2.636   4.525  0.00  0.00    -0.036 C 
ATOM    182  H62 ARG d   1     -22.471  -3.614   4.836  0.00  0.00     0.036 H 
ATOM    183  H63 ARG d   1     -22.764  -2.177   3.800  0.00  0.00     0.036 H 
BRANCH 181 184
ATOM    184  CG  ARG d   1     -21.944  -1.726   5.750  0.00  0.00    -0.048 C 
ATOM    185  H64 ARG d   1     -22.941  -1.533   6.172  0.00  0.00     0.035 H 
ATOM    186  H65 ARG d   1     -21.482  -0.774   5.451  0.00  0.00     0.035 H 
BRANCH 184 187
ATOM    187  CD  ARG d   1     -21.068  -2.409   6.803  0.00  0.00     0.009 C 
ATOM    188  H66 ARG d   1     -20.011  -2.143   6.659  0.00  0.00     0.064 H 
ATOM    189  H67 ARG d   1     -21.181  -3.502   6.751  0.00  0.00     0.064 H 
BRANCH 187 190
ATOM    190  NE  ARG d   1     -21.567  -1.890   8.112  0.00  0.00    -0.227 N 
ATOM    191  CZ  ARG d   1     -22.755  -2.223   8.560  0.00  0.00     0.665 C 
ATOM    192  NH1 ARG d   1     -23.539  -3.018   7.874  0.00  0.00    -0.235 N 
ATOM    193  NH2 ARG d   1     -23.163  -1.755   9.708  0.00  0.00    -0.235 N 
ATOM    194  H69 ARG d   1     -24.468  -3.268   8.242  0.00  0.00     0.174 HD
ATOM    195  H70 ARG d   1     -23.226  -3.393   6.967  0.00  0.00     0.174 HD
ATOM    196  H71 ARG d   1     -22.554  -1.129  10.255  0.00  0.00     0.174 HD
ATOM    197  H72 ARG d   1     -24.094  -2.011  10.067  0.00  0.00     0.174 HD
ATOM    198  H68 ARG d   1     -20.971  -1.262   8.670  0.00  0.00     0.177 HD
ENDBRANCH 187 190
ENDBRANCH 184 187
ENDBRANCH 181 184
ENDBRANCH 100 181
ENDBRANCH  98 100
ENDBRANCH   1  96
BRANCH   1 199
ATOM    199  CB  LYS d   1     -20.033   0.560   1.368  0.00  0.00    -0.038 C 
ATOM    200  H49 LYS d   1     -19.781   1.516   0.885  0.00  0.00     0.036 H 
ATOM    201  H50 LYS d   1     -20.942   0.684   1.974  0.00  0.00     0.036 H 
BRANCH 199 202
ATOM    202  CG  LYS d   1     -20.278  -0.504   0.294  0.00  0.00    -0.061 C 
ATOM    203  H51 LYS d   1     -20.582  -1.446   0.774  0.00  0.00     0.033 H 
ATOM    204  H52 LYS d   1     -19.353  -0.666  -0.279  0.00  0.00     0.033 H 
BRANCH 202 205
ATOM    205  CD  LYS d   1     -21.386  -0.032  -0.651  0.00  0.00    -0.043 C 
ATOM    206  H53 LYS d   1     -21.378  -0.649  -1.562  0.00  0.00     0.035 H 
ATOM    207  H54 LYS d   1     -21.214   1.021  -0.920  0.00  0.00     0.035 H 
BRANCH 205 208
ATOM    208  CE  LYS d   1     -22.743  -0.165   0.043  0.00  0.00     0.080 C 
ATOM    209  H55 LYS d   1     -22.640  -0.707   0.995  0.00  0.00     0.075 H 
ATOM    210  H56 LYS d   1     -23.459  -0.693  -0.604  0.00  0.00     0.075 H 
BRANCH 208 211
ATOM    211  NZ  LYS d   1     -23.188   1.237   0.283  0.00  0.00    -0.079 N 
ATOM    212  H57 LYS d   1     -24.085   1.231   0.743  0.00  0.00     0.274 HD
ATOM    213  H58 LYS d   1     -23.265   1.720  -0.598  0.00  0.00     0.274 HD
ATOM    214  H59 LYS d   1     -22.515   1.708   0.867  0.00  0.00     0.274 HD
ENDBRANCH 208 211
ENDBRANCH 205 208
ENDBRANCH 202 205
ENDBRANCH 199 202
ENDBRANCH   1 199
TORSDOF 59
