REMARK  5 active torsions:
REMARK  status: ('A' for Active; 'I' for Inactive)
REMARK    1  A    between atoms: N1_1  and  C1_9 
REMARK    2  A    between atoms: C3_11  and  O3_13 
REMARK    3  A    between atoms: C4_12  and  C5_15 
REMARK    4  A    between atoms: C5_15  and  O5_16 
REMARK    5  A    between atoms: O5_16  and  P_17 
ROOT
ATOM      1  C1  UMP d   1      15.773  48.198 -54.641  0.00  0.00     0.116 C 
ATOM      2  C2  UMP d   1      15.083  47.911 -55.975  0.00  0.00     0.002 C 
ATOM      3  C3  UMP d   1      16.226  48.043 -56.972  0.00  0.00     0.066 C 
ATOM      4  C4  UMP d   1      16.976  49.317 -56.582  0.00  0.00     0.087 C 
ATOM      5  O4  UMP d   1      16.755  49.289 -55.075  0.00  0.00    -0.356 OA
ATOM      6  H4  UMP d   1      16.385  47.322 -54.381  0.00  0.00     0.118 H 
ATOM      7  H5  UMP d   1      14.291  48.646 -56.179  0.00  0.00     0.043 H 
ATOM      8  H6  UMP d   1      14.656  46.897 -55.992  0.00  0.00     0.043 H 
ATOM      9  H7  UMP d   1      15.862  48.082 -58.009  0.00  0.00     0.087 H 
ATOM     10  H8  UMP d   1      18.042  49.282 -56.851  0.00  0.00     0.090 H 
ENDROOT
BRANCH   1  11
ATOM     11  N1  UMP d   1      14.860  48.338 -53.482  0.00  0.00    -0.282 N 
ATOM     12  C2  UMP d   1      14.041  47.265 -53.128  0.00  0.00     0.331 A 
ATOM     13  N3  UMP d   1      13.186  47.446 -52.039  0.00  0.00    -0.275 N 
ATOM     14  O2  UMP d   1      14.033  46.196 -53.723  0.00  0.00    -0.246 OA
ATOM     15  C4  UMP d   1      13.082  48.631 -51.271  0.00  0.00     0.250 A 
ATOM     16  H1  UMP d   1      12.601  46.678 -51.781  0.00  0.00     0.173 HD
ATOM     17  C5  UMP d   1      13.987  49.710 -51.727  0.00  0.00    -0.002 A 
ATOM     18  O4  UMP d   1      12.298  48.687 -50.311  0.00  0.00    -0.268 OA
ATOM     19  C6  UMP d   1      14.852  49.505 -52.830  0.00  0.00    -0.008 A 
ATOM     20  H2  UMP d   1      13.988  50.669 -51.211  0.00  0.00     0.094 H 
ATOM     21  H3  UMP d   1      15.517  50.306 -53.150  0.00  0.00     0.112 H 
ENDBRANCH   1  11
BRANCH   3  22
ATOM     22  O3  UMP d   1      17.110  46.948 -56.771  0.00  0.00    -0.393 OA
ATOM     23  H9  UMP d   1      16.670  46.140 -57.006  0.00  0.00     0.210 HD
ENDBRANCH   3  22
BRANCH   4  24
ATOM     24  C5  UMP d   1      16.304  50.540 -57.220  0.00  0.00     0.059 C 
ATOM     25  H10 UMP d   1      16.710  51.470 -56.795  0.00  0.00     0.079 H 
ATOM     26  H11 UMP d   1      15.216  50.509 -57.062  0.00  0.00     0.079 H 
BRANCH  24  27
ATOM     27  O5  UMP d   1      16.621  50.445 -58.650  0.00  0.00    -0.280 OA
BRANCH  27  28
ATOM     28  P   UMP d   1      15.822  51.030 -59.854  0.00  0.00     0.422 P 
ATOM     29  O1P UMP d   1      16.691  51.442 -60.939  0.00  0.00    -0.617 OA
ATOM     30  O2P UMP d   1      15.016  49.917 -60.363  0.00  0.00    -0.617 OA
ATOM     31  O3P UMP d   1      15.007  52.221 -59.449  0.00  0.00    -0.617 OA
ENDBRANCH  27  28
ENDBRANCH  24  27
ENDBRANCH   4  24
TORSDOF 5
