REMARK  28 active torsions:
REMARK  status: ('A' for Active; 'I' for Inactive)
REMARK    1  A    between atoms: N_1  and  CA_2 
REMARK    2  A    between atoms: CA_2  and  C_3 
REMARK       I    between atoms: C_3  and  N_10 
REMARK    3  A    between atoms: N_10  and  CA_11 
REMARK    4  A    between atoms: CA_11  and  C_12 
REMARK    5  A    between atoms: CA_11  and  CB_14 
REMARK       I    between atoms: C_12  and  N_24 
REMARK    6  A    between atoms: CB_14  and  OG1_15 
REMARK    7  A    between atoms: CB_14  and  CG2_16 
REMARK    8  A    between atoms: CA_25  and  C_26 
REMARK       I    between atoms: C_26  and  N_38 
REMARK    9  A    between atoms: CA_39  and  C_40 
REMARK       I    between atoms: C_40  and  N_52 
REMARK   10  A    between atoms: CA_53  and  C_54 
REMARK       I    between atoms: C_54  and  N_66 
REMARK   11  A    between atoms: CA_67  and  C_68 
REMARK       I    between atoms: C_68  and  N_80 
REMARK   12  A    between atoms: N_80  and  CA_81 
REMARK   13  A    between atoms: CA_81  and  C_82 
REMARK   14  A    between atoms: CA_81  and  CB_84 
REMARK       I    between atoms: C_82  and  N_101 
REMARK   15  A    between atoms: CB_84  and  CG_85 
REMARK   16  A    between atoms: CZ_90  and  OH_91 
REMARK   17  A    between atoms: N_101  and  CA_102 
REMARK   18  A    between atoms: CA_102  and  C_103 
REMARK   19  A    between atoms: CA_102  and  CB_105 
REMARK       I    between atoms: C_103  and  N_115 
REMARK   20  A    between atoms: CB_105  and  OG1_106 
REMARK   21  A    between atoms: CB_105  and  CG2_107 
REMARK   22  A    between atoms: N_115  and  CA_116 
REMARK   23  A    between atoms: CA_116  and  C_117 
REMARK   24  A    between atoms: CA_116  and  CB_119 
REMARK       I    between atoms: C_117  and  N_131 
REMARK   25  A    between atoms: CB_119  and  CG1_120 
REMARK   26  A    between atoms: CB_119  and  CG2_121 
REMARK   27  A    between atoms: N_131  and  CA_132 
REMARK   28  A    between atoms: CA_132  and  C_133 
ROOT
ATOM      1  C   PRO d   1      -9.087  -9.828   0.093  0.00  0.00     0.243 C 
ATOM      2  O   PRO d   1      -8.141 -10.074   0.815  0.00  0.00    -0.271 OA
ATOM      3  N   PRO d   1      -9.625 -10.704  -0.727  0.00  0.00    -0.337 N 
ATOM      4  CA  PRO d   1      -9.091 -12.089  -0.821  0.00  0.00     0.091 C 
ATOM      5  CB  PRO d   1     -10.195 -12.849  -1.548  0.00  0.00    -0.036 C 
ATOM      6  CG  PRO d   1     -10.934 -11.815  -2.338  0.00  0.00    -0.048 C 
ATOM      7  CD  PRO d   1     -10.771 -10.495  -1.628  0.00  0.00    -0.001 C 
ATOM      8  H34 PRO d   1      -8.920 -12.508   0.182  0.00  0.00     0.087 H 
ATOM      9  H35 PRO d   1     -10.867 -13.335  -0.826  0.00  0.00     0.036 H 
ATOM     10  H36 PRO d   1      -9.764 -13.609  -2.216  0.00  0.00     0.036 H 
ATOM     11  H37 PRO d   1     -12.000 -12.080  -2.397  0.00  0.00     0.035 H 
ATOM     12  H38 PRO d   1     -10.515 -11.749  -3.353  0.00  0.00     0.035 H 
ATOM     13  H39 PRO d   1     -10.559  -9.690  -2.347  0.00  0.00     0.064 H 
ATOM     14  H40 PRO d   1     -11.677 -10.247  -1.055  0.00  0.00     0.064 H 
ENDROOT
BRANCH   1  15
ATOM     15  CA  PRO d   1      -9.736  -8.435   0.110  0.00  0.00     0.092 C 
ATOM     16  N   PRO d   1      -9.124  -7.585   1.164  0.00  0.00    -0.337 N 
ATOM     17  C   PRO d   1      -9.332  -7.835   2.436  0.00  0.00     0.243 C 
ATOM     18  CD  PRO d   1      -8.308  -6.503   0.590  0.00  0.00    -0.001 C 
ATOM     19  O   PRO d   1     -10.019  -8.752   2.841  0.00  0.00    -0.271 OA
ATOM     20  CG  PRO d   1      -8.256  -6.826  -0.880  0.00  0.00    -0.048 C 
ATOM     21  H32 PRO d   1      -7.298  -6.502   1.026  0.00  0.00     0.064 H 
ATOM     22  H33 PRO d   1      -8.781  -5.525   0.759  0.00  0.00     0.064 H 
ATOM     23  CB  PRO d   1      -9.453  -7.664  -1.181  0.00  0.00    -0.036 C 
ATOM     24  H30 PRO d   1      -8.284  -5.899  -1.472  0.00  0.00     0.035 H 
ATOM     25  H31 PRO d   1      -7.336  -7.382  -1.113  0.00  0.00     0.035 H 
ATOM     26  H28 PRO d   1     -10.311  -7.030  -1.448  0.00  0.00     0.036 H 
ATOM     27  H29 PRO d   1      -9.240  -8.359  -2.007  0.00  0.00     0.036 H 
ATOM     28  H27 PRO d   1     -10.819  -8.540   0.270  0.00  0.00     0.087 H 
BRANCH  17  29
ATOM     29  CA  PRO d   1      -8.648  -6.878   3.423  0.00  0.00     0.092 C 
ATOM     30  N   PRO d   1      -9.097  -7.140   4.816  0.00  0.00    -0.337 N 
ATOM     31  C   PRO d   1     -10.337  -6.911   5.177  0.00  0.00     0.243 C 
ATOM     32  CD  PRO d   1      -8.003  -7.662   5.650  0.00  0.00    -0.001 C 
ATOM     33  O   PRO d   1     -11.189  -6.481   4.425  0.00  0.00    -0.271 OA
ATOM     34  CG  PRO d   1      -6.953  -8.043   4.643  0.00  0.00    -0.048 C 
ATOM     35  H25 PRO d   1      -8.332  -8.539   6.228  0.00  0.00     0.064 H 
ATOM     36  H26 PRO d   1      -7.628  -6.889   6.337  0.00  0.00     0.064 H 
ATOM     37  CB  PRO d   1      -7.142  -7.126   3.479  0.00  0.00    -0.036 C 
ATOM     38  H23 PRO d   1      -5.948  -7.913   5.072  0.00  0.00     0.035 H 
ATOM     39  H24 PRO d   1      -7.086  -9.089   4.330  0.00  0.00     0.035 H 
ATOM     40  H21 PRO d   1      -6.599  -6.183   3.636  0.00  0.00     0.036 H 
ATOM     41  H22 PRO d   1      -6.792  -7.600   2.550  0.00  0.00     0.036 H 
ATOM     42  H20 PRO d   1      -8.862  -5.839   3.131  0.00  0.00     0.087 H 
BRANCH  31  43
ATOM     43  CA  PRO d   1     -10.677  -7.221   6.641  0.00  0.00     0.092 C 
ATOM     44  N   PRO d   1     -11.867  -6.446   7.072  0.00  0.00    -0.337 N 
ATOM     45  C   THR d   1     -11.786  -5.152   7.269  0.00  0.00     0.245 C 
ATOM     46  CD  PRO d   1     -13.054  -7.302   7.227  0.00  0.00    -0.001 C 
ATOM     47  O   THR d   1     -10.764  -4.511   7.119  0.00  0.00    -0.271 OA
ATOM     48  CG  PRO d   1     -12.607  -8.641   6.700  0.00  0.00    -0.048 C 
ATOM     49  H18 PRO d   1     -13.897  -6.912   6.639  0.00  0.00     0.064 H 
ATOM     50  H19 PRO d   1     -13.348  -7.376   8.284  0.00  0.00     0.064 H 
ATOM     51  CB  PRO d   1     -11.115  -8.673   6.801  0.00  0.00    -0.036 C 
ATOM     52  H16 PRO d   1     -13.044  -9.450   7.304  0.00  0.00     0.035 H 
ATOM     53  H17 PRO d   1     -12.918  -8.757   5.651  0.00  0.00     0.035 H 
ATOM     54  H14 PRO d   1     -10.802  -9.066   7.780  0.00  0.00     0.036 H 
ATOM     55  H15 PRO d   1     -10.687  -9.296   6.002  0.00  0.00     0.036 H 
ATOM     56  H13 PRO d   1      -9.808  -6.999   7.278  0.00  0.00     0.087 H 
BRANCH  45  57
ATOM     57  CA  THR d   1     -13.080  -4.458   7.712  0.00  0.00     0.114 C 
ATOM     58  H7  THR d   1     -13.700  -5.163   8.285  0.00  0.00     0.091 H 
BRANCH  57  59
ATOM     59  N   THR d   1     -12.764  -3.249   8.527  0.00  0.00    -0.344 N 
ATOM     60  C   GLY d   1     -13.727  -2.571   9.089  0.00  0.00     0.243 C 
ATOM     61  O   GLY d   1     -14.889  -2.904   8.964  0.00  0.00    -0.272 OA
ATOM     62  H6  THR d   1     -11.814  -2.958   8.643  0.00  0.00     0.163 HD
BRANCH  60  63
ATOM     63  CA  GLY d   1     -13.338  -1.341   9.911  0.00  0.00     0.152 C 
ATOM     64  H4  GLY d   1     -13.505  -1.546  10.979  0.00  0.00     0.090 H 
ATOM     65  H5  GLY d   1     -12.276  -1.110   9.744  0.00  0.00     0.090 H 
BRANCH  63  66
ATOM     66  N   GLY d   1     -14.171  -0.178   9.493  0.00  0.00    -0.071 N 
ATOM     67  H1  GLY d   1     -13.914   0.632  10.035  0.00  0.00     0.274 HD
ATOM     68  H2  GLY d   1     -15.145  -0.390   9.646  0.00  0.00     0.274 HD
ATOM     69  H3  GLY d   1     -14.018   0.011   8.515  0.00  0.00     0.274 HD
ENDBRANCH  63  66
ENDBRANCH  60  63
ENDBRANCH  57  59
BRANCH  57  70
ATOM     70  CB  THR d   1     -13.847  -3.927   6.500  0.00  0.00     0.060 C 
ATOM     71  H8  THR d   1     -14.783  -3.457   6.836  0.00  0.00     0.086 H 
BRANCH  70  72
ATOM     72  OG1 THR d   1     -14.147  -5.003   5.623  0.00  0.00    -0.393 OA
ATOM     73  H9  THR d   1     -13.338  -5.410   5.334  0.00  0.00     0.210 HD
ENDBRANCH  70  72
BRANCH  70  74
ATOM     74  CG2 THR d   1     -12.993  -2.892   5.767  0.00  0.00    -0.050 C 
ATOM     75  H10 THR d   1     -13.546  -2.511   4.896  0.00  0.00     0.031 H 
ATOM     76  H11 THR d   1     -12.057  -3.361   5.431  0.00  0.00     0.031 H 
ATOM     77  H12 THR d   1     -12.762  -2.059   6.447  0.00  0.00     0.031 H 
ENDBRANCH  70  74
ENDBRANCH  57  70
ENDBRANCH  45  57
ENDBRANCH  31  43
ENDBRANCH  17  29
ENDBRANCH   1  15
BRANCH   4  78
ATOM     78  C   PRO d   1      -7.782 -12.145  -1.626  0.00  0.00     0.241 C 
ATOM     79  O   PRO d   1      -7.266 -13.211  -1.895  0.00  0.00    -0.271 OA
ATOM     80  N   TYR d   1      -7.242 -11.019  -2.014  0.00  0.00    -0.346 N 
ATOM     81  H41 TYR d   1      -7.683 -10.151  -1.785  0.00  0.00     0.163 HD
BRANCH  80  82
ATOM     82  CA  TYR d   1      -5.969 -11.022  -2.798  0.00  0.00     0.093 C 
ATOM     83  H42 TYR d   1      -5.672  -9.993  -3.048  0.00  0.00     0.088 H 
BRANCH  82  84
ATOM     84  C   TYR d   1      -6.132 -11.831  -4.088  0.00  0.00     0.241 C 
ATOM     85  O   TYR d   1      -7.054 -12.607  -4.237  0.00  0.00    -0.271 OA
ATOM     86  N   THR d   1      -5.236 -11.651  -5.020  0.00  0.00    -0.344 N 
ATOM     87  H50 THR d   1      -4.486 -11.006  -4.872  0.00  0.00     0.163 HD
BRANCH  86  88
ATOM     88  CA  THR d   1      -5.327 -12.404  -6.304  0.00  0.00     0.113 C 
ATOM     89  H51 THR d   1      -5.624 -13.447  -6.123  0.00  0.00     0.091 H 
BRANCH  88  90
ATOM     90  C   THR d   1      -3.983 -12.370  -7.031  0.00  0.00     0.243 C 
ATOM     91  O   THR d   1      -2.991 -11.905  -6.504  0.00  0.00    -0.271 OA
ATOM     92  N   VAL d   1      -3.942 -12.856  -8.241  0.00  0.00    -0.346 N 
ATOM     93  H57 VAL d   1      -4.769 -13.234  -8.656  0.00  0.00     0.163 HD
BRANCH  92  94
ATOM     94  CA  VAL d   1      -2.663 -12.847  -9.003  0.00  0.00     0.092 C 
ATOM     95  H58 VAL d   1      -2.237 -11.833  -9.034  0.00  0.00     0.088 H 
BRANCH  94  96
ATOM     96  C   VAL d   1      -2.893 -13.351 -10.430  0.00  0.00     0.241 C 
ATOM     97  O   VAL d   1      -2.420 -14.404 -10.810  0.00  0.00    -0.271 OA
ATOM     98  N   GLY d   1      -3.615 -12.608 -11.223  0.00  0.00    -0.349 N 
ATOM     99  H66 GLY d   1      -3.995 -11.745 -10.891  0.00  0.00     0.163 HD
BRANCH  98 100
ATOM    100  CA  GLY d   1      -3.874 -13.045 -12.623  0.00  0.00     0.075 C 
ATOM    101  H67 GLY d   1      -2.924 -13.084 -13.176  0.00  0.00     0.080 H 
ATOM    102  H68 GLY d   1      -4.553 -12.330 -13.111  0.00  0.00     0.080 H 
BRANCH 100 103
ATOM    103  C   GLY d   1      -4.517 -14.434 -12.614  0.00  0.00     0.191 C 
ATOM    104  O   GLY d   1      -5.586 -14.566 -12.042  0.00  0.00    -0.647 OA
ATOM    105  OXT GLY d   1      -3.928 -15.341 -13.178  0.00  0.00    -0.647 OA
ENDBRANCH 100 103
ENDBRANCH  98 100
ENDBRANCH  94  96
BRANCH  94 106
ATOM    106  CB  VAL d   1      -1.737 -13.796  -8.240  0.00  0.00    -0.033 C 
ATOM    107  H59 VAL d   1      -1.578 -13.413  -7.221  0.00  0.00     0.042 H 
BRANCH 106 108
ATOM    108  CG1 VAL d   1      -2.376 -15.184  -8.169  0.00  0.00    -0.071 C 
ATOM    109  H60 VAL d   1      -1.710 -15.867  -7.620  0.00  0.00     0.028 H 
ATOM    110  H61 VAL d   1      -2.535 -15.567  -9.188  0.00  0.00     0.028 H 
ATOM    111  H62 VAL d   1      -3.342 -15.117  -7.648  0.00  0.00     0.028 H 
ENDBRANCH 106 108
BRANCH 106 112
ATOM    112  CG2 VAL d   1      -0.393 -13.889  -8.965  0.00  0.00    -0.071 C 
ATOM    113  H63 VAL d   1       0.066 -12.891  -9.016  0.00  0.00     0.028 H 
ATOM    114  H64 VAL d   1      -0.552 -14.272  -9.984  0.00  0.00     0.028 H 
ATOM    115  H65 VAL d   1       0.273 -14.571  -8.417  0.00  0.00     0.028 H 
ENDBRANCH 106 112
ENDBRANCH  94 106
ENDBRANCH  92  94
ENDBRANCH  88  90
BRANCH  88 116
ATOM    116  CB  THR d   1      -6.391 -11.674  -7.124  0.00  0.00     0.060 C 
ATOM    117  H52 THR d   1      -6.184 -11.809  -8.196  0.00  0.00     0.086 H 
BRANCH 116 118
ATOM    118  OG1 THR d   1      -6.367 -10.288  -6.810  0.00  0.00    -0.393 OA
ATOM    119  H53 THR d   1      -7.029  -9.837  -7.321  0.00  0.00     0.210 HD
ENDBRANCH 116 118
BRANCH 116 120
ATOM    120  CG2 THR d   1      -7.765 -12.250  -6.797  0.00  0.00    -0.050 C 
ATOM    121  H54 THR d   1      -8.532 -11.726  -7.386  0.00  0.00     0.031 H 
ATOM    122  H55 THR d   1      -7.972 -12.118  -5.725  0.00  0.00     0.031 H 
ATOM    123  H56 THR d   1      -7.782 -13.322  -7.044  0.00  0.00     0.031 H 
ENDBRANCH 116 120
ENDBRANCH  88 116
ENDBRANCH  86  88
ENDBRANCH  82  84
BRANCH  82 124
ATOM    124  CB  TYR d   1      -4.921 -11.673  -1.889  0.00  0.00    -0.014 C 
ATOM    125  H43 TYR d   1      -5.174 -12.732  -1.734  0.00  0.00     0.043 H 
ATOM    126  H44 TYR d   1      -4.902 -11.155  -0.919  0.00  0.00     0.043 H 
BRANCH 124 127
ATOM    127  CG  TYR d   1      -3.566 -11.568  -2.545  0.00  0.00    -0.056 A 
ATOM    128  CD1 TYR d   1      -2.733 -10.478  -2.265  0.00  0.00    -0.074 A 
ATOM    129  CE1 TYR d   1      -1.481 -10.379  -2.881  0.00  0.00    -0.051 A 
ATOM    130  H45 TYR d   1      -3.058  -9.711  -1.571  0.00  0.00     0.084 H 
ATOM    131  CZ  TYR d   1      -1.061 -11.370  -3.776  0.00  0.00     0.065 A 
ATOM    132  H47 TYR d   1      -0.836  -9.535  -2.665  0.00  0.00     0.087 H 
ATOM    133  CE2 TYR d   1      -1.894 -12.460  -4.055  0.00  0.00    -0.051 A 
ATOM    134  CD2 TYR d   1      -3.146 -12.558  -3.440  0.00  0.00    -0.074 A 
ATOM    135  H48 TYR d   1      -1.569 -13.228  -4.748  0.00  0.00     0.087 H 
ATOM    136  H46 TYR d   1      -3.792 -13.401  -3.657  0.00  0.00     0.084 H 
BRANCH 131 137
ATOM    137  OH  TYR d   1       0.174 -11.274  -4.383  0.00  0.00    -0.361 OA
ATOM    138  H49 TYR d   1       0.061 -11.242  -5.326  0.00  0.00     0.217 HD
ENDBRANCH 131 137
ENDBRANCH 124 127
ENDBRANCH  82 124
ENDBRANCH  80  82
ENDBRANCH   4  78
TORSDOF 28
