REMARK  10 active torsions:
REMARK  status: ('A' for Active; 'I' for Inactive)
REMARK    1  A    between atoms: C2A_2  and  C2_1 
REMARK    2  A    between atoms: C2A_2  and  N2B_3 
REMARK    3  A    between atoms: C4C_5  and  CA_4 
REMARK    4  A    between atoms: CA_4  and  C28_21 
REMARK    5  A    between atoms: CB_10  and  C4A_8 
REMARK    6  A    between atoms: C20_19  and  CB_10 
REMARK    7  A    between atoms: C6C_11  and  C5_12 
REMARK    8  A    between atoms: C6C_11  and  N6B_13 
REMARK    9  A    between atoms: C17_16  and  S2_26 
REMARK   10  A    between atoms: C31_24  and  S4_30 
ROOT
ATOM      1  C4C SFP d   1      23.870  27.458  29.667  0.00  0.00     0.045 A 
ATOM      2  C3  SFP d   1      22.486  27.417  29.755  0.00  0.00    -0.054 A 
ATOM      3  C4  SFP d   1      22.144  27.423  31.057  0.00  0.00    -0.054 A 
ATOM      4  C4A SFP d   1      23.326  27.458  31.824  0.00  0.00     0.045 A 
ATOM      5  N4B SFP d   1      24.397  27.470  30.959  0.00  0.00    -0.355 N 
ATOM      6  H6  SFP d   1      21.794  27.385  28.914  0.00  0.00     0.087 H 
ATOM      7  H7  SFP d   1      21.129  27.404  31.450  0.00  0.00     0.087 H 
ATOM      8  H8  SFP d   1      25.394  27.485  31.216  0.00  0.00     0.166 HD
ENDROOT
BRANCH   1   9
ATOM      9  CA  SFP d   1      24.603  27.493  28.497  0.00  0.00     0.022 C 
ATOM     10  C2A SFP d   1      25.996  27.508  28.398  0.00  0.00     0.012 C 
BRANCH  10  11
ATOM     11  C2  SFP d   1      26.748  27.566  27.204  0.00  0.00    -0.037 C 
ATOM     12  H1  SFP d   1      26.066  27.628  26.343  0.00  0.00     0.035 H 
ATOM     13  H2  SFP d   1      27.367  26.661  27.116  0.00  0.00     0.035 H 
ATOM     14  H3  SFP d   1      27.397  28.454  27.222  0.00  0.00     0.035 H 
ENDBRANCH  10  11
BRANCH  10  15
ATOM     15  N2B SFP d   1      26.886  27.429  29.489  0.00  0.00    -0.402 N 
ATOM     16  H4  SFP d   1      26.519  27.378  30.450  0.00  0.00     0.156 HD
ATOM     17  H5  SFP d   1      27.903  27.422  29.325  0.00  0.00     0.156 HD
ENDBRANCH  10  15
BRANCH   9  18
ATOM     18  C28 SFP d   1      23.775  27.479  27.188  0.00  0.00    -0.022 A 
ATOM     19  C29 SFP d   1      22.841  28.511  26.848  0.00  0.00    -0.071 A 
ATOM     20  C30 SFP d   1      22.113  28.397  25.642  0.00  0.00    -0.059 A 
ATOM     21  H19 SFP d   1      22.696  29.363  27.503  0.00  0.00     0.084 H 
ATOM     22  C31 SFP d   1      22.319  27.295  24.807  0.00  0.00     0.080 A 
ATOM     23  H20 SFP d   1      21.397  29.162  25.365  0.00  0.00     0.086 H 
ATOM     24  C32 SFP d   1      23.237  26.269  25.125  0.00  0.00    -0.059 A 
ATOM     25  C27 SFP d   1      23.964  26.354  26.318  0.00  0.00    -0.071 A 
ATOM     26  H21 SFP d   1      23.376  25.428  24.455  0.00  0.00     0.086 H 
ATOM     27  H18 SFP d   1      24.667  25.573  26.584  0.00  0.00     0.084 H 
BRANCH  22  28
ATOM     28  S4  SFP d   1      21.442  27.151  23.308  0.00  0.00     0.137 S 
ATOM     29  O11 SFP d   1      22.350  27.433  22.265  0.00  0.00    -0.591 OA
ATOM     30  O12 SFP d   1      20.339  28.071  23.266  0.00  0.00    -0.591 OA
ATOM     31  O13 SFP d   1      20.953  25.720  23.229  0.00  0.00    -0.591 OA
ENDBRANCH  22  28
ENDBRANCH   9  18
ENDBRANCH   1   9
BRANCH   4  32
ATOM     32  CB  SFP d   1      23.405  27.476  33.209  0.00  0.00     0.022 C 
ATOM     33  C6C SFP d   1      24.603  27.446  33.959  0.00  0.00     0.012 C 
BRANCH  33  34
ATOM     34  C5  SFP d   1      24.701  27.455  35.361  0.00  0.00    -0.037 C 
ATOM     35  H9  SFP d   1      25.761  27.425  35.655  0.00  0.00     0.035 H 
ATOM     36  H10 SFP d   1      24.182  26.576  35.770  0.00  0.00     0.035 H 
ATOM     37  H11 SFP d   1      24.237  28.371  35.755  0.00  0.00     0.035 H 
ENDBRANCH  33  34
BRANCH  33  38
ATOM     38  N6B SFP d   1      25.907  27.355  33.425  0.00  0.00    -0.402 N 
ATOM     39  H12 SFP d   1      26.045  27.335  32.404  0.00  0.00     0.156 HD
ATOM     40  H13 SFP d   1      26.720  27.309  34.056  0.00  0.00     0.156 HD
ENDBRANCH  33  38
BRANCH  32  41
ATOM     41  C20 SFP d   1      22.053  27.496  33.964  0.00  0.00    -0.022 A 
ATOM     42  C15 SFP d   1      21.046  28.463  33.614  0.00  0.00    -0.071 A 
ATOM     43  C16 SFP d   1      19.851  28.448  34.274  0.00  0.00    -0.059 A 
ATOM     44  H14 SFP d   1      21.234  29.194  32.836  0.00  0.00     0.084 H 
ATOM     45  C17 SFP d   1      19.621  27.504  35.293  0.00  0.00     0.080 A 
ATOM     46  H15 SFP d   1      19.079  29.163  34.014  0.00  0.00     0.086 H 
ATOM     47  C18 SFP d   1      20.591  26.548  35.660  0.00  0.00    -0.059 A 
ATOM     48  C19 SFP d   1      21.803  26.530  35.002  0.00  0.00    -0.071 A 
ATOM     49  H16 SFP d   1      20.386  25.835  36.451  0.00  0.00     0.086 H 
ATOM     50  H17 SFP d   1      22.558  25.797  35.263  0.00  0.00     0.084 H 
BRANCH  45  51
ATOM     51  S2  SFP d   1      18.095  27.498  36.141  0.00  0.00     0.137 S 
ATOM     52  O5  SFP d   1      17.243  28.539  35.651  0.00  0.00    -0.591 OA
ATOM     53  O6  SFP d   1      18.408  27.696  37.515  0.00  0.00    -0.591 OA
ATOM     54  O7  SFP d   1      17.430  26.125  35.928  0.00  0.00    -0.591 OA
ENDBRANCH  45  51
ENDBRANCH  32  41
ENDBRANCH   4  32
TORSDOF 10
