REMARK  8 active torsions:
REMARK  status: ('A' for Active; 'I' for Inactive)
REMARK    1  A    between atoms: C1_1  and  O1_2 
REMARK    2  A    between atoms: O1_2  and  P1_13 
REMARK    3  A    between atoms: C2_3  and  O2_4 
REMARK    4  A    between atoms: C3_5  and  O3_6 
REMARK    5  A    between atoms: O3_6  and  P3_17 
REMARK    6  A    between atoms: C4_7  and  O4_8 
REMARK    7  A    between atoms: C5_9  and  O5_10 
REMARK    8  A    between atoms: C6_11  and  O6_12 
ROOT
ATOM      1  C1  ITP d   1      30.004  17.100  10.639  0.00  0.00     0.106 C 
ATOM      2  C2  ITP d   1      29.648  15.680  11.051  0.00  0.00     0.091 C 
ATOM      3  C3  ITP d   1      30.731  14.694  10.633  0.00  0.00     0.106 C 
ATOM      4  C4  ITP d   1      32.083  15.069  11.228  0.00  0.00     0.090 C 
ATOM      5  C5  ITP d   1      32.477  16.490  10.864  0.00  0.00     0.090 C 
ATOM      6  C6  ITP d   1      31.372  17.506  11.202  0.00  0.00     0.090 C 
ATOM      7  H1  ITP d   1      30.032  17.164   9.541  0.00  0.00     0.092 H 
ATOM      8  H2  ITP d   1      28.703  15.395  10.565  0.00  0.00     0.091 H 
ATOM      9  H4  ITP d   1      30.811  14.691   9.536  0.00  0.00     0.092 H 
ATOM     10  H5  ITP d   1      32.021  14.988  12.323  0.00  0.00     0.091 H 
ATOM     11  H7  ITP d   1      32.679  16.538   9.784  0.00  0.00     0.091 H 
ATOM     12  H9  ITP d   1      31.291  17.575  12.297  0.00  0.00     0.091 H 
ENDROOT
BRANCH   1  13
ATOM     13  O1  ITP d   1      28.996  17.991  11.149  0.00  0.00    -0.272 OA
BRANCH  13  14
ATOM     14  P1  ITP d   1      27.734  18.501  10.270  0.00  0.00     0.422 P 
ATOM     15  OP1 ITP d   1      27.573  19.932  10.599  0.00  0.00    -0.617 OA
ATOM     16  OP2 ITP d   1      26.574  17.692  10.693  0.00  0.00    -0.617 OA
ATOM     17  OP3 ITP d   1      28.088  18.273   8.836  0.00  0.00    -0.617 OA
ENDBRANCH  13  14
ENDBRANCH   1  13
BRANCH   2  18
ATOM     18  O2  ITP d   1      29.480  15.630  12.480  0.00  0.00    -0.390 OA
ATOM     19  H3  ITP d   1      28.782  16.221  12.737  0.00  0.00     0.210 HD
ENDBRANCH   2  18
BRANCH   6  20
ATOM     20  O6  ITP d   1      31.724  18.792  10.678  0.00  0.00    -0.390 OA
ATOM     21  H10 ITP d   1      32.544  19.077  11.064  0.00  0.00     0.210 HD
ENDBRANCH   6  20
BRANCH   3  22
ATOM     22  O3  ITP d   1      30.366  13.399  11.085  0.00  0.00    -0.272 OA
BRANCH  22  23
ATOM     23  P3  ITP d   1      30.404  12.145  10.102  0.00  0.00     0.422 P 
ATOM     24  O10 ITP d   1      29.875  11.002  10.872  0.00  0.00    -0.617 OA
ATOM     25  O11 ITP d   1      29.560  12.485   8.937  0.00  0.00    -0.617 OA
ATOM     26  O12 ITP d   1      31.833  11.972   9.744  0.00  0.00    -0.617 OA
ENDBRANCH  22  23
ENDBRANCH   3  22
BRANCH   5  27
ATOM     27  O5  ITP d   1      33.663  16.818  11.584  0.00  0.00    -0.390 OA
ATOM     28  H8  ITP d   1      34.355  16.214  11.344  0.00  0.00     0.210 HD
ENDBRANCH   5  27
BRANCH   4  29
ATOM     29  O4  ITP d   1      33.084  14.170  10.745  0.00  0.00    -0.390 OA
ATOM     30  H6  ITP d   1      33.926  14.406  11.117  0.00  0.00     0.210 HD
ENDBRANCH   4  29
TORSDOF 8
