REMARK  27 active torsions:
REMARK  status: ('A' for Active; 'I' for Inactive)
REMARK    1  A    between atoms: CA_2  and  C_3 
REMARK       I    between atoms: C_3  and  N_8 
REMARK    2  A    between atoms: N_8  and  CA_9 
REMARK    3  A    between atoms: CA_9  and  C_10 
REMARK    4  A    between atoms: CA_9  and  CB_12 
REMARK       I    between atoms: C_10  and  N_17 
REMARK    5  A    between atoms: CB_12  and  CG_13 
REMARK    6  A    between atoms: CG_13  and  CD_14 
REMARK       I    between atoms: CD_14  and  NE2_16 
REMARK    7  A    between atoms: N_17  and  CA_18 
REMARK    8  A    between atoms: CA_18  and  C_19 
REMARK    9  A    between atoms: CA_18  and  CB_21 
REMARK       I    between atoms: C_19  and  N_25 
REMARK   10  A    between atoms: CB_21  and  CG1_22 
REMARK   11  A    between atoms: CB_21  and  CG2_23 
REMARK   12  A    between atoms: CG1_22  and  CD1_24 
REMARK   13  A    between atoms: N_25  and  CA_26 
REMARK   14  A    between atoms: CA_26  and  C_27 
REMARK   15  A    between atoms: CA_26  and  CB_29 
REMARK       I    between atoms: C_27  and  N_32 
REMARK   16  A    between atoms: CB_29  and  OG1_30 
REMARK   17  A    between atoms: CB_29  and  CG2_31 
REMARK   18  A    between atoms: N_32  and  CA_33 
REMARK   19  A    between atoms: CA_33  and  C_34 
REMARK   20  A    between atoms: CA_33  and  CB_36 
REMARK       I    between atoms: C_34  and  N_40 
REMARK   21  A    between atoms: CB_36  and  CG_37 
REMARK   22  A    between atoms: CG_37  and  CD1_38 
REMARK   23  A    between atoms: CG_37  and  CD2_39 
REMARK   24  A    between atoms: N_40  and  CA_41 
REMARK   25  A    between atoms: CA_41  and  C_42 
REMARK   26  A    between atoms: CA_41  and  CB_44 
REMARK   27  A    between atoms: CB_44  and  CG_45 
ROOT
ATOM      1  CA  THR d   1       5.220  15.794  35.021  0.00  0.00     0.113 C 
ATOM      2  H30 THR d   1       4.703  16.647  34.558  0.00  0.00     0.091 H 
ENDROOT
BRANCH   1   3
ATOM      3  N   THR d   1       4.256  14.885  35.620  0.00  0.00    -0.344 N 
ATOM      4  C   ILE d   1       2.953  15.049  35.439  0.00  0.00     0.241 C 
ATOM      5  O   ILE d   1       2.480  15.996  34.813  0.00  0.00    -0.271 OA
ATOM      6  H29 THR d   1       4.582  14.122  36.179  0.00  0.00     0.163 HD
BRANCH   4   7
ATOM      7  CA  ILE d   1       2.058  13.986  36.064  0.00  0.00     0.092 C 
ATOM      8  H19 ILE d   1       2.654  13.412  36.788  0.00  0.00     0.088 H 
BRANCH   7   9
ATOM      9  N   ILE d   1       0.919  14.545  36.774  0.00  0.00    -0.346 N 
ATOM     10  C   GLN d   1       1.055  15.574  37.597  0.00  0.00     0.241 C 
ATOM     11  O   GLN d   1       2.147  16.117  37.811  0.00  0.00    -0.271 OA
ATOM     12  H18 ILE d   1       0.013  14.144  36.638  0.00  0.00     0.163 HD
BRANCH  10  13
ATOM     13  CA  GLN d   1      -0.236  16.050  38.287  0.00  0.00     0.090 C 
ATOM     14  H11 GLN d   1      -1.034  15.327  38.064  0.00  0.00     0.087 H 
BRANCH  13  15
ATOM     15  N   GLN d   1      -0.071  16.113  39.742  0.00  0.00    -0.346 N 
ATOM     16  C   PRO d   1       0.144  15.014  40.460  0.00  0.00     0.249 C 
ATOM     17  O   PRO d   1       0.212  13.883  39.958  0.00  0.00    -0.271 OA
ATOM     18  H10 GLN d   1      -0.121  16.999  40.204  0.00  0.00     0.163 HD
BRANCH  16  19
ATOM     19  CA  PRO d   1       0.310  15.207  41.959  0.00  0.00     0.178 C 
ATOM     20  N   PRO d   1      -0.735  14.476  42.706  0.00  0.00    -0.062 N 
ATOM     21  CD  PRO d   1      -0.109  13.604  43.714  0.00  0.00     0.083 C 
ATOM     22  H1  PRO d   1      -1.273  13.914  42.065  0.00  0.00     0.278 HD
ATOM     23  H2  PRO d   1      -1.342  15.137  43.166  0.00  0.00     0.278 HD
ATOM     24  CG  PRO d   1       1.314  14.185  43.815  0.00  0.00    -0.040 C 
ATOM     25  H8  PRO d   1      -0.088  12.557  43.377  0.00  0.00     0.075 H 
ATOM     26  H9  PRO d   1      -0.635  13.669  44.678  0.00  0.00     0.075 H 
ATOM     27  CB  PRO d   1       1.649  14.654  42.424  0.00  0.00    -0.028 C 
ATOM     28  H6  PRO d   1       1.337  15.027  44.522  0.00  0.00     0.035 H 
ATOM     29  H7  PRO d   1       2.024  13.411  44.143  0.00  0.00     0.035 H 
ATOM     30  H4  PRO d   1       2.423  15.435  42.439  0.00  0.00     0.036 H 
ATOM     31  H5  PRO d   1       1.982  13.820  41.788  0.00  0.00     0.036 H 
ATOM     32  H3  PRO d   1       0.249  16.281  42.190  0.00  0.00     0.099 H 
ENDBRANCH  16  19
ENDBRANCH  13  15
BRANCH  13  33
ATOM     33  CB  GLN d   1      -0.649  17.419  37.728  0.00  0.00    -0.030 C 
ATOM     34  H12 GLN d   1      -0.769  17.320  36.639  0.00  0.00     0.037 H 
ATOM     35  H13 GLN d   1       0.160  18.133  37.944  0.00  0.00     0.037 H 
BRANCH  33  36
ATOM     36  CG  GLN d   1      -1.952  17.991  38.299  0.00  0.00     0.011 C 
ATOM     37  H14 GLN d   1      -2.129  18.975  37.840  0.00  0.00     0.047 H 
ATOM     38  H15 GLN d   1      -1.832  18.109  39.386  0.00  0.00     0.047 H 
BRANCH  36  39
ATOM     39  CD  GLN d   1      -3.179  17.111  38.042  0.00  0.00     0.215 C 
ATOM     40  OE1 GLN d   1      -3.434  16.667  36.917  0.00  0.00    -0.274 OA
ATOM     41  NE2 GLN d   1      -3.955  16.874  39.091  0.00  0.00    -0.370 N 
ATOM     42  H16 GLN d   1      -4.772  16.306  38.990  0.00  0.00     0.159 HD
ATOM     43  H17 GLN d   1      -3.723  17.263  39.983  0.00  0.00     0.159 HD
ENDBRANCH  36  39
ENDBRANCH  33  36
ENDBRANCH  13  33
ENDBRANCH  10  13
ENDBRANCH   7   9
BRANCH   7  44
ATOM     44  CB  ILE d   1       1.600  13.036  34.929  0.00  0.00    -0.030 C 
ATOM     45  H20 ILE d   1       0.950  12.256  35.352  0.00  0.00     0.043 H 
BRANCH  44  46
ATOM     46  CG1 ILE d   1       2.813  12.379  34.262  0.00  0.00    -0.063 C 
ATOM     47  H21 ILE d   1       3.430  13.170  33.811  0.00  0.00     0.033 H 
ATOM     48  H22 ILE d   1       2.450  11.703  33.474  0.00  0.00     0.033 H 
BRANCH  46  49
ATOM     49  CD1 ILE d   1       3.675  11.587  35.201  0.00  0.00    -0.076 C 
ATOM     50  H26 ILE d   1       4.518  11.151  34.645  0.00  0.00     0.027 H 
ATOM     51  H27 ILE d   1       3.079  10.781  35.654  0.00  0.00     0.027 H 
ATOM     52  H28 ILE d   1       4.059  12.248  35.992  0.00  0.00     0.027 H 
ENDBRANCH  46  49
ENDBRANCH  44  46
BRANCH  44  53
ATOM     53  CG2 ILE d   1       0.827  13.827  33.875  0.00  0.00    -0.071 C 
ATOM     54  H23 ILE d   1      -0.047  14.304  34.343  0.00  0.00     0.028 H 
ATOM     55  H24 ILE d   1       0.491  13.146  33.079  0.00  0.00     0.028 H 
ATOM     56  H25 ILE d   1       1.480  14.601  33.445  0.00  0.00     0.028 H 
ENDBRANCH  44  53
ENDBRANCH   7  44
ENDBRANCH   4   7
ENDBRANCH   1   3
BRANCH   1  57
ATOM     57  C   THR d   1       5.939  14.959  33.967  0.00  0.00     0.243 C 
ATOM     58  O   THR d   1       5.450  14.799  32.846  0.00  0.00    -0.271 OA
ATOM     59  N   LEU d   1       7.089  14.411  34.350  0.00  0.00    -0.346 N 
ATOM     60  H36 LEU d   1       7.412  14.584  35.281  0.00  0.00     0.163 HD
BRANCH  59  61
ATOM     61  CA  LEU d   1       7.902  13.571  33.479  0.00  0.00     0.089 C 
ATOM     62  H37 LEU d   1       8.943  13.683  33.817  0.00  0.00     0.087 H 
BRANCH  61  63
ATOM     63  C   LEU d   1       7.889  13.943  31.985  0.00  0.00     0.241 C 
ATOM     64  O   LEU d   1       8.794  14.635  31.509  0.00  0.00    -0.271 OA
ATOM     65  N   TRP d   1       6.863  13.504  31.256  0.00  0.00    -0.348 N 
ATOM     66  H47 TRP d   1       6.137  12.986  31.707  0.00  0.00     0.163 HD
BRANCH  65  67
ATOM     67  CA  TRP d   1       6.763  13.755  29.816  0.00  0.00     0.066 C 
ATOM     68  H48 TRP d   1       7.746  13.520  29.382  0.00  0.00     0.084 H 
BRANCH  67  69
ATOM     69  C   TRP d   1       6.432  15.184  29.409  0.00  0.00     0.110 C 
ATOM     70  O   TRP d   1       6.361  15.440  28.182  0.00  0.00    -0.305 OA
ATOM     71  H49 TRP d   1       6.263  15.958  30.157  0.00  0.00     0.146 H 
ENDBRANCH  67  69
BRANCH  67  72
ATOM     72  CB  TRP d   1       5.736  12.805  29.210  0.00  0.00    -0.014 C 
ATOM     73  H50 TRP d   1       5.963  12.667  28.143  0.00  0.00     0.043 H 
ATOM     74  H51 TRP d   1       4.734  13.246  29.317  0.00  0.00     0.043 H 
BRANCH  72  75
ATOM     75  CG  TRP d   1       5.754  11.484  29.881  0.00  0.00    -0.028 A 
ATOM     76  CD1 TRP d   1       6.851  10.714  30.157  0.00  0.00    -0.015 A 
ATOM     77  NE1 TRP d   1       6.475   9.582  30.839  0.00  0.00    -0.365 N 
ATOM     78  H52 TRP d   1       7.874  10.962  29.877  0.00  0.00     0.112 H 
ATOM     79  CE2 TRP d   1       5.115   9.603  31.013  0.00  0.00     0.042 A 
ATOM     80  H53 TRP d   1       7.110   8.840  31.166  0.00  0.00     0.165 HD
ATOM     81  CD2 TRP d   1       4.628  10.792  30.416  0.00  0.00    -0.002 A 
ATOM     82  CZ2 TRP d   1       4.271   8.678  31.642  0.00  0.00    -0.056 A 
ATOM     83  CE3 TRP d   1       3.253  11.057  30.454  0.00  0.00    -0.070 A 
ATOM     84  CZ3 TRP d   1       2.412  10.140  31.081  0.00  0.00    -0.082 A 
ATOM     85  H54 TRP d   1       2.851  11.958  30.004  0.00  0.00     0.084 H 
ATOM     86  CH2 TRP d   1       2.927   8.962  31.666  0.00  0.00    -0.081 A 
ATOM     87  H56 TRP d   1       1.346  10.334  31.120  0.00  0.00     0.083 H 
ATOM     88  H57 TRP d   1       2.247   8.267  32.145  0.00  0.00     0.083 H 
ATOM     89  H55 TRP d   1       4.663   7.773  32.092  0.00  0.00     0.086 H 
ENDBRANCH  72  75
ENDBRANCH  67  72
ENDBRANCH  65  67
ENDBRANCH  61  63
BRANCH  61  90
ATOM     90  CB  LEU d   1       7.503  12.096  33.676  0.00  0.00    -0.035 C 
ATOM     91  H38 LEU d   1       8.030  11.503  32.914  0.00  0.00     0.037 H 
ATOM     92  H39 LEU d   1       6.418  12.020  33.514  0.00  0.00     0.037 H 
BRANCH  90  93
ATOM     93  CG  LEU d   1       7.815  11.473  35.050  0.00  0.00    -0.059 C 
ATOM     94  H40 LEU d   1       7.399  12.119  35.837  0.00  0.00     0.038 H 
BRANCH  93  95
ATOM     95  CD1 LEU d   1       7.187  10.109  35.151  0.00  0.00    -0.073 C 
ATOM     96  H41 LEU d   1       7.415   9.672  36.135  0.00  0.00     0.028 H 
ATOM     97  H42 LEU d   1       7.590   9.460  34.359  0.00  0.00     0.028 H 
ATOM     98  H43 LEU d   1       6.097  10.197  35.033  0.00  0.00     0.028 H 
ENDBRANCH  93  95
BRANCH  93  99
ATOM     99  CD2 LEU d   1       9.316  11.359  35.246  0.00  0.00    -0.073 C 
ATOM    100  H44 LEU d   1       9.772  12.357  35.172  0.00  0.00     0.028 H 
ATOM    101  H45 LEU d   1       9.739  10.704  34.470  0.00  0.00     0.028 H 
ATOM    102  H46 LEU d   1       9.525  10.933  36.239  0.00  0.00     0.028 H 
ENDBRANCH  93  99
ENDBRANCH  90  93
ENDBRANCH  61  90
ENDBRANCH  59  61
ENDBRANCH   1  57
BRANCH   1 103
ATOM    103  CB  THR d   1       6.248  16.315  36.052  0.00  0.00     0.060 C 
ATOM    104  H31 THR d   1       6.723  15.457  36.551  0.00  0.00     0.086 H 
BRANCH 103 105
ATOM    105  OG1 THR d   1       5.579  17.122  37.030  0.00  0.00    -0.393 OA
ATOM    106  H32 THR d   1       6.212  17.441  37.662  0.00  0.00     0.210 HD
ENDBRANCH 103 105
BRANCH 103 107
ATOM    107  CG2 THR d   1       7.321  17.149  35.362  0.00  0.00    -0.050 C 
ATOM    108  H33 THR d   1       8.042  17.510  36.110  0.00  0.00     0.031 H 
ATOM    109  H34 THR d   1       6.852  18.008  34.860  0.00  0.00     0.031 H 
ATOM    110  H35 THR d   1       7.844  16.531  34.618  0.00  0.00     0.031 H 
ENDBRANCH 103 107
ENDBRANCH   1 103
TORSDOF 27
