REMARK WARNING: 32 MAX_TORS EXCEEDED!!!
REMARK  39 active torsions:
REMARK  status: ('A' for Active; 'I' for Inactive)
REMARK    1  A    between atoms: N_1  and  CA_2 
REMARK    2  A    between atoms: CA_2  and  C_3 
REMARK    3  A    between atoms: CA_2  and  CB_5 
REMARK       I    between atoms: C_3  and  N_7 
REMARK    4  A    between atoms: CB_5  and  OG_6 
REMARK    5  A    between atoms: N_7  and  CA_8 
REMARK    6  A    between atoms: CA_8  and  C_9 
REMARK    7  A    between atoms: CA_8  and  CB_11 
REMARK       I    between atoms: C_9  and  N_15 
REMARK    8  A    between atoms: CB_11  and  CG_12 
REMARK    9  A    between atoms: N_15  and  CA_16 
REMARK   10  A    between atoms: CA_16  and  C_17 
REMARK   11  A    between atoms: CA_16  and  CB_19 
REMARK       I    between atoms: C_17  and  N_24 
REMARK   12  A    between atoms: CB_19  and  CG_20 
REMARK   13  A    between atoms: CG_20  and  CD_21 
REMARK   14  A    between atoms: N_24  and  CA_25 
REMARK   15  A    between atoms: CA_25  and  C_26 
REMARK   16  A    between atoms: CA_25  and  CB_28 
REMARK       I    between atoms: C_26  and  N_32 
REMARK   17  A    between atoms: CB_28  and  CG_29 
REMARK   18  A    between atoms: N_32  and  CA_33 
REMARK   19  A    between atoms: CA_33  and  C_34 
REMARK   20  A    between atoms: CA_33  and  CB_36 
REMARK       I    between atoms: C_34  and  N_40 
REMARK   21  A    between atoms: CB_36  and  CG_37 
REMARK   22  A    between atoms: CG_37  and  CD1_38 
REMARK   23  A    between atoms: CG_37  and  CD2_39 
REMARK   24  A    between atoms: N_40  and  CA_41 
REMARK   25  A    between atoms: CA_41  and  C_42 
REMARK   26  A    between atoms: CA_41  and  CB_44 
REMARK       I    between atoms: C_42  and  N_48 
REMARK   27  A    between atoms: CB_44  and  CG_45 
REMARK   28  A    between atoms: CG_45  and  CD1_46 
REMARK   29  A    between atoms: CG_45  and  CD2_47 
REMARK   30  A    between atoms: N_48  and  CA_49 
REMARK   31  A    between atoms: CA_49  and  C_50 
REMARK   32  A    between atoms: CA_49  and  CB_52 
REMARK       I    between atoms: C_50  and  N_58 
REMARK   33  A    between atoms: CB_52  and  CG_53 
REMARK   34  A    between atoms: N_58  and  CA_59 
REMARK   35  A    between atoms: CA_59  and  C_60 
REMARK   36  A    between atoms: CA_59  and  CB_62 
REMARK   37  A    between atoms: CB_62  and  CG1_63 
REMARK   38  A    between atoms: CB_62  and  CG2_64 
REMARK   39  A    between atoms: CG1_63  and  CD1_65 
ROOT
ATOM      1  CA  LEU d   1      49.609  44.647  18.983  0.00  0.00     0.089 C 
ATOM      2  H23 LEU d   1      49.572  44.553  20.078  0.00  0.00     0.087 H 
ENDROOT
BRANCH   1   3
ATOM      3  N   LEU d   1      50.699  45.542  18.615  0.00  0.00    -0.346 N 
ATOM      4  C   ASP d   1      51.965  45.233  18.874  0.00  0.00     0.241 C 
ATOM      5  O   ASP d   1      52.303  44.203  19.455  0.00  0.00    -0.271 OA
ATOM      6  H22 LEU d   1      50.490  46.407  18.158  0.00  0.00     0.163 HD
BRANCH   4   7
ATOM      7  CA  ASP d   1      53.010  46.228  18.413  0.00  0.00     0.098 C 
ATOM      8  H19 ASP d   1      52.623  47.253  18.515  0.00  0.00     0.088 H 
BRANCH   7   9
ATOM      9  N   ASP d   1      54.199  46.072  19.242  0.00  0.00    -0.346 N 
ATOM     10  C   GLU d   1      54.292  46.650  20.436  0.00  0.00     0.241 C 
ATOM     11  O   GLU d   1      53.405  47.367  20.904  0.00  0.00    -0.271 OA
ATOM     12  H18 ASP d   1      54.961  45.519  18.906  0.00  0.00     0.163 HD
BRANCH  10  13
ATOM     13  CA  GLU d   1      55.588  46.410  21.207  0.00  0.00     0.090 C 
ATOM     14  H13 GLU d   1      56.429  46.687  20.554  0.00  0.00     0.087 H 
BRANCH  13  15
ATOM     15  N   GLU d   1      55.649  47.245  22.397  0.00  0.00    -0.346 N 
ATOM     16  C   ASP d   1      56.099  48.494  22.319  0.00  0.00     0.241 C 
ATOM     17  O   ASP d   1      56.496  48.993  21.267  0.00  0.00    -0.271 OA
ATOM     18  H12 GLU d   1      55.351  46.878  23.278  0.00  0.00     0.163 HD
BRANCH  16  19
ATOM     19  CA  ASP d   1      56.122  49.306  23.608  0.00  0.00     0.098 C 
ATOM     20  H9  ASP d   1      56.233  48.631  24.469  0.00  0.00     0.088 H 
BRANCH  19  21
ATOM     21  N   ASP d   1      57.276  50.211  23.554  0.00  0.00    -0.345 N 
ATOM     22  C   SER d   1      57.533  51.139  24.475  0.00  0.00     0.251 C 
ATOM     23  O   SER d   1      56.798  51.360  25.446  0.00  0.00    -0.271 OA
ATOM     24  H8  ASP d   1      57.906  50.126  22.782  0.00  0.00     0.163 HD
BRANCH  22  25
ATOM     25  CA  SER d   1      58.811  51.956  24.257  0.00  0.00     0.195 C 
ATOM     26  H4  SER d   1      59.544  51.317  23.744  0.00  0.00     0.102 H 
BRANCH  25  27
ATOM     27  N   SER d   1      58.576  53.133  23.427  0.00  0.00    -0.064 N 
ATOM     28  H1  SER d   1      59.440  53.639  23.310  0.00  0.00     0.275 HD
ATOM     29  H2  SER d   1      57.896  53.728  23.873  0.00  0.00     0.275 HD
ATOM     30  H3  SER d   1      58.230  52.845  22.525  0.00  0.00     0.275 HD
ENDBRANCH  25  27
BRANCH  25  31
ATOM     31  CB  SER d   1      59.391  52.375  25.614  0.00  0.00     0.051 C 
ATOM     32  H5  SER d   1      58.644  52.977  26.151  0.00  0.00     0.077 H 
ATOM     33  H6  SER d   1      60.295  52.978  25.445  0.00  0.00     0.077 H 
BRANCH  31  34
ATOM     34  OG  SER d   1      59.731  51.248  26.407  0.00  0.00    -0.398 OA
ATOM     35  H7  SER d   1      58.953  50.724  26.561  0.00  0.00     0.209 HD
ENDBRANCH  31  34
ENDBRANCH  25  31
ENDBRANCH  22  25
ENDBRANCH  19  21
BRANCH  19  36
ATOM     36  CB  ASP d   1      54.797  50.072  23.744  0.00  0.00     0.043 C 
ATOM     37  H10 ASP d   1      54.597  50.600  22.800  0.00  0.00     0.052 H 
ATOM     38  H11 ASP d   1      54.895  50.803  24.560  0.00  0.00     0.052 H 
BRANCH  36  39
ATOM     39  CG  ASP d   1      53.613  49.149  24.051  0.00  0.00     0.175 C 
ATOM     40  OD1 ASP d   1      53.839  47.950  24.329  0.00  0.00    -0.648 OA
ATOM     41  OD2 ASP d   1      52.455  49.622  24.024  0.00  0.00    -0.648 OA
ENDBRANCH  36  39
ENDBRANCH  19  36
ENDBRANCH  16  19
ENDBRANCH  13  15
BRANCH  13  42
ATOM     42  CB  GLU d   1      55.739  44.925  21.574  0.00  0.00    -0.029 C 
ATOM     43  H14 GLU d   1      56.756  44.779  21.966  0.00  0.00     0.037 H 
ATOM     44  H15 GLU d   1      55.613  44.338  20.652  0.00  0.00     0.037 H 
BRANCH  42  45
ATOM     45  CG  GLU d   1      54.762  44.382  22.606  0.00  0.00     0.018 C 
ATOM     46  H16 GLU d   1      53.745  44.425  22.189  0.00  0.00     0.049 H 
ATOM     47  H17 GLU d   1      54.815  45.008  23.509  0.00  0.00     0.049 H 
BRANCH  45  48
ATOM     48  CD  GLU d   1      55.077  42.930  22.992  0.00  0.00     0.172 C 
ATOM     49  OE1 GLU d   1      56.232  42.664  23.401  0.00  0.00    -0.648 OA
ATOM     50  OE2 GLU d   1      54.181  42.057  22.891  0.00  0.00    -0.648 OA
ENDBRANCH  45  48
ENDBRANCH  42  45
ENDBRANCH  13  42
ENDBRANCH  10  13
ENDBRANCH   7   9
BRANCH   7  51
ATOM     51  CB  ASP d   1      53.336  45.948  16.942  0.00  0.00     0.043 C 
ATOM     52  H20 ASP d   1      52.434  46.135  16.341  0.00  0.00     0.052 H 
ATOM     53  H21 ASP d   1      53.632  44.893  16.842  0.00  0.00     0.052 H 
BRANCH  51  54
ATOM     54  CG  ASP d   1      54.460  46.818  16.412  0.00  0.00     0.175 C 
ATOM     55  OD1 ASP d   1      54.305  48.062  16.414  0.00  0.00    -0.648 OA
ATOM     56  OD2 ASP d   1      55.497  46.253  15.994  0.00  0.00    -0.648 OA
ENDBRANCH  51  54
ENDBRANCH   7  51
ENDBRANCH   4   7
ENDBRANCH   1   3
BRANCH   1  57
ATOM     57  C   LEU d   1      49.860  43.261  18.370  0.00  0.00     0.241 C 
ATOM     58  O   LEU d   1      50.237  43.144  17.202  0.00  0.00    -0.271 OA
ATOM     59  N   LEU d   1      49.660  42.218  19.173  0.00  0.00    -0.346 N 
ATOM     60  H33 LEU d   1      49.355  42.385  20.110  0.00  0.00     0.163 HD
BRANCH  59  61
ATOM     61  CA  LEU d   1      49.869  40.838  18.739  0.00  0.00     0.089 C 
ATOM     62  H34 LEU d   1      50.821  40.786  18.190  0.00  0.00     0.087 H 
BRANCH  61  63
ATOM     63  C   LEU d   1      48.750  40.364  17.825  0.00  0.00     0.241 C 
ATOM     64  O   LEU d   1      47.838  39.668  18.274  0.00  0.00    -0.271 OA
ATOM     65  N   HIS d   1      48.818  40.726  16.547  0.00  0.00    -0.346 N 
ATOM     66  H44 HIS d   1      49.584  41.284  16.228  0.00  0.00     0.163 HD
BRANCH  65  67
ATOM     67  CA  HIS d   1      47.783  40.313  15.611  0.00  0.00     0.094 C 
ATOM     68  H45 HIS d   1      46.815  40.653  16.009  0.00  0.00     0.088 H 
BRANCH  67  69
ATOM     69  C   HIS d   1      47.722  38.796  15.471  0.00  0.00     0.241 C 
ATOM     70  O   HIS d   1      48.649  38.163  14.961  0.00  0.00    -0.271 OA
ATOM     71  N   ILE d   1      46.616  38.230  15.949  0.00  0.00    -0.344 N 
ATOM     72  H51 ILE d   1      45.916  38.819  16.352  0.00  0.00     0.163 HD
BRANCH  71  73
ATOM     73  CA  ILE d   1      46.376  36.792  15.913  0.00  0.00     0.099 C 
ATOM     74  H52 ILE d   1      47.346  36.279  15.839  0.00  0.00     0.090 H 
BRANCH  73  75
ATOM     75  C   ILE d   1      45.528  36.407  14.697  0.00  0.00     0.197 C 
ATOM     76  O   ILE d   1      45.179  37.321  13.917  0.00  0.00    -0.646 OA
ATOM     77  OXT ILE d   1      45.225  35.205  14.532  0.00  0.00    -0.646 OA
ENDBRANCH  73  75
BRANCH  73  78
ATOM     78  CB  ILE d   1      45.666  36.329  17.217  0.00  0.00    -0.029 C 
ATOM     79  H53 ILE d   1      45.358  35.279  17.105  0.00  0.00     0.043 H 
BRANCH  78  80
ATOM     80  CG1 ILE d   1      44.436  37.194  17.499  0.00  0.00    -0.063 C 
ATOM     81  H54 ILE d   1      44.683  38.236  17.250  0.00  0.00     0.033 H 
ATOM     82  H55 ILE d   1      44.201  37.119  18.571  0.00  0.00     0.033 H 
BRANCH  80  83
ATOM     83  CD1 ILE d   1      43.219  36.803  16.724  0.00  0.00    -0.076 C 
ATOM     84  H59 ILE d   1      42.387  37.473  16.986  0.00  0.00     0.027 H 
ATOM     85  H60 ILE d   1      42.946  35.766  16.968  0.00  0.00     0.027 H 
ATOM     86  H61 ILE d   1      43.429  36.883  15.647  0.00  0.00     0.027 H 
ENDBRANCH  80  83
ENDBRANCH  78  80
BRANCH  78  87
ATOM     87  CG2 ILE d   1      46.607  36.458  18.393  0.00  0.00    -0.070 C 
ATOM     88  H56 ILE d   1      47.502  35.844  18.215  0.00  0.00     0.028 H 
ATOM     89  H57 ILE d   1      46.101  36.113  19.307  0.00  0.00     0.028 H 
ATOM     90  H58 ILE d   1      46.902  37.511  18.513  0.00  0.00     0.028 H 
ENDBRANCH  78  87
ENDBRANCH  73  78
ENDBRANCH  71  73
ENDBRANCH  67  69
BRANCH  67  91
ATOM     91  CB  HIS d   1      47.992  40.977  14.244  0.00  0.00     0.002 C 
ATOM     92  H46 HIS d   1      47.322  40.495  13.517  0.00  0.00     0.046 H 
ATOM     93  H47 HIS d   1      49.037  40.823  13.938  0.00  0.00     0.046 H 
BRANCH  91  94
ATOM     94  CG  HIS d   1      47.710  42.450  14.247  0.00  0.00     0.030 A 
ATOM     95  ND1 HIS d   1      48.560  43.372  14.824  0.00  0.00    -0.353 N 
ATOM     96  CE1 HIS d   1      48.036  44.582  14.715  0.00  0.00     0.063 A 
ATOM     97  H48 HIS d   1      49.462  43.152  15.270  0.00  0.00     0.166 HD
ATOM     98  NE2 HIS d   1      46.878  44.479  14.087  0.00  0.00    -0.254 NA
ATOM     99  H50 HIS d   1      48.483  45.505  15.081  0.00  0.00     0.143 H 
ATOM    100  CD2 HIS d   1      46.651  43.157  13.782  0.00  0.00     0.025 A 
ATOM    101  H49 HIS d   1      45.782  42.754  13.264  0.00  0.00     0.117 H 
ENDBRANCH  91  94
ENDBRANCH  67  91
ENDBRANCH  65  67
ENDBRANCH  61  63
BRANCH  61 102
ATOM    102  CB  LEU d   1      49.941  39.905  19.954  0.00  0.00    -0.035 C 
ATOM    103  H35 LEU d   1      49.003  40.020  20.516  0.00  0.00     0.037 H 
ATOM    104  H36 LEU d   1      50.785  40.237  20.577  0.00  0.00     0.037 H 
BRANCH 102 105
ATOM    105  CG  LEU d   1      50.132  38.409  19.676  0.00  0.00    -0.059 C 
ATOM    106  H37 LEU d   1      49.465  38.107  18.855  0.00  0.00     0.038 H 
BRANCH 105 107
ATOM    107  CD1 LEU d   1      51.574  38.160  19.266  0.00  0.00    -0.073 C 
ATOM    108  H38 LEU d   1      51.718  37.088  19.065  0.00  0.00     0.028 H 
ATOM    109  H39 LEU d   1      52.246  38.474  20.078  0.00  0.00     0.028 H 
ATOM    110  H40 LEU d   1      51.802  38.737  18.358  0.00  0.00     0.028 H 
ENDBRANCH 105 107
BRANCH 105 111
ATOM    111  CD2 LEU d   1      49.793  37.589  20.917  0.00  0.00    -0.073 C 
ATOM    112  H41 LEU d   1      48.748  37.776  21.206  0.00  0.00     0.028 H 
ATOM    113  H42 LEU d   1      50.459  37.880  21.742  0.00  0.00     0.028 H 
ATOM    114  H43 LEU d   1      49.927  36.520  20.698  0.00  0.00     0.028 H 
ENDBRANCH 105 111
ENDBRANCH 102 105
ENDBRANCH  61 102
ENDBRANCH  59  61
ENDBRANCH   1  57
BRANCH   1 115
ATOM    115  CB  LEU d   1      48.281  45.222  18.488  0.00  0.00    -0.035 C 
ATOM    116  H24 LEU d   1      48.384  45.391  17.406  0.00  0.00     0.037 H 
ATOM    117  H25 LEU d   1      48.135  46.186  18.997  0.00  0.00     0.037 H 
BRANCH 115 118
ATOM    118  CG  LEU d   1      47.005  44.403  18.698  0.00  0.00    -0.059 C 
ATOM    119  H26 LEU d   1      47.056  43.496  18.077  0.00  0.00     0.038 H 
BRANCH 118 120
ATOM    120  CD1 LEU d   1      46.870  43.990  20.149  0.00  0.00    -0.073 C 
ATOM    121  H27 LEU d   1      45.949  43.404  20.279  0.00  0.00     0.028 H 
ATOM    122  H28 LEU d   1      46.826  44.888  20.783  0.00  0.00     0.028 H 
ATOM    123  H29 LEU d   1      47.737  43.379  20.439  0.00  0.00     0.028 H 
ENDBRANCH 118 120
BRANCH 118 124
ATOM    124  CD2 LEU d   1      45.806  45.230  18.265  0.00  0.00    -0.073 C 
ATOM    125  H30 LEU d   1      45.922  45.520  17.210  0.00  0.00     0.028 H 
ATOM    126  H31 LEU d   1      45.739  46.134  18.889  0.00  0.00     0.028 H 
ATOM    127  H32 LEU d   1      44.888  44.635  18.383  0.00  0.00     0.028 H 
ENDBRANCH 118 124
ENDBRANCH 115 118
ENDBRANCH   1 115
TORSDOF 39
