REMARK  26 active torsions:
REMARK  status: ('A' for Active; 'I' for Inactive)
REMARK    1  A    between atoms: CA_2  and  N_1 
REMARK    2  A    between atoms: C_3  and  CA_2 
REMARK    3  A    between atoms: CA_2  and  CB_5 
REMARK       I    between atoms: N_12  and  C_3 
REMARK    4  A    between atoms: CB_5  and  CG_6 
REMARK    5  A    between atoms: CA_13  and  N_12 
REMARK    6  A    between atoms: C_14  and  CA_13 
REMARK    7  A    between atoms: CA_13  and  CB_16 
REMARK       I    between atoms: N_20  and  C_14 
REMARK    8  A    between atoms: CB_16  and  CG_17 
REMARK    9  A    between atoms: CG_17  and  CD2_19 
REMARK   10  A    between atoms: CG_17  and  CD1_18 
REMARK   11  A    between atoms: CA_21  and  N_20 
REMARK   12  A    between atoms: C_22  and  CA_21 
REMARK   13  A    between atoms: CA_21  and  CB_24 
REMARK       I    between atoms: N_26  and  C_22 
REMARK   14  A    between atoms: CB_24  and  OG_25 
REMARK   15  A    between atoms: CA_27  and  N_26 
REMARK   16  A    between atoms: C_28  and  CA_27 
REMARK   17  A    between atoms: CA_27  and  CB_30 
REMARK       I    between atoms: C_28  and  N_38 
REMARK   18  A    between atoms: CB_30  and  CG_31 
REMARK   19  A    between atoms: CZ_36  and  OH_37 
REMARK   20  A    between atoms: N_38  and  CA_39 
REMARK   21  A    between atoms: CA_39  and  C_40 
REMARK   22  A    between atoms: CA_39  and  CB_42 
REMARK   23  A    between atoms: CB_42  and  CG_43 
REMARK   24  A    between atoms: CG_43  and  CD_44 
REMARK   25  A    between atoms: CD_44  and  CE_45 
REMARK   26  A    between atoms: CE_45  and  NZ_46 
ROOT
ATOM      1  CA  SER d   1      12.174  20.378  41.535  0.00  0.00     0.109 C 
ATOM      2  H24 SER d   1      11.698  21.365  41.436  0.00  0.00     0.090 H 
ENDROOT
BRANCH   1   3
ATOM      3  C   SER d   1      13.680  20.605  41.572  0.00  0.00     0.243 C 
ATOM      4  O   SER d   1      14.456  19.699  41.289  0.00  0.00    -0.271 OA
ATOM      5  N   TYR d   1      14.081  21.821  41.933  0.00  0.00    -0.346 N 
ATOM      6  H28 TYR d   1      13.393  22.509  42.162  0.00  0.00     0.163 HD
BRANCH   5   7
ATOM      7  CA  TYR d   1      15.494  22.183  42.005  0.00  0.00     0.093 C 
ATOM      8  H29 TYR d   1      16.088  21.478  41.405  0.00  0.00     0.088 H 
BRANCH   7   9
ATOM      9  C   TYR d   1      15.940  22.116  43.462  0.00  0.00     0.241 C 
ATOM     10  O   TYR d   1      15.316  21.433  44.275  0.00  0.00    -0.271 OA
ATOM     11  N   LYS d   1      17.023  22.816  43.785  0.00  0.00    -0.345 N 
ATOM     12  H37 LYS d   1      17.523  23.318  43.079  0.00  0.00     0.163 HD
BRANCH  11  13
ATOM     13  CA  LYS d   1      17.477  22.852  45.151  0.00  0.00     0.096 C 
ATOM     14  H38 LYS d   1      18.272  23.608  45.229  0.00  0.00     0.089 H 
BRANCH  13  15
ATOM     15  C   LYS d   1      18.045  21.509  45.604  0.00  0.00     0.196 C 
ATOM     16  OXT LYS d   1      18.940  20.932  44.946  0.00  0.00    -0.646 OA
ATOM     17  O   LYS d   1      17.944  21.152  46.773  0.00  0.00    -0.646 OA
ENDBRANCH  13  15
BRANCH  13  18
ATOM     18  CB  LYS d   1      16.328  23.250  46.073  0.00  0.00    -0.037 C 
ATOM     19  H39 LYS d   1      16.112  22.415  46.755  0.00  0.00     0.036 H 
ATOM     20  H40 LYS d   1      15.438  23.464  45.462  0.00  0.00     0.036 H 
BRANCH  18  21
ATOM     21  CG  LYS d   1      16.665  24.465  46.883  0.00  0.00    -0.061 C 
ATOM     22  H41 LYS d   1      16.069  24.462  47.807  0.00  0.00     0.033 H 
ATOM     23  H42 LYS d   1      16.431  25.367  46.299  0.00  0.00     0.033 H 
BRANCH  21  24
ATOM     24  CD  LYS d   1      18.062  24.467  47.220  0.00  0.00    -0.043 C 
ATOM     25  H43 LYS d   1      18.398  23.421  47.175  0.00  0.00     0.035 H 
ATOM     26  H44 LYS d   1      18.135  24.831  48.255  0.00  0.00     0.035 H 
BRANCH  24  27
ATOM     27  CE  LYS d   1      18.853  25.112  46.570  0.00  0.00     0.080 C 
ATOM     28  H45 LYS d   1      18.276  25.878  46.032  0.00  0.00     0.075 H 
ATOM     29  H46 LYS d   1      19.311  24.422  45.846  0.00  0.00     0.075 H 
BRANCH  27  30
ATOM     30  NZ  LYS d   1      19.965  25.814  47.262  0.00  0.00    -0.079 N 
ATOM     31  H47 LYS d   1      20.529  26.301  46.583  0.00  0.00     0.274 HD
ATOM     32  H48 LYS d   1      20.535  25.141  47.751  0.00  0.00     0.274 HD
ATOM     33  H49 LYS d   1      19.586  26.476  47.921  0.00  0.00     0.274 HD
ENDBRANCH  27  30
ENDBRANCH  24  27
ENDBRANCH  21  24
ENDBRANCH  18  21
ENDBRANCH  13  18
ENDBRANCH  11  13
ENDBRANCH   7   9
BRANCH   7  34
ATOM     34  CB  TYR d   1      15.685  23.603  41.459  0.00  0.00    -0.014 C 
ATOM     35  H30 TYR d   1      15.586  24.305  42.300  0.00  0.00     0.043 H 
ATOM     36  H31 TYR d   1      14.887  23.794  40.726  0.00  0.00     0.043 H 
BRANCH  34  37
ATOM     37  CG  TYR d   1      17.016  23.874  40.780  0.00  0.00    -0.056 A 
ATOM     38  CD2 TYR d   1      17.187  23.610  39.421  0.00  0.00    -0.074 A 
ATOM     39  CE2 TYR d   1      18.387  23.893  38.775  0.00  0.00    -0.051 A 
ATOM     40  H33 TYR d   1      16.369  23.176  38.857  0.00  0.00     0.084 H 
ATOM     41  CZ  TYR d   1      19.436  24.448  39.488  0.00  0.00     0.065 A 
ATOM     42  H35 TYR d   1      18.500  23.680  37.718  0.00  0.00     0.087 H 
ATOM     43  CE1 TYR d   1      19.298  24.716  40.842  0.00  0.00    -0.051 A 
ATOM     44  CD1 TYR d   1      18.089  24.426  41.482  0.00  0.00    -0.074 A 
ATOM     45  H34 TYR d   1      20.121  25.147  41.400  0.00  0.00     0.087 H 
ATOM     46  H32 TYR d   1      17.983  24.633  42.541  0.00  0.00     0.084 H 
BRANCH  41  47
ATOM     47  OH  TYR d   1      20.612  24.752  38.841  0.00  0.00    -0.361 OA
ATOM     48  H36 TYR d   1      21.327  24.273  39.244  0.00  0.00     0.217 HD
ENDBRANCH  41  47
ENDBRANCH  34  37
ENDBRANCH   7  34
ENDBRANCH   5   7
ENDBRANCH   1   3
BRANCH   1  49
ATOM     49  CB  SER d   1      11.724  19.765  42.858  0.00  0.00     0.044 C 
ATOM     50  H25 SER d   1      12.143  18.752  42.951  0.00  0.00     0.077 H 
ATOM     51  H26 SER d   1      10.626  19.711  42.880  0.00  0.00     0.077 H 
BRANCH  49  52
ATOM     52  OG  SER d   1      12.176  20.561  43.939  0.00  0.00    -0.398 OA
ATOM     53  H27 SER d   1      13.125  20.607  43.922  0.00  0.00     0.209 HD
ENDBRANCH  49  52
ENDBRANCH   1  49
BRANCH   1  54
ATOM     54  N   SER d   1      11.710  19.564  40.412  0.00  0.00    -0.344 N 
ATOM     55  C   LEU d   1      10.795  20.058  39.586  0.00  0.00     0.241 C 
ATOM     56  O   LEU d   1      10.339  21.190  39.731  0.00  0.00    -0.271 OA
ATOM     57  H23 SER d   1      12.078  18.645  40.268  0.00  0.00     0.163 HD
BRANCH  55  58
ATOM     58  CA  LEU d   1      10.318  19.205  38.410  0.00  0.00     0.089 C 
ATOM     59  H13 LEU d   1      11.096  19.315  37.640  0.00  0.00     0.087 H 
BRANCH  58  60
ATOM     60  CB  LEU d   1       9.034  19.843  37.873  0.00  0.00    -0.035 C 
ATOM     61  H14 LEU d   1       9.001  19.604  36.800  0.00  0.00     0.037 H 
ATOM     62  H15 LEU d   1       9.155  20.928  38.004  0.00  0.00     0.037 H 
BRANCH  60  63
ATOM     63  CG  LEU d   1       7.640  19.500  38.429  0.00  0.00    -0.059 C 
ATOM     64  H16 LEU d   1       6.916  20.221  38.022  0.00  0.00     0.038 H 
BRANCH  63  65
ATOM     65  CD2 LEU d   1       7.640  19.616  39.925  0.00  0.00    -0.073 C 
ATOM     66  H20 LEU d   1       7.949  20.631  40.214  0.00  0.00     0.028 H 
ATOM     67  H21 LEU d   1       8.343  18.884  40.349  0.00  0.00     0.028 H 
ATOM     68  H22 LEU d   1       6.628  19.417  40.308  0.00  0.00     0.028 H 
ENDBRANCH  63  65
BRANCH  63  69
ATOM     69  CD1 LEU d   1       7.216  18.103  38.004  0.00  0.00    -0.073 C 
ATOM     70  H17 LEU d   1       6.219  17.882  38.413  0.00  0.00     0.028 H 
ATOM     71  H18 LEU d   1       7.940  17.368  38.386  0.00  0.00     0.028 H 
ATOM     72  H19 LEU d   1       7.182  18.048  36.906  0.00  0.00     0.028 H 
ENDBRANCH  63  69
ENDBRANCH  60  63
ENDBRANCH  58  60
BRANCH  58  73
ATOM     73  N   LEU d   1      10.114  17.764  38.535  0.00  0.00    -0.346 N 
ATOM     74  C   PHE d   1       9.830  17.345  36.978  0.00  0.00     0.249 C 
ATOM     75  O   PHE d   1       9.803  17.772  35.824  0.00  0.00    -0.271 OA
ATOM     76  H12 LEU d   1      10.141  17.188  39.352  0.00  0.00     0.163 HD
BRANCH  74  77
ATOM     77  CA  PHE d   1       9.602  15.861  37.235  0.00  0.00     0.179 C 
ATOM     78  H4  PHE d   1      10.541  15.387  37.556  0.00  0.00     0.099 H 
BRANCH  77  79
ATOM     79  CB  PHE d   1       9.117  15.215  35.933  0.00  0.00    -0.006 C 
ATOM     80  H5  PHE d   1       9.986  14.778  35.419  0.00  0.00     0.043 H 
ATOM     81  H6  PHE d   1       8.675  16.000  35.302  0.00  0.00     0.043 H 
BRANCH  79  82
ATOM     82  CG  PHE d   1       8.092  14.134  36.131  0.00  0.00    -0.056 A 
ATOM     83  CD2 PHE d   1       6.780  14.317  35.700  0.00  0.00    -0.077 A 
ATOM     84  CE2 PHE d   1       5.818  13.328  35.896  0.00  0.00    -0.082 A 
ATOM     85  H8  PHE d   1       6.504  15.241  35.206  0.00  0.00     0.084 H 
ATOM     86  CZ  PHE d   1       6.164  12.139  36.526  0.00  0.00    -0.083 A 
ATOM     87  H10 PHE d   1       4.801  13.486  35.557  0.00  0.00     0.083 H 
ATOM     88  CE1 PHE d   1       7.473  11.944  36.959  0.00  0.00    -0.082 A 
ATOM     89  H11 PHE d   1       5.419  11.367  36.680  0.00  0.00     0.083 H 
ATOM     90  CD1 PHE d   1       8.428  12.940  36.760  0.00  0.00    -0.077 A 
ATOM     91  H9  PHE d   1       7.749  11.018  37.451  0.00  0.00     0.083 H 
ATOM     92  H7  PHE d   1       9.445  12.782  37.100  0.00  0.00     0.084 H 
ENDBRANCH  79  82
ENDBRANCH  77  79
BRANCH  77  93
ATOM     93  N   PHE d   1       8.575  15.709  38.306  0.00  0.00    -0.066 N 
ATOM     94  H1  PHE d   1       8.417  14.729  38.483  0.00  0.00     0.275 HD
ATOM     95  H2  PHE d   1       7.713  16.140  38.009  0.00  0.00     0.275 HD
ATOM     96  H3  PHE d   1       8.900  16.155  39.149  0.00  0.00     0.275 HD
ENDBRANCH  77  93
ENDBRANCH  74  77
ENDBRANCH  58  73
ENDBRANCH  55  58
ENDBRANCH   1  54
TORSDOF 26
