REMARK  10 active torsions:
REMARK  status: ('A' for Active; 'I' for Inactive)
REMARK    1  A    between atoms: N_1  and  CA_2 
REMARK    2  A    between atoms: CA_2  and  C_6 
REMARK    3  A    between atoms: CA_2  and  CB_3 
REMARK    4  A    between atoms: CB_3  and  CG_4 
REMARK    5  A    between atoms: CG_4  and  SD_5 
REMARK    6  A    between atoms: SD_5  and  C5'_9 
REMARK    7  A    between atoms: C5'_9  and  C4'_10 
REMARK    8  A    between atoms: C3'_12  and  O3'_13 
REMARK    9  A    between atoms: C2'_14  and  O2'_15 
REMARK   10  A    between atoms: C1'_16  and  N9_17 
ROOT
ATOM      1  C4' SAH d   1      41.040 -26.549   2.786  0.00  0.00     0.076 C 
ATOM      2  O4' SAH d   1      39.688 -26.788   3.202  0.00  0.00    -0.355 OA
ATOM      3  C3' SAH d   1      41.982 -26.702   4.054  0.00  0.00     0.090 C 
ATOM      4  C2' SAH d   1      40.948 -27.213   5.019  0.00  0.00     0.105 C 
ATOM      5  C1' SAH d   1      39.651 -26.553   4.557  0.00  0.00     0.139 C 
ATOM      6  H11 SAH d   1      41.160 -25.544   2.354  0.00  0.00     0.088 H 
ATOM      7  H12 SAH d   1      42.794 -27.424   3.885  0.00  0.00     0.091 H 
ATOM      8  H14 SAH d   1      40.867 -28.302   4.886  0.00  0.00     0.093 H 
ATOM      9  H16 SAH d   1      39.659 -25.483   4.812  0.00  0.00     0.122 H 
ENDROOT
BRANCH   1  10
ATOM     10  C5' SAH d   1      41.285 -27.629   1.719  0.00  0.00     0.003 C 
ATOM     11  H9  SAH d   1      41.258 -28.615   2.206  0.00  0.00     0.052 H 
ATOM     12  H10 SAH d   1      40.482 -27.569   0.969  0.00  0.00     0.052 H 
BRANCH  10  13
ATOM     13  SD  SAH d   1      42.866 -27.447   0.881  0.00  0.00    -0.166 SA
BRANCH  13  14
ATOM     14  CG  SAH d   1      42.229 -26.188  -0.168  0.00  0.00    -0.021 C 
ATOM     15  H7  SAH d   1      41.581 -26.661  -0.920  0.00  0.00     0.049 H 
ATOM     16  H8  SAH d   1      41.634 -25.496   0.446  0.00  0.00     0.049 H 
BRANCH  14  17
ATOM     17  CB  SAH d   1      43.246 -25.421  -0.862  0.00  0.00    -0.021 C 
ATOM     18  H5  SAH d   1      44.221 -25.904  -0.699  0.00  0.00     0.037 H 
ATOM     19  H6  SAH d   1      43.012 -25.421  -1.937  0.00  0.00     0.037 H 
BRANCH  17  20
ATOM     20  CA  SAH d   1      43.337 -23.940  -0.373  0.00  0.00     0.183 C 
ATOM     21  H4  SAH d   1      43.546 -23.881   0.705  0.00  0.00     0.101 H 
BRANCH  20  22
ATOM     22  N   SAH d   1      41.995 -23.231  -0.693  0.00  0.00    -0.065 N 
ATOM     23  H1  SAH d   1      41.259 -23.640  -0.139  0.00  0.00     0.275 HD
ATOM     24  H2  SAH d   1      41.781 -23.343  -1.672  0.00  0.00     0.275 HD
ATOM     25  H3  SAH d   1      42.073 -22.250  -0.476  0.00  0.00     0.275 HD
ENDBRANCH  20  22
BRANCH  20  26
ATOM     26  C   SAH d   1      44.487 -23.363  -1.181  0.00  0.00     0.204 C 
ATOM     27  OXT SAH d   1      45.661 -23.646  -0.829  0.00  0.00    -0.646 OA
ATOM     28  O   SAH d   1      44.220 -23.094  -2.397  0.00  0.00    -0.646 OA
ENDBRANCH  20  26
ENDBRANCH  17  20
ENDBRANCH  14  17
ENDBRANCH  13  14
ENDBRANCH  10  13
ENDBRANCH   1  10
BRANCH   3  29
ATOM     29  O3' SAH d   1      42.547 -25.418   4.500  0.00  0.00    -0.390 OA
ATOM     30  H13 SAH d   1      41.852 -24.774   4.567  0.00  0.00     0.210 HD
ENDBRANCH   3  29
BRANCH   4  31
ATOM     31  O2' SAH d   1      41.178 -26.993   6.378  0.00  0.00    -0.388 OA
ATOM     32  H15 SAH d   1      41.241 -26.059   6.540  0.00  0.00     0.210 HD
ENDBRANCH   4  31
BRANCH   5  33
ATOM     33  N9  SAH d   1      38.384 -27.153   4.978  0.00  0.00    -0.294 N 
ATOM     34  C4  SAH d   1      37.160 -26.508   5.067  0.00  0.00     0.167 A 
ATOM     35  C5  SAH d   1      36.271 -27.528   5.416  0.00  0.00     0.149 A 
ATOM     36  N3  SAH d   1      36.840 -25.148   4.843  0.00  0.00    -0.222 NA
ATOM     37  N7  SAH d   1      36.927 -28.749   5.567  0.00  0.00    -0.236 NA
ATOM     38  C6  SAH d   1      34.899 -27.101   5.524  0.00  0.00     0.155 A 
ATOM     39  C8  SAH d   1      38.151 -28.523   5.318  0.00  0.00     0.071 A 
ATOM     40  H17 SAH d   1      38.931 -29.282   5.358  0.00  0.00     0.144 H 
ATOM     41  N1  SAH d   1      34.559 -25.733   5.358  0.00  0.00    -0.222 NA
ATOM     42  N6  SAH d   1      33.937 -28.003   5.750  0.00  0.00    -0.382 N 
ATOM     43  C2  SAH d   1      35.560 -24.821   5.032  0.00  0.00     0.091 A 
ATOM     44  H20 SAH d   1      35.282 -23.779   4.925  0.00  0.00     0.146 H 
ATOM     45  H18 SAH d   1      32.956 -27.701   5.828  0.00  0.00     0.157 HD
ATOM     46  H19 SAH d   1      34.178 -29.000   5.846  0.00  0.00     0.157 HD
ENDBRANCH   5  33
TORSDOF 10
