REMARK  13 active torsions:
REMARK  status: ('A' for Active; 'I' for Inactive)
REMARK    1  A    between atoms: C1_1  and  O_16 
REMARK    2  A    between atoms: C9_10  and  N2_18 
REMARK    3  A    between atoms: O_16  and  C14_17 
REMARK    4  A    between atoms: N2_18  and  C15_19 
REMARK    5  A    between atoms: C15_19  and  C16_20 
REMARK    6  A    between atoms: C15_19  and  C17_21 
REMARK    7  A    between atoms: C17_21  and  C18_22 
REMARK    8  A    between atoms: C18_22  and  C19_23 
REMARK    9  A    between atoms: C19_23  and  N3_24 
REMARK   10  A    between atoms: N3_24  and  C20_25 
REMARK   11  A    between atoms: N3_24  and  C21_26 
REMARK   12  A    between atoms: C20_25  and  C22_27 
REMARK   13  A    between atoms: C21_26  and  C23_28 
ROOT
ATOM      1  C15 QUN d   1      42.994 -35.519   1.983  0.00  0.00     0.006 C 
ATOM      2  H11 QUN d   1      43.595 -36.379   1.653  0.00  0.00     0.071 H 
ENDROOT
BRANCH   1   3
ATOM      3  N2  QUN d   1      42.376 -35.855   3.356  0.00  0.00    -0.384 N 
ATOM      4  H10 QUN d   1      42.826 -36.633   3.859  0.00  0.00     0.160 HD
BRANCH   3   5
ATOM      5  C9  QUN d   1      41.114 -35.162   4.135  0.00  0.00     0.053 A 
ATOM      6  C5  QUN d   1      40.907 -33.622   4.427  0.00  0.00     0.023 A 
ATOM      7  C4  QUN d   1      39.624 -33.175   5.208  0.00  0.00     0.070 A 
ATOM      8  C6  QUN d   1      41.864 -32.568   4.001  0.00  0.00    -0.036 A 
ATOM      9  C3  QUN d   1      39.422 -31.707   5.489  0.00  0.00    -0.052 A 
ATOM     10  N1  QUN d   1      38.651 -34.125   5.656  0.00  0.00    -0.247 NA
ATOM     11  C2  QUN d   1      40.436 -30.700   5.025  0.00  0.00    -0.049 A 
ATOM     12  H2  QUN d   1      38.541 -31.377   6.028  0.00  0.00     0.087 H 
ATOM     13  C1  QUN d   1      41.665 -31.129   4.275  0.00  0.00     0.069 A 
ATOM     14  H1  QUN d   1      40.278 -29.648   5.234  0.00  0.00     0.087 H 
ATOM     15  C7  QUN d   1      38.829 -35.527   5.392  0.00  0.00     0.071 A 
ATOM     16  C8  QUN d   1      40.072 -36.078   4.628  0.00  0.00     0.020 A 
ATOM     17  C10 QUN d   1      37.819 -36.502   5.868  0.00  0.00    -0.033 A 
ATOM     18  C13 QUN d   1      40.205 -37.544   4.385  0.00  0.00    -0.067 A 
ATOM     19  C12 QUN d   1      39.188 -38.489   4.867  0.00  0.00    -0.061 A 
ATOM     20  H6  QUN d   1      41.066 -37.918   3.844  0.00  0.00     0.085 H 
ATOM     21  C11 QUN d   1      38.008 -37.984   5.599  0.00  0.00     0.036 A 
ATOM     22  H5  QUN d   1      39.303 -39.552   4.686  0.00  0.00     0.086 H 
ATOM     23 CL   QUN d   1      36.882 -39.059   6.137  0.00  0.00    -0.084 Cl
ATOM     24  H4  QUN d   1      36.945 -36.157   6.408  0.00  0.00     0.089 H 
ATOM     25  H3  QUN d   1      42.754 -32.870   3.461  0.00  0.00     0.089 H 
BRANCH  13  26
ATOM     26  O   QUN d   1      42.693 -30.096   3.794  0.00  0.00    -0.356 OA
BRANCH  26  27
ATOM     27  C14 QUN d   1      43.596 -29.697   4.770  0.00  0.00     0.010 C 
ATOM     28  H7  QUN d   1      44.294 -28.960   4.345  0.00  0.00     0.066 H 
ATOM     29  H8  QUN d   1      44.159 -30.571   5.128  0.00  0.00     0.066 H 
ATOM     30  H9  QUN d   1      43.051 -29.243   5.611  0.00  0.00     0.066 H 
ENDBRANCH  26  27
ENDBRANCH  13  26
ENDBRANCH   3   5
ENDBRANCH   1   3
BRANCH   1  31
ATOM     31  C16 QUN d   1      43.928 -34.313   2.078  0.00  0.00    -0.057 C 
ATOM     32  H12 QUN d   1      44.352 -34.099   1.086  0.00  0.00     0.030 H 
ATOM     33  H13 QUN d   1      44.742 -34.534   2.784  0.00  0.00     0.030 H 
ATOM     34  H14 QUN d   1      43.363 -33.438   2.432  0.00  0.00     0.030 H 
ENDBRANCH   1  31
BRANCH   1  35
ATOM     35  C17 QUN d   1      41.907 -35.326   1.017  0.00  0.00    -0.045 C 
ATOM     36  H15 QUN d   1      41.265 -34.520   1.401  0.00  0.00     0.036 H 
ATOM     37  H16 QUN d   1      41.333 -36.264   0.976  0.00  0.00     0.036 H 
BRANCH  35  38
ATOM     38  C18 QUN d   1      42.282 -34.968  -0.389  0.00  0.00    -0.041 C 
ATOM     39  H17 QUN d   1      42.886 -35.751  -0.870  0.00  0.00     0.035 H 
ATOM     40  H18 QUN d   1      42.815 -34.008  -0.445  0.00  0.00     0.035 H 
BRANCH  38  41
ATOM     41  C19 QUN d   1      40.947 -34.886  -0.948  0.00  0.00     0.084 C 
ATOM     42  H19 QUN d   1      40.398 -34.159  -0.332  0.00  0.00     0.076 H 
ATOM     43  H20 QUN d   1      40.499 -35.883  -0.827  0.00  0.00     0.076 H 
BRANCH  41  44
ATOM     44  N3  QUN d   1      40.717 -34.495  -2.357  0.00  0.00    -0.072 N 
ATOM     45  H21 QUN d   1      41.040 -33.551  -2.503  0.00  0.00     0.279 HD
BRANCH  44  46
ATOM     46  C20 QUN d   1      39.247 -34.569  -2.448  0.00  0.00     0.080 C 
ATOM     47  H22 QUN d   1      38.973 -34.194  -3.445  0.00  0.00     0.075 H 
ATOM     48  H23 QUN d   1      38.848 -33.891  -1.679  0.00  0.00     0.075 H 
BRANCH  46  49
ATOM     49  C22 QUN d   1      38.502 -35.959  -2.262  0.00  0.00    -0.053 C 
ATOM     50  H26 QUN d   1      37.417 -35.810  -2.364  0.00  0.00     0.029 H 
ATOM     51  H27 QUN d   1      38.724 -36.363  -1.263  0.00  0.00     0.029 H 
ATOM     52  H28 QUN d   1      38.849 -36.666  -3.030  0.00  0.00     0.029 H 
ENDBRANCH  46  49
ENDBRANCH  44  46
BRANCH  44  53
ATOM     53  C21 QUN d   1      41.341 -35.362  -3.401  0.00  0.00     0.080 C 
ATOM     54  H24 QUN d   1      40.937 -36.381  -3.316  0.00  0.00     0.075 H 
ATOM     55  H25 QUN d   1      42.430 -35.386  -3.250  0.00  0.00     0.075 H 
BRANCH  53  56
ATOM     56  C23 QUN d   1      41.026 -34.794  -4.839  0.00  0.00    -0.053 C 
ATOM     57  H29 QUN d   1      41.490 -35.440  -5.598  0.00  0.00     0.029 H 
ATOM     58  H30 QUN d   1      41.431 -33.775  -4.928  0.00  0.00     0.029 H 
ATOM     59  H31 QUN d   1      39.937 -34.771  -4.994  0.00  0.00     0.029 H 
ENDBRANCH  53  56
ENDBRANCH  44  53
ENDBRANCH  41  44
ENDBRANCH  38  41
ENDBRANCH  35  38
ENDBRANCH   1  35
TORSDOF 13
