REMARK  10 active torsions:
REMARK  status: ('A' for Active; 'I' for Inactive)
REMARK    1  A    between atoms: C17_17  and  C2_2 
REMARK    2  A    between atoms: C3_3  and  C4_4 
REMARK    3  A    between atoms: C3_3  and  C9_9 
REMARK    4  A    between atoms: C4_4  and  C5_5 
REMARK    5  A    between atoms: C5_5  and  C6_6 
REMARK    6  A    between atoms: C12_12  and  C7_7 
REMARK    7  A    between atoms: O3_20  and  C8_8 
REMARK    8  A    between atoms: C13_13  and  O3_20 
REMARK    9  A    between atoms: C14_14  and  C17_17 
REMARK   10  A    between atoms: C15_15  and  O4_21 
ROOT
ATOM      1  C1  MOA d   1      65.465  77.946  82.675  0.00  0.00     0.297 A 
ATOM      2  C10 MOA d   1      67.752  78.112  82.103  0.00  0.00     0.054 A 
ATOM      3  C11 MOA d   1      67.453  79.077  83.229  0.00  0.00    -0.006 A 
ATOM      4  C12 MOA d   1      68.329  79.977  83.900  0.00  0.00    -0.018 A 
ATOM      5  C13 MOA d   1      67.789  80.724  84.953  0.00  0.00     0.084 A 
ATOM      6  C14 MOA d   1      66.447  80.564  85.334  0.00  0.00     0.013 A 
ATOM      7  C15 MOA d   1      65.599  79.682  84.658  0.00  0.00     0.091 A 
ATOM      8  C16 MOA d   1      66.128  78.943  83.588  0.00  0.00     0.082 A 
ATOM      9  O1  MOA d   1      64.326  77.614  82.588  0.00  0.00    -0.259 OA
ATOM     10  O2  MOA d   1      66.444  77.474  81.897  0.00  0.00    -0.313 OA
ATOM     11  H15 MOA d   1      68.514  77.376  82.398  0.00  0.00     0.082 H 
ATOM     12  H16 MOA d   1      68.085  78.643  81.199  0.00  0.00     0.082 H 
ENDROOT
BRANCH   6  13
ATOM     13  C17 MOA d   1      65.922  81.277  86.548  0.00  0.00    -0.020 C 
ATOM     14  H17 MOA d   1      65.395  80.553  87.186  0.00  0.00     0.046 H 
ATOM     15  H18 MOA d   1      66.769  81.707  87.103  0.00  0.00     0.046 H 
BRANCH  13  16
ATOM     16  C2  MOA d   1      64.965  82.390  86.174  0.00  0.00    -0.097 C 
ATOM     17  C3  MOA d   1      65.184  83.667  86.507  0.00  0.00    -0.087 C 
ATOM     18  H1  MOA d   1      64.065  82.141  85.613  0.00  0.00     0.077 H 
BRANCH  17  19
ATOM     19  C4  MOA d   1      64.287  84.707  85.868  0.00  0.00    -0.036 C 
ATOM     20  H2  MOA d   1      63.816  85.321  86.650  0.00  0.00     0.040 H 
ATOM     21  H3  MOA d   1      63.507  84.209  85.274  0.00  0.00     0.040 H 
BRANCH  19  22
ATOM     22  C5  MOA d   1      65.137  85.590  84.963  0.00  0.00     0.019 C 
ATOM     23  H4  MOA d   1      66.146  85.668  85.394  0.00  0.00     0.049 H 
ATOM     24  H5  MOA d   1      64.680  86.589  84.916  0.00  0.00     0.049 H 
BRANCH  22  25
ATOM     25  C6  MOA d   1      65.253  85.045  83.556  0.00  0.00     0.172 C 
ATOM     26  O5  MOA d   1      64.203  84.705  82.966  0.00  0.00    -0.648 OA
ATOM     27  O6  MOA d   1      66.393  84.955  83.045  0.00  0.00    -0.648 OA
ENDBRANCH  22  25
ENDBRANCH  19  22
ENDBRANCH  17  19
BRANCH  17  28
ATOM     28  C9  MOA d   1      66.289  84.104  87.463  0.00  0.00    -0.055 C 
ATOM     29  H12 MOA d   1      66.832  83.219  87.825  0.00  0.00     0.033 H 
ATOM     30  H13 MOA d   1      65.846  84.636  88.317  0.00  0.00     0.033 H 
ATOM     31  H14 MOA d   1      66.986  84.772  86.936  0.00  0.00     0.033 H 
ENDBRANCH  17  28
ENDBRANCH  13  16
ENDBRANCH   6  13
BRANCH   5  32
ATOM     32  O3  MOA d   1      68.589  81.644  85.549  0.00  0.00    -0.355 OA
BRANCH  32  33
ATOM     33  C8  MOA d   1      68.434  82.955  84.968  0.00  0.00     0.010 C 
ATOM     34  H9  MOA d   1      69.100  83.665  85.481  0.00  0.00     0.066 H 
ATOM     35  H10 MOA d   1      67.391  83.285  85.080  0.00  0.00     0.066 H 
ATOM     36  H11 MOA d   1      68.694  82.916  83.900  0.00  0.00     0.066 H 
ENDBRANCH  32  33
ENDBRANCH   5  32
BRANCH   7  37
ATOM     37  O4  MOA d   1      64.288  79.552  85.100  0.00  0.00    -0.359 OA
ATOM     38  H19 MOA d   1      63.693  79.769  84.392  0.00  0.00     0.217 HD
ENDBRANCH   7  37
BRANCH   4  39
ATOM     39  C7  MOA d   1      69.774  80.138  83.532  0.00  0.00    -0.048 C 
ATOM     40  H6  MOA d   1      70.013  79.474  82.688  0.00  0.00     0.033 H 
ATOM     41  H7  MOA d   1      70.404  79.876  84.395  0.00  0.00     0.033 H 
ATOM     42  H8  MOA d   1      69.965  81.182  83.243  0.00  0.00     0.033 H 
ENDBRANCH   4  39
TORSDOF 10
