REMARK  20 active torsions:
REMARK  status: ('A' for Active; 'I' for Inactive)
REMARK    1  A    between atoms: C_1  and  CH3_3 
REMARK       I    between atoms: C_1  and  N_4 
REMARK    2  A    between atoms: N_4  and  CA_5 
REMARK    3  A    between atoms: CA_5  and  C_6 
REMARK    4  A    between atoms: CA_5  and  CB_8 
REMARK       I    between atoms: C_6  and  N_13 
REMARK    5  A    between atoms: CB_8  and  CG_9 
REMARK    6  A    between atoms: CG_9  and  CD1_10 
REMARK    7  A    between atoms: CG_9  and  CD2_11 
REMARK    8  A    between atoms: N_13  and  CA_14 
REMARK    9  A    between atoms: CA_14  and  C_15 
REMARK   10  A    between atoms: CA_14  and  CB_17 
REMARK       I    between atoms: C_15  and  N_22 
REMARK   11  A    between atoms: CB_17  and  CG_18 
REMARK   12  A    between atoms: CG_18  and  CD1_19 
REMARK   13  A    between atoms: CG_18  and  CD2_20 
REMARK   14  A    between atoms: N_22  and  CA_23 
REMARK   15  A    between atoms: CA_23  and  C_24 
REMARK   16  A    between atoms: CA_23  and  CB_26 
REMARK   17  A    between atoms: C_24  and  O_25 
REMARK   18  A    between atoms: CB_26  and  CG_27 
REMARK   19  A    between atoms: CG_27  and  CD_28 
REMARK   20  A    between atoms: CD_28  and  NE_29 
REMARK       I    between atoms: NE_29  and  CZ_30 
REMARK       I    between atoms: CZ_30  and  NH1_31 
ROOT
ATOM      1  CA  LEU d   1      56.186 -13.333  14.603  0.00  0.00     0.089 C 
ATOM      2  H16 LEU d   1      55.961 -12.420  15.174  0.00  0.00     0.087 H 
ENDROOT
BRANCH   1   3
ATOM      3  N   LEU d   1      55.395 -13.290  13.374  0.00  0.00    -0.346 N 
ATOM      4  C   LEU d   1      55.457 -12.272  12.500  0.00  0.00     0.241 C 
ATOM      5  O   LEU d   1      56.213 -11.320  12.631  0.00  0.00    -0.271 OA
ATOM      6  H15 LEU d   1      54.780 -14.053  13.175  0.00  0.00     0.163 HD
BRANCH   4   7
ATOM      7  CA  LEU d   1      54.578 -12.354  11.273  0.00  0.00     0.089 C 
ATOM      8  H5  LEU d   1      54.906 -11.623  10.520  0.00  0.00     0.087 H 
BRANCH   7   9
ATOM      9  N   LEU d   1      54.747 -13.688  10.746  0.00  0.00    -0.348 N 
ATOM     10  C   ACE d   1      55.541 -13.883   9.683  0.00  0.00     0.214 C 
ATOM     11  O   ACE d   1      56.031 -12.962   9.002  0.00  0.00    -0.274 OA
ATOM     12  H4  LEU d   1      54.275 -14.461  11.171  0.00  0.00     0.163 HD
BRANCH  10  13
ATOM     13  CH3 ACE d   1      55.713 -15.341   9.273  0.00  0.00    -0.003 C 
ATOM     14  H1  ACE d   1      55.208 -15.989  10.004  0.00  0.00     0.040 H 
ATOM     15  H2  ACE d   1      56.784 -15.589   9.241  0.00  0.00     0.040 H 
ATOM     16  H3  ACE d   1      55.271 -15.497   8.278  0.00  0.00     0.040 H 
ENDBRANCH  10  13
ENDBRANCH   7   9
BRANCH   7  17
ATOM     17  CB  LEU d   1      53.141 -12.031  11.678  0.00  0.00    -0.035 C 
ATOM     18  H6  LEU d   1      53.181 -11.140  12.322  0.00  0.00     0.037 H 
ATOM     19  H7  LEU d   1      52.770 -12.888  12.260  0.00  0.00     0.037 H 
BRANCH  17  20
ATOM     20  CG  LEU d   1      52.101 -11.748  10.583  0.00  0.00    -0.059 C 
ATOM     21  H8  LEU d   1      51.815 -12.693  10.097  0.00  0.00     0.038 H 
BRANCH  20  22
ATOM     22  CD1 LEU d   1      50.898 -11.113  11.261  0.00  0.00    -0.073 C 
ATOM     23  H9  LEU d   1      50.126 -10.894  10.508  0.00  0.00     0.028 H 
ATOM     24  H10 LEU d   1      51.206 -10.179  11.754  0.00  0.00     0.028 H 
ATOM     25  H11 LEU d   1      50.491 -11.807  12.011  0.00  0.00     0.028 H 
ENDBRANCH  20  22
BRANCH  20  26
ATOM     26  CD2 LEU d   1      52.605 -10.766   9.523  0.00  0.00    -0.073 C 
ATOM     27  H12 LEU d   1      53.479 -11.196   9.011  0.00  0.00     0.028 H 
ATOM     28  H13 LEU d   1      52.892  -9.820  10.006  0.00  0.00     0.028 H 
ATOM     29  H14 LEU d   1      51.807 -10.576   8.790  0.00  0.00     0.028 H 
ENDBRANCH  20  26
ENDBRANCH  17  20
ENDBRANCH   7  17
ENDBRANCH   4   7
ENDBRANCH   1   3
BRANCH   1  30
ATOM     30  C   LEU d   1      57.681 -13.386  14.357  0.00  0.00     0.240 C 
ATOM     31  O   LEU d   1      58.176 -14.167  13.525  0.00  0.00    -0.271 OA
ATOM     32  N   AR7 d   1      58.397 -12.586  15.132  0.00  0.00    -0.353 N 
ATOM     33  H26 AR7 d   1      57.932 -11.993  15.790  0.00  0.00     0.163 HD
BRANCH  32  34
ATOM     34  CA  AR7 d   1      59.831 -12.556  15.043  0.00  0.00     0.032 C 
ATOM     35  H27 AR7 d   1      60.151 -13.053  14.115  0.00  0.00     0.075 H 
BRANCH  34  36
ATOM     36  C   AR7 d   1      60.454 -13.323  16.239  0.00  0.00     0.035 C 
ATOM     37  H28 AR7 d   1      60.602 -12.643  17.091  0.00  0.00     0.077 H 
ATOM     38  H29 AR7 d   1      61.420 -13.762  15.948  0.00  0.00     0.077 H 
BRANCH  36  39
ATOM     39  O   AR7 d   1      59.522 -14.359  16.586  0.00  0.00    -0.399 OA
ATOM     40  H30 AR7 d   1      58.691 -13.968  16.828  0.00  0.00     0.209 HD
ENDBRANCH  36  39
ENDBRANCH  34  36
BRANCH  34  41
ATOM     41  CB  AR7 d   1      60.235 -11.085  14.976  0.00  0.00    -0.043 C 
ATOM     42  H31 AR7 d   1      61.328 -10.995  15.068  0.00  0.00     0.036 H 
ATOM     43  H32 AR7 d   1      59.752 -10.529  15.793  0.00  0.00     0.036 H 
BRANCH  41  44
ATOM     44  CG  AR7 d   1      59.791 -10.533  13.657  0.00  0.00    -0.048 C 
ATOM     45  H33 AR7 d   1      58.694 -10.597  13.596  0.00  0.00     0.035 H 
ATOM     46  H34 AR7 d   1      60.238 -11.134  12.852  0.00  0.00     0.035 H 
BRANCH  44  47
ATOM     47  CD  AR7 d   1      60.207  -9.090  13.478  0.00  0.00     0.009 C 
ATOM     48  H35 AR7 d   1      61.302  -9.004  13.534  0.00  0.00     0.064 H 
ATOM     49  H36 AR7 d   1      59.749  -8.466  14.260  0.00  0.00     0.064 H 
BRANCH  47  50
ATOM     50  NE  AR7 d   1      59.738  -8.666  12.160  0.00  0.00    -0.227 N 
ATOM     51  CZ  AR7 d   1      59.947  -7.435  11.656  0.00  0.00     0.665 C 
ATOM     52  NH1 AR7 d   1      60.638  -6.538  12.366  0.00  0.00    -0.235 N 
ATOM     53  NH2 AR7 d   1      59.479  -7.090  10.437  0.00  0.00    -0.235 N 
ATOM     54  H38 AR7 d   1      60.801  -5.595  11.985  0.00  0.00     0.174 HD
ATOM     55  H39 AR7 d   1      61.008  -6.790  13.294  0.00  0.00     0.174 HD
ATOM     56  H40 AR7 d   1      58.945  -7.771   9.879  0.00  0.00     0.174 HD
ATOM     57  H41 AR7 d   1      59.656  -6.146  10.066  0.00  0.00     0.174 HD
ATOM     58  H37 AR7 d   1      59.219  -9.346  11.586  0.00  0.00     0.177 HD
ENDBRANCH  47  50
ENDBRANCH  44  47
ENDBRANCH  41  44
ENDBRANCH  34  41
ENDBRANCH  32  34
ENDBRANCH   1  30
BRANCH   1  59
ATOM     59  CB  LEU d   1      55.825 -14.560  15.467  0.00  0.00    -0.035 C 
ATOM     60  H17 LEU d   1      56.680 -14.725  16.139  0.00  0.00     0.037 H 
ATOM     61  H18 LEU d   1      55.735 -15.409  14.773  0.00  0.00     0.037 H 
BRANCH  59  62
ATOM     62  CG  LEU d   1      54.573 -14.594  16.350  0.00  0.00    -0.059 C 
ATOM     63  H19 LEU d   1      54.629 -13.781  17.089  0.00  0.00     0.038 H 
BRANCH  62  64
ATOM     64  CD1 LEU d   1      53.311 -14.421  15.508  0.00  0.00    -0.073 C 
ATOM     65  H20 LEU d   1      52.427 -14.449  16.162  0.00  0.00     0.028 H 
ATOM     66  H21 LEU d   1      53.247 -15.235  14.771  0.00  0.00     0.028 H 
ATOM     67  H22 LEU d   1      53.349 -13.454  14.984  0.00  0.00     0.028 H 
ENDBRANCH  62  64
BRANCH  62  68
ATOM     68  CD2 LEU d   1      54.510 -15.936  17.072  0.00  0.00    -0.073 C 
ATOM     69  H23 LEU d   1      55.416 -16.068  17.681  0.00  0.00     0.028 H 
ATOM     70  H24 LEU d   1      54.444 -16.748  16.332  0.00  0.00     0.028 H 
ATOM     71  H25 LEU d   1      53.624 -15.961  17.723  0.00  0.00     0.028 H 
ENDBRANCH  62  68
ENDBRANCH  59  62
ENDBRANCH   1  59
TORSDOF 20
