REMARK  5 active torsions:
REMARK  status: ('A' for Active; 'I' for Inactive)
REMARK    1  A    between atoms: C9_2  and  C8_4 
REMARK       I    between atoms: N_8  and  C4_9 
REMARK    2  A    between atoms: C4_9  and  C2_11 
REMARK    3  A    between atoms: C2_11  and  C3_12 
REMARK    4  A    between atoms: C2_11  and  C1_13 
REMARK    5  A    between atoms: C1_13  and  S_14 
ROOT
ATOM      1  C8  MCO d   1       7.041  -6.142  19.486  0.00  0.00     0.098 C 
ATOM      2  C7  MCO d   1       7.281  -7.437  18.723  0.00  0.00    -0.035 C 
ATOM      3  C6  MCO d   1       8.589  -7.195  18.011  0.00  0.00    -0.048 C 
ATOM      4  C5  MCO d   1       8.492  -5.725  17.604  0.00  0.00    -0.001 C 
ATOM      5  N   MCO d   1       7.874  -5.094  18.770  0.00  0.00    -0.337 N 
ATOM      6  C4  MCO d   1       7.893  -3.730  18.941  0.00  0.00     0.225 C 
ATOM      7  O1  MCO d   1       6.985  -3.166  19.526  0.00  0.00    -0.273 OA
ATOM      8  H1  MCO d   1       7.541  -6.249  20.460  0.00  0.00     0.089 H 
ATOM      9  H2  MCO d   1       6.471  -7.624  18.003  0.00  0.00     0.036 H 
ATOM     10  H3  MCO d   1       7.362  -8.290  19.413  0.00  0.00     0.036 H 
ATOM     11  H4  MCO d   1       8.685  -7.844  17.128  0.00  0.00     0.035 H 
ATOM     12  H5  MCO d   1       9.443  -7.363  18.684  0.00  0.00     0.035 H 
ATOM     13  H6  MCO d   1       7.862  -5.604  16.710  0.00  0.00     0.064 H 
ATOM     14  H7  MCO d   1       9.489  -5.303  17.410  0.00  0.00     0.064 H 
ENDROOT
BRANCH   1  15
ATOM     15  C9  MCO d   1       5.595  -6.016  19.871  0.00  0.00     0.196 C 
ATOM     16  O2  MCO d   1       5.333  -5.856  21.083  0.00  0.00    -0.646 OA
ATOM     17  O3  MCO d   1       4.763  -6.220  18.981  0.00  0.00    -0.646 OA
ENDBRANCH   1  15
BRANCH   6  18
ATOM     18  C2  MCO d   1       9.007  -2.905  18.198  0.00  0.00     0.028 C 
ATOM     19  H8  MCO d   1       9.891  -3.560  18.182  0.00  0.00     0.055 H 
BRANCH  18  20
ATOM     20  C3  MCO d   1       8.675  -2.631  16.760  0.00  0.00    -0.064 C 
ATOM     21  H9  MCO d   1       9.490  -2.053  16.299  0.00  0.00     0.028 H 
ATOM     22  H10 MCO d   1       7.740  -2.055  16.703  0.00  0.00     0.028 H 
ATOM     23  H11 MCO d   1       8.552  -3.584  16.224  0.00  0.00     0.028 H 
ENDBRANCH  18  20
BRANCH  18  24
ATOM     24  C1  MCO d   1       9.453  -1.628  18.934  0.00  0.00    -0.015 C 
ATOM     25  H12 MCO d   1       9.451  -1.838  20.014  0.00  0.00     0.049 H 
ATOM     26  H13 MCO d   1       8.724  -0.834  18.713  0.00  0.00     0.049 H 
BRANCH  24  27
ATOM     27  S   MCO d   1      11.141  -1.007  18.470  0.00  0.00    -0.181 SA
ATOM     28  H14 MCO d   1      11.161  -0.796  17.485  0.00  0.00     0.101 HD
ENDBRANCH  24  27
ENDBRANCH  18  24
ENDBRANCH   6  18
TORSDOF 5
