REMARK  10 active torsions:
REMARK  status: ('A' for Active; 'I' for Inactive)
REMARK    1  A    between atoms: C1_2  and  N4_20 
REMARK    2  A    between atoms: C7_10  and  C6_9 
REMARK    3  A    between atoms: C8_11  and  C7_10 
REMARK    4  A    between atoms: C9_12  and  C8_11 
REMARK    5  A    between atoms: C15_18  and  C12_15 
REMARK       I    between atoms: N5_26  and  C15_18 
REMARK    6  A    between atoms: C16_21  and  C17_22 
REMARK    7  A    between atoms: C16_21  and  C18_23 
REMARK    8  A    between atoms: C16_21  and  N5_26 
REMARK    9  A    between atoms: C17_22  and  C19_28 
REMARK   10  A    between atoms: C19_28  and  C20_29 
ROOT
ATOM      1  C9  LY3 d   1      16.115  14.180  33.569  0.00  0.00    -0.058 A 
ATOM      2  C10 LY3 d   1      16.301  14.448  34.966  0.00  0.00    -0.076 A 
ATOM      3  C11 LY3 d   1      15.254  14.151  35.906  0.00  0.00    -0.067 A 
ATOM      4  C12 LY3 d   1      14.032  13.589  35.422  0.00  0.00     0.032 A 
ATOM      5  C13 LY3 d   1      13.869  13.330  34.037  0.00  0.00    -0.067 A 
ATOM      6  C14 LY3 d   1      14.900  13.624  33.122  0.00  0.00    -0.076 A 
ATOM      7  H8  LY3 d   1      17.234  14.876  35.314  0.00  0.00     0.084 H 
ATOM      8  H9  LY3 d   1      15.389  14.350  36.963  0.00  0.00     0.085 H 
ATOM      9  H10 LY3 d   1      12.941  12.901  33.678  0.00  0.00     0.085 H 
ATOM     10  H11 LY3 d   1      14.757  13.421  32.067  0.00  0.00     0.084 H 
ENDROOT
BRANCH   1  11
ATOM     11  C8  LY3 d   1      17.184  14.481  32.554  0.00  0.00    -0.037 C 
ATOM     12  H6  LY3 d   1      18.164  14.168  32.944  0.00  0.00     0.040 H 
ATOM     13  H7  LY3 d   1      16.971  13.939  31.621  0.00  0.00     0.040 H 
BRANCH  11  14
ATOM     14  C7  LY3 d   1      17.194  15.988  32.284  0.00  0.00    -0.035 C 
ATOM     15  H4  LY3 d   1      17.049  16.523  33.234  0.00  0.00     0.040 H 
ATOM     16  H5  LY3 d   1      18.165  16.268  31.850  0.00  0.00     0.040 H 
BRANCH  14  17
ATOM     17  C6  LY3 d   1      16.097  16.378  31.327  0.00  0.00    -0.023 A 
ATOM     18  C3  LY3 d   1      15.059  17.438  31.573  0.00  0.00     0.087 A 
ATOM     19  C2  LY3 d   1      14.239  17.557  30.534  0.00  0.00     0.163 A 
ATOM     20  C4  LY3 d   1      14.955  18.388  32.743  0.00  0.00     0.274 A 
ATOM     21  N2  LY3 d   1      13.136  18.531  30.541  0.00  0.00    -0.046 NA
ATOM     22  N3  LY3 d   1      14.640  16.522  29.578  0.00  0.00    -0.349 N 
ATOM     23  C1  LY3 d   1      13.038  19.316  31.544  0.00  0.00     0.702 A 
ATOM     24  N1  LY3 d   1      13.879  19.236  32.603  0.00  0.00    -0.154 N 
ATOM     25  H1  LY3 d   1      13.699  19.859  33.364  0.00  0.00     0.187 HD
ATOM     26  C5  LY3 d   1      15.802  15.832  30.138  0.00  0.00    -0.014 A 
ATOM     27  H2  LY3 d   1      14.187  16.317  28.676  0.00  0.00     0.167 HD
ATOM     28  H3  LY3 d   1      16.339  15.010  29.667  0.00  0.00     0.112 H 
ATOM     29  O1  LY3 d   1      15.672  18.353  33.710  0.00  0.00    -0.267 OA
BRANCH  23  30
ATOM     30  N4  LY3 d   1      11.984  20.326  31.632  0.00  0.00    -0.233 N 
ATOM     31  H12 LY3 d   1      11.312  20.438  30.860  0.00  0.00     0.174 HD
ATOM     32  H13 LY3 d   1      11.914  20.926  32.466  0.00  0.00     0.174 HD
ENDBRANCH  23  30
ENDBRANCH  14  17
ENDBRANCH  11  14
ENDBRANCH   1  11
BRANCH   4  33
ATOM     33  C15 LY3 d   1      12.856  13.222  36.329  0.00  0.00     0.252 C 
ATOM     34  N5  LY3 d   1      13.145  12.796  37.601  0.00  0.00    -0.342 N 
ATOM     35  H17 LY3 d   1      14.081  12.734  37.947  0.00  0.00     0.163 HD
ATOM     36  O4  LY3 d   1      11.713  13.283  35.940  0.00  0.00    -0.268 OA
BRANCH  34  37
ATOM     37  C16 LY3 d   1      11.986  12.441  38.409  0.00  0.00     0.097 C 
ATOM     38  H14 LY3 d   1      11.133  13.002  38.001  0.00  0.00     0.089 H 
BRANCH  37  39
ATOM     39  C17 LY3 d   1      11.647  10.945  38.307  0.00  0.00    -0.030 C 
ATOM     40  H15 LY3 d   1      12.197  10.513  37.458  0.00  0.00     0.037 H 
ATOM     41  H16 LY3 d   1      10.566  10.836  38.137  0.00  0.00     0.037 H 
BRANCH  39  42
ATOM     42  C19 LY3 d   1      12.027  10.182  39.583  0.00  0.00    -0.005 C 
ATOM     43  H18 LY3 d   1      11.118   9.892  40.130  0.00  0.00     0.044 H 
ATOM     44  H19 LY3 d   1      12.655  10.817  40.226  0.00  0.00     0.044 H 
BRANCH  42  45
ATOM     45  C20 LY3 d   1      12.782   8.969  39.178  0.00  0.00     0.139 A 
ATOM     46  N6  LY3 d   1      13.768   8.994  38.122  0.00  0.00    -0.248 N 
ATOM     47  N7  LY3 d   1      14.115   7.791  38.142  0.00  0.00    -0.076 NA
ATOM     48  H20 LY3 d   1      14.090   9.772  37.528  0.00  0.00     0.192 HD
ATOM     49  N8  LY3 d   1      13.487   7.007  39.058  0.00  0.00     0.047 NA
ATOM     50  N9  LY3 d   1      12.634   7.840  39.699  0.00  0.00    -0.142 NA
ENDBRANCH  42  45
ENDBRANCH  39  42
ENDBRANCH  37  39
BRANCH  37  51
ATOM     51  C18 LY3 d   1      12.120  12.824  39.848  0.00  0.00     0.196 C 
ATOM     52  O2  LY3 d   1      13.552  13.004  40.203  0.00  0.00    -0.646 OA
ATOM     53  O3  LY3 d   1      11.195  12.894  40.621  0.00  0.00    -0.646 OA
ENDBRANCH  37  51
ENDBRANCH  34  37
ENDBRANCH   4  33
TORSDOF 10
