REMARK WARNING: 32 MAX_TORS EXCEEDED!!!
REMARK  41 active torsions:
REMARK  status: ('A' for Active; 'I' for Inactive)
REMARK    1  A    between atoms: N_1  and  CA_2 
REMARK    2  A    between atoms: CA_2  and  C_3 
REMARK    3  A    between atoms: CA_2  and  CB_5 
REMARK       I    between atoms: C_3  and  N_7 
REMARK    4  A    between atoms: CB_5  and  OG_6 
REMARK    5  A    between atoms: N_7  and  CA_8 
REMARK    6  A    between atoms: CA_8  and  C_9 
REMARK    7  A    between atoms: CA_8  and  CB_11 
REMARK       I    between atoms: C_9  and  N_13 
REMARK    8  A    between atoms: CB_11  and  OG_12 
REMARK    9  A    between atoms: N_13  and  CA_14 
REMARK   10  A    between atoms: CA_14  and  C_15 
REMARK   11  A    between atoms: CA_14  and  CB_17 
REMARK       I    between atoms: C_15  and  N_20 
REMARK   12  A    between atoms: CB_17  and  CG1_18 
REMARK   13  A    between atoms: CB_17  and  CG2_19 
REMARK   14  A    between atoms: N_20  and  CA_21 
REMARK   15  A    between atoms: CA_21  and  C_22 
REMARK   16  A    between atoms: CA_21  and  CB_24 
REMARK       I    between atoms: C_22  and  N_28 
REMARK   17  A    between atoms: CB_24  and  CG1_25 
REMARK   18  A    between atoms: CB_24  and  CG2_26 
REMARK   19  A    between atoms: CG1_25  and  CD1_27 
REMARK   20  A    between atoms: N_28  and  CA_29 
REMARK   21  A    between atoms: CA_29  and  C_30 
REMARK       I    between atoms: C_30  and  N_32 
REMARK   22  A    between atoms: N_32  and  CA_33 
REMARK   23  A    between atoms: CA_33  and  C_34 
REMARK   24  A    between atoms: CA_33  and  CB_36 
REMARK       I    between atoms: C_34  and  N_39 
REMARK   25  A    between atoms: CB_36  and  CG1_37 
REMARK   26  A    between atoms: CB_36  and  CG2_38 
REMARK   27  A    between atoms: N_39  and  CA_40 
REMARK   28  A    between atoms: CA_40  and  C_41 
REMARK   29  A    between atoms: CA_40  and  CB_43 
REMARK       I    between atoms: C_41  and  N_53 
REMARK   30  A    between atoms: CB_43  and  CG_44 
REMARK   31  A    between atoms: N_53  and  CA_54 
REMARK   32  A    between atoms: CA_54  and  C_55 
REMARK   33  A    between atoms: CA_54  and  CB_57 
REMARK       I    between atoms: C_55  and  N_65 
REMARK   34  A    between atoms: CB_57  and  CG_58 
REMARK   35  A    between atoms: CZ_63  and  OH_64 
REMARK   36  A    between atoms: N_65  and  CA_66 
REMARK   37  A    between atoms: CA_66  and  C_67 
REMARK   38  A    between atoms: CA_66  and  CB_69 
REMARK   39  A    between atoms: CB_69  and  CG_70 
REMARK   40  A    between atoms: CG_70  and  CD1_71 
REMARK   41  A    between atoms: CG_70  and  CD2_72 
ROOT
ATOM      1  CA  VAL d   1      23.688  19.226 -11.126  0.00  0.00     0.092 C 
ATOM      2  H37 VAL d   1      24.348  19.914 -10.576  0.00  0.00     0.088 H 
ENDROOT
BRANCH   1   3
ATOM      3  N   VAL d   1      23.407  18.035 -10.336  0.00  0.00    -0.346 N 
ATOM      4  C   GLY d   1      23.916  17.869  -9.121  0.00  0.00     0.236 C 
ATOM      5  O   GLY d   1      24.703  18.674  -8.611  0.00  0.00    -0.272 OA
ATOM      6  H36 VAL d   1      22.816  17.325 -10.718  0.00  0.00     0.163 HD
BRANCH   4   7
ATOM      7  CA  GLY d   1      23.512  16.602  -8.389  0.00  0.00     0.069 C 
ATOM      8  H34 GLY d   1      22.610  16.788  -7.788  0.00  0.00     0.078 H 
ATOM      9  H35 GLY d   1      23.312  15.798  -9.113  0.00  0.00     0.078 H 
BRANCH   7  10
ATOM     10  N   GLY d   1      24.615  16.224  -7.522  0.00  0.00    -0.351 N 
ATOM     11  C   ILE d   1      25.545  15.386  -7.958  0.00  0.00     0.241 C 
ATOM     12  O   ILE d   1      25.491  14.830  -9.070  0.00  0.00    -0.271 OA
ATOM     13  H33 GLY d   1      24.673  16.596  -6.596  0.00  0.00     0.163 HD
BRANCH  11  14
ATOM     14  CA  ILE d   1      26.704  15.100  -6.993  0.00  0.00     0.092 C 
ATOM     15  H23 ILE d   1      26.327  15.089  -5.960  0.00  0.00     0.088 H 
BRANCH  14  16
ATOM     16  N   ILE d   1      27.299  13.804  -7.287  0.00  0.00    -0.346 N 
ATOM     17  C   VAL d   1      27.304  12.849  -6.372  0.00  0.00     0.241 C 
ATOM     18  O   VAL d   1      26.842  13.011  -5.239  0.00  0.00    -0.271 OA
ATOM     19  H22 ILE d   1      27.706  13.635  -8.185  0.00  0.00     0.163 HD
BRANCH  17  20
ATOM     20  CA  VAL d   1      27.913  11.528  -6.776  0.00  0.00     0.092 C 
ATOM     21  H14 VAL d   1      28.757  11.684  -7.464  0.00  0.00     0.088 H 
BRANCH  20  22
ATOM     22  N   VAL d   1      28.375  10.907  -5.545  0.00  0.00    -0.346 N 
ATOM     23  C   SER d   1      29.607  11.070  -5.077  0.00  0.00     0.243 C 
ATOM     24  O   SER d   1      30.457  11.732  -5.632  0.00  0.00    -0.271 OA
ATOM     25  H13 VAL d   1      27.738  10.333  -5.029  0.00  0.00     0.163 HD
BRANCH  23  26
ATOM     26  CA  SER d   1      29.906  10.353  -3.780  0.00  0.00     0.109 C 
ATOM     27  H9  SER d   1      29.335   9.413  -3.790  0.00  0.00     0.090 H 
BRANCH  26  28
ATOM     28  N   SER d   1      31.306   9.996  -3.572  0.00  0.00    -0.344 N 
ATOM     29  C   SER d   1      31.914   8.997  -4.208  0.00  0.00     0.251 C 
ATOM     30  O   SER d   1      31.373   8.300  -5.080  0.00  0.00    -0.271 OA
ATOM     31  H8  SER d   1      31.838  10.531  -2.916  0.00  0.00     0.163 HD
BRANCH  29  32
ATOM     32  CA  SER d   1      33.360   8.737  -3.780  0.00  0.00     0.195 C 
ATOM     33  H4  SER d   1      33.630   9.448  -2.985  0.00  0.00     0.102 H 
BRANCH  32  34
ATOM     34  N   SER d   1      33.465   7.344  -3.250  0.00  0.00    -0.064 N 
ATOM     35  H1  SER d   1      34.415   7.164  -2.965  0.00  0.00     0.275 HD
ATOM     36  H2  SER d   1      33.200   6.690  -3.970  0.00  0.00     0.275 HD
ATOM     37  H3  SER d   1      32.851   7.239  -2.458  0.00  0.00     0.275 HD
ENDBRANCH  32  34
BRANCH  32  38
ATOM     38  CB  SER d   1      34.327   8.918  -4.949  0.00  0.00     0.051 C 
ATOM     39  H5  SER d   1      34.001   8.283  -5.786  0.00  0.00     0.077 H 
ATOM     40  H6  SER d   1      35.336   8.616  -4.630  0.00  0.00     0.077 H 
BRANCH  38  41
ATOM     41  OG  SER d   1      34.364  10.267  -5.380  0.00  0.00    -0.398 OA
ATOM     42  H7  SER d   1      33.496  10.533  -5.660  0.00  0.00     0.209 HD
ENDBRANCH  38  41
ENDBRANCH  32  38
ENDBRANCH  29  32
ENDBRANCH  26  28
BRANCH  26  43
ATOM     43  CB  SER d   1      29.398  11.209  -2.610  0.00  0.00     0.044 C 
ATOM     44  H10 SER d   1      29.443  10.614  -1.686  0.00  0.00     0.077 H 
ATOM     45  H11 SER d   1      28.356  11.502  -2.807  0.00  0.00     0.077 H 
BRANCH  43  46
ATOM     46  OG  SER d   1      30.185  12.382  -2.444  0.00  0.00    -0.398 OA
ATOM     47  H12 SER d   1      31.086  12.136  -2.269  0.00  0.00     0.209 HD
ENDBRANCH  43  46
ENDBRANCH  26  43
ENDBRANCH  23  26
ENDBRANCH  20  22
BRANCH  20  48
ATOM     48  CB  VAL d   1      26.819  10.652  -7.475  0.00  0.00    -0.033 C 
ATOM     49  H15 VAL d   1      27.234   9.648  -7.650  0.00  0.00     0.042 H 
BRANCH  48  50
ATOM     50  CG1 VAL d   1      25.604  10.521  -6.561  0.00  0.00    -0.071 C 
ATOM     51  H16 VAL d   1      24.838   9.905  -7.055  0.00  0.00     0.028 H 
ATOM     52  H17 VAL d   1      25.193  11.520  -6.352  0.00  0.00     0.028 H 
ATOM     53  H18 VAL d   1      25.905  10.044  -5.617  0.00  0.00     0.028 H 
ENDBRANCH  48  50
BRANCH  48  54
ATOM     54  CG2 VAL d   1      26.429  11.247  -8.819  0.00  0.00    -0.071 C 
ATOM     55  H19 VAL d   1      27.322  11.330  -9.456  0.00  0.00     0.028 H 
ATOM     56  H20 VAL d   1      25.994  12.246  -8.666  0.00  0.00     0.028 H 
ATOM     57  H21 VAL d   1      25.689  10.596  -9.307  0.00  0.00     0.028 H 
ENDBRANCH  48  54
ENDBRANCH  20  48
ENDBRANCH  17  20
ENDBRANCH  14  16
BRANCH  14  58
ATOM     58  CB  ILE d   1      27.725  16.233  -7.148  0.00  0.00    -0.030 C 
ATOM     59  H24 ILE d   1      27.268  17.174  -6.806  0.00  0.00     0.043 H 
BRANCH  58  60
ATOM     60  CG1 ILE d   1      28.114  16.373  -8.606  0.00  0.00    -0.063 C 
ATOM     61  H25 ILE d   1      27.198  16.392  -9.214  0.00  0.00     0.033 H 
ATOM     62  H26 ILE d   1      28.726  15.505  -8.892  0.00  0.00     0.033 H 
BRANCH  60  63
ATOM     63  CD1 ILE d   1      28.897  17.623  -8.880  0.00  0.00    -0.076 C 
ATOM     64  H30 ILE d   1      29.150  17.670  -9.950  0.00  0.00     0.027 H 
ATOM     65  H31 ILE d   1      29.822  17.614  -8.284  0.00  0.00     0.027 H 
ATOM     66  H32 ILE d   1      28.293  18.501  -8.607  0.00  0.00     0.027 H 
ENDBRANCH  60  63
ENDBRANCH  58  60
BRANCH  58  67
ATOM     67  CG2 ILE d   1      28.980  15.949  -6.296  0.00  0.00    -0.071 C 
ATOM     68  H27 ILE d   1      28.691  15.848  -5.239  0.00  0.00     0.028 H 
ATOM     69  H28 ILE d   1      29.692  16.780  -6.404  0.00  0.00     0.028 H 
ATOM     70  H29 ILE d   1      29.451  15.016  -6.637  0.00  0.00     0.028 H 
ENDBRANCH  58  67
ENDBRANCH  14  58
ENDBRANCH  11  14
ENDBRANCH   7  10
ENDBRANCH   4   7
ENDBRANCH   1   3
BRANCH   1  71
ATOM     71  C   VAL d   1      22.315  19.856 -11.349  0.00  0.00     0.241 C 
ATOM     72  O   VAL d   1      21.908  20.726 -10.594  0.00  0.00    -0.271 OA
ATOM     73  N   TRP d   1      21.570  19.376 -12.344  0.00  0.00    -0.346 N 
ATOM     74  H45 TRP d   1      21.935  18.653 -12.930  0.00  0.00     0.163 HD
BRANCH  73  75
ATOM     75  CA  TRP d   1      20.217  19.897 -12.590  0.00  0.00     0.093 C 
ATOM     76  H46 TRP d   1      20.256  20.992 -12.687  0.00  0.00     0.088 H 
BRANCH  75  77
ATOM     77  C   TRP d   1      19.332  19.521 -11.402  0.00  0.00     0.241 C 
ATOM     78  O   TRP d   1      19.430  18.411 -10.867  0.00  0.00    -0.271 OA
ATOM     79  N   TYR d   1      18.453  20.432 -10.992  0.00  0.00    -0.346 N 
ATOM     80  H55 TYR d   1      18.382  21.306 -11.472  0.00  0.00     0.163 HD
BRANCH  79  81
ATOM     81  CA  TYR d   1      17.591  20.162  -9.844  0.00  0.00     0.093 C 
ATOM     82  H56 TYR d   1      18.163  19.579  -9.107  0.00  0.00     0.088 H 
BRANCH  81  83
ATOM     83  C   TYR d   1      16.360  19.374 -10.249  0.00  0.00     0.241 C 
ATOM     84  O   TYR d   1      16.054  19.264 -11.439  0.00  0.00    -0.271 OA
ATOM     85  N   LEU d   1      15.666  18.809  -9.263  0.00  0.00    -0.345 N 
ATOM     86  H64 LEU d   1      15.993  18.874  -8.320  0.00  0.00     0.163 HD
BRANCH  85  87
ATOM     87  CA  LEU d   1      14.428  18.094  -9.559  0.00  0.00     0.096 C 
ATOM     88  H65 LEU d   1      14.613  17.313 -10.311  0.00  0.00     0.089 H 
BRANCH  87  89
ATOM     89  C   LEU d   1      13.416  19.126 -10.081  0.00  0.00     0.196 C 
ATOM     90  O   LEU d   1      13.649  20.331  -9.805  0.00  0.00    -0.646 OA
ATOM     91  OXT LEU d   1      12.402  18.707 -10.705  0.00  0.00    -0.646 OA
ENDBRANCH  87  89
BRANCH  87  92
ATOM     92  CB  LEU d   1      13.846  17.477  -8.299  0.00  0.00    -0.034 C 
ATOM     93  H66 LEU d   1      12.876  17.030  -8.561  0.00  0.00     0.037 H 
ATOM     94  H67 LEU d   1      13.692  18.286  -7.569  0.00  0.00     0.037 H 
BRANCH  92  95
ATOM     95  CG  LEU d   1      14.688  16.399  -7.627  0.00  0.00    -0.059 C 
ATOM     96  H68 LEU d   1      15.672  16.812  -7.362  0.00  0.00     0.038 H 
BRANCH  95  97
ATOM     97  CD1 LEU d   1      13.969  15.965  -6.344  0.00  0.00    -0.073 C 
ATOM     98  H69 LEU d   1      14.558  15.185  -5.839  0.00  0.00     0.028 H 
ATOM     99  H70 LEU d   1      12.975  15.567  -6.597  0.00  0.00     0.028 H 
ATOM    100  H71 LEU d   1      13.858  16.831  -5.675  0.00  0.00     0.028 H 
ENDBRANCH  95  97
BRANCH  95 101
ATOM    101  CD2 LEU d   1      14.885  15.260  -8.582  0.00  0.00    -0.073 C 
ATOM    102  H72 LEU d   1      15.403  15.622  -9.482  0.00  0.00     0.028 H 
ATOM    103  H73 LEU d   1      13.906  14.845  -8.864  0.00  0.00     0.028 H 
ATOM    104  H74 LEU d   1      15.490  14.478  -8.100  0.00  0.00     0.028 H 
ENDBRANCH  95 101
ENDBRANCH  92  95
ENDBRANCH  87  92
ENDBRANCH  85  87
ENDBRANCH  81  83
BRANCH  81 105
ATOM    105  CB  TYR d   1      17.130  21.473  -9.201  0.00  0.00    -0.014 C 
ATOM    106  H57 TYR d   1      16.597  21.235  -8.268  0.00  0.00     0.043 H 
ATOM    107  H58 TYR d   1      16.444  21.980  -9.896  0.00  0.00     0.043 H 
BRANCH 105 108
ATOM    108  CG  TYR d   1      18.260  22.411  -8.878  0.00  0.00    -0.056 A 
ATOM    109  CD1 TYR d   1      18.476  23.563  -9.635  0.00  0.00    -0.074 A 
ATOM    110  CE1 TYR d   1      19.528  24.443  -9.319  0.00  0.00    -0.051 A 
ATOM    111  H59 TYR d   1      17.827  23.782 -10.475  0.00  0.00     0.084 H 
ATOM    112  CZ  TYR d   1      20.360  24.145  -8.236  0.00  0.00     0.065 A 
ATOM    113  H61 TYR d   1      19.691  25.339  -9.907  0.00  0.00     0.087 H 
ATOM    114  CE2 TYR d   1      20.161  22.997  -7.485  0.00  0.00    -0.051 A 
ATOM    115  CD2 TYR d   1      19.123  22.145  -7.799  0.00  0.00    -0.074 A 
ATOM    116  H62 TYR d   1      20.819  22.770  -6.654  0.00  0.00     0.087 H 
ATOM    117  H60 TYR d   1      18.969  21.253  -7.203  0.00  0.00     0.084 H 
BRANCH 112 118
ATOM    118  OH  TYR d   1      21.361  25.019  -7.874  0.00  0.00    -0.361 OA
ATOM    119  H63 TYR d   1      22.198  24.570  -7.901  0.00  0.00     0.217 HD
ENDBRANCH 112 118
ENDBRANCH 105 108
ENDBRANCH  81 105
ENDBRANCH  79  81
ENDBRANCH  75  77
BRANCH  75 120
ATOM    120  CB  TRP d   1      19.648  19.295 -13.884  0.00  0.00    -0.012 C 
ATOM    121  H47 TRP d   1      18.660  19.728 -14.099  0.00  0.00     0.044 H 
ATOM    122  H48 TRP d   1      19.556  18.203 -13.784  0.00  0.00     0.044 H 
BRANCH 120 123
ATOM    123  CG  TRP d   1      20.620  19.635 -14.999  0.00  0.00    -0.028 A 
ATOM    124  CD1 TRP d   1      20.661  20.770 -15.701  0.00  0.00    -0.015 A 
ATOM    125  NE1 TRP d   1      21.784  20.676 -16.574  0.00  0.00    -0.365 N 
ATOM    126  H49 TRP d   1      19.969  21.607 -15.622  0.00  0.00     0.112 H 
ATOM    127  CE2 TRP d   1      22.372  19.515 -16.395  0.00  0.00     0.042 A 
ATOM    128  H50 TRP d   1      22.086  21.402 -17.239  0.00  0.00     0.165 HD
ATOM    129  CD2 TRP d   1      21.665  18.794 -15.444  0.00  0.00    -0.002 A 
ATOM    130  CZ2 TRP d   1      23.527  19.031 -17.016  0.00  0.00    -0.056 A 
ATOM    131  CE3 TRP d   1      22.088  17.500 -15.112  0.00  0.00    -0.070 A 
ATOM    132  CZ3 TRP d   1      23.240  17.011 -15.761  0.00  0.00    -0.082 A 
ATOM    133  H51 TRP d   1      21.552  16.900 -14.386  0.00  0.00     0.084 H 
ATOM    134  CH2 TRP d   1      23.928  17.745 -16.665  0.00  0.00    -0.081 A 
ATOM    135  H53 TRP d   1      23.587  16.011 -15.527  0.00  0.00     0.083 H 
ATOM    136  H54 TRP d   1      24.813  17.322 -17.127  0.00  0.00     0.083 H 
ATOM    137  H52 TRP d   1      24.081  19.626 -17.733  0.00  0.00     0.086 H 
ENDBRANCH 120 123
ENDBRANCH  75 120
ENDBRANCH  73  75
ENDBRANCH   1  71
BRANCH   1 138
ATOM    138  CB  VAL d   1      24.343  18.846 -12.460  0.00  0.00    -0.033 C 
ATOM    139  H38 VAL d   1      23.655  18.201 -13.026  0.00  0.00     0.042 H 
BRANCH 138 140
ATOM    140  CG1 VAL d   1      24.624  20.101 -13.274  0.00  0.00    -0.071 C 
ATOM    141  H39 VAL d   1      25.093  19.821 -14.229  0.00  0.00     0.028 H 
ATOM    142  H40 VAL d   1      25.302  20.759 -12.711  0.00  0.00     0.028 H 
ATOM    143  H41 VAL d   1      23.680  20.630 -13.471  0.00  0.00     0.028 H 
ENDBRANCH 138 140
BRANCH 138 144
ATOM    144  CG2 VAL d   1      25.632  18.083 -12.199  0.00  0.00    -0.071 C 
ATOM    145  H42 VAL d   1      25.411  17.180 -11.611  0.00  0.00     0.028 H 
ATOM    146  H43 VAL d   1      26.330  18.723 -11.640  0.00  0.00     0.028 H 
ATOM    147  H44 VAL d   1      26.087  17.793 -13.158  0.00  0.00     0.028 H 
ENDBRANCH 138 144
ENDBRANCH   1 138
TORSDOF 41
