REMARK  10 active torsions:
REMARK  status: ('A' for Active; 'I' for Inactive)
REMARK    1  A    between atoms: C1_1  and  C7_7 
REMARK    2  A    between atoms: C4_4  and  C20_20 
REMARK    3  A    between atoms: C7_7  and  C8_8 
REMARK    4  A    between atoms: C8_8  and  C9_9 
REMARK    5  A    between atoms: C17_17  and  N19_19 
REMARK       I    between atoms: C20_20  and  N22_22 
REMARK    6  A    between atoms: N22_22  and  C23_23 
REMARK    7  A    between atoms: C23_23  and  C24_24 
REMARK    8  A    between atoms: C23_23  and  C29_29 
REMARK    9  A    between atoms: C24_24  and  C25_25 
REMARK   10  A    between atoms: C25_25  and  C26_26 
ROOT
ATOM      1  C1  LYA d   1     -43.224 -49.553   3.610  0.00  0.00    -0.058 A 
ATOM      2  C2  LYA d   1     -41.810 -49.578   3.499  0.00  0.00    -0.076 A 
ATOM      3  C3  LYA d   1     -41.065 -48.370   3.601  0.00  0.00    -0.067 A 
ATOM      4  C4  LYA d   1     -41.720 -47.100   3.823  0.00  0.00     0.032 A 
ATOM      5  C5  LYA d   1     -43.138 -47.114   3.927  0.00  0.00    -0.067 A 
ATOM      6  C6  LYA d   1     -43.879 -48.310   3.827  0.00  0.00    -0.076 A 
ATOM      7  H1  LYA d   1     -41.296 -50.519   3.336  0.00  0.00     0.084 H 
ATOM      8  H2  LYA d   1     -39.985 -48.402   3.510  0.00  0.00     0.085 H 
ATOM      9  H3  LYA d   1     -43.664 -46.180   4.088  0.00  0.00     0.085 H 
ATOM     10  H4  LYA d   1     -44.959 -48.281   3.917  0.00  0.00     0.084 H 
ENDROOT
BRANCH   1  11
ATOM     11  C7  LYA d   1     -44.036 -50.866   3.512  0.00  0.00    -0.037 C 
ATOM     12  H5  LYA d   1     -44.830 -50.825   4.272  0.00  0.00     0.040 H 
ATOM     13  H6  LYA d   1     -43.354 -51.699   3.739  0.00  0.00     0.040 H 
BRANCH  11  14
ATOM     14  C8  LYA d   1     -44.708 -51.166   2.141  0.00  0.00    -0.035 C 
ATOM     15  H7  LYA d   1     -44.814 -52.255   2.033  0.00  0.00     0.040 H 
ATOM     16  H8  LYA d   1     -44.061 -50.779   1.340  0.00  0.00     0.040 H 
BRANCH  14  17
ATOM     17  C9  LYA d   1     -46.089 -50.526   2.004  0.00  0.00    -0.023 A 
ATOM     18  C10 LYA d   1     -47.192 -50.766   2.826  0.00  0.00    -0.014 A 
ATOM     19  N11 LYA d   1     -48.291 -50.004   2.418  0.00  0.00    -0.349 N 
ATOM     20  H9  LYA d   1     -47.196 -51.454   3.671  0.00  0.00     0.112 H 
ATOM     21  C12 LYA d   1     -47.881 -49.277   1.328  0.00  0.00     0.163 A 
ATOM     22  H10 LYA d   1     -49.226 -49.991   2.851  0.00  0.00     0.167 HD
ATOM     23  C13 LYA d   1     -46.522 -49.608   1.078  0.00  0.00     0.087 A 
ATOM     24  N18 LYA d   1     -48.537 -48.314   0.462  0.00  0.00    -0.046 NA
ATOM     25  C14 LYA d   1     -45.801 -48.919  -0.121  0.00  0.00     0.274 A 
ATOM     26  O15 LYA d   1     -44.645 -49.120  -0.439  0.00  0.00    -0.267 OA
ATOM     27  N16 LYA d   1     -46.548 -48.035  -0.846  0.00  0.00    -0.154 N 
ATOM     28  C17 LYA d   1     -47.928 -47.741  -0.535  0.00  0.00     0.702 A 
ATOM     29  H11 LYA d   1     -46.123 -47.572  -1.624  0.00  0.00     0.187 HD
BRANCH  28  30
ATOM     30  N19 LYA d   1     -48.605 -46.844  -1.306  0.00  0.00    -0.233 N 
ATOM     31  H12 LYA d   1     -49.589 -46.624  -1.097  0.00  0.00     0.174 HD
ATOM     32  H13 LYA d   1     -48.132 -46.386  -2.098  0.00  0.00     0.174 HD
ENDBRANCH  28  30
ENDBRANCH  14  17
ENDBRANCH  11  14
ENDBRANCH   1  11
BRANCH   4  33
ATOM     33  C20 LYA d   1     -41.010 -45.749   3.959  0.00  0.00     0.252 C 
ATOM     34  O21 LYA d   1     -41.663 -44.719   4.154  0.00  0.00    -0.268 OA
ATOM     35  N22 LYA d   1     -39.668 -45.737   3.875  0.00  0.00    -0.342 N 
ATOM     36  H14 LYA d   1     -39.221 -46.616   3.708  0.00  0.00     0.163 HD
BRANCH  35  37
ATOM     37  C23 LYA d   1     -38.777 -44.547   4.006  0.00  0.00     0.097 C 
ATOM     38  H15 LYA d   1     -39.409 -43.650   3.932  0.00  0.00     0.089 H 
BRANCH  37  39
ATOM     39  C24 LYA d   1     -38.068 -44.482   5.395  0.00  0.00    -0.028 C 
ATOM     40  H16 LYA d   1     -37.322 -43.675   5.351  0.00  0.00     0.037 H 
ATOM     41  H17 LYA d   1     -37.559 -45.444   5.555  0.00  0.00     0.037 H 
BRANCH  39  42
ATOM     42  C25 LYA d   1     -38.982 -44.217   6.636  0.00  0.00     0.018 C 
ATOM     43  H18 LYA d   1     -39.735 -45.018   6.668  0.00  0.00     0.049 H 
ATOM     44  H19 LYA d   1     -39.482 -43.250   6.477  0.00  0.00     0.049 H 
BRANCH  42  45
ATOM     45  C26 LYA d   1     -38.305 -44.165   8.013  0.00  0.00     0.172 C 
ATOM     46  O27 LYA d   1     -37.198 -43.588   8.138  0.00  0.00    -0.648 OA
ATOM     47  O28 LYA d   1     -38.880 -44.704   8.986  0.00  0.00    -0.648 OA
ENDBRANCH  42  45
ENDBRANCH  39  42
ENDBRANCH  37  39
BRANCH  37  48
ATOM     48  C29 LYA d   1     -37.774 -44.518   2.786  0.00  0.00     0.196 C 
ATOM     49  O30 LYA d   1     -37.512 -43.448   2.157  0.00  0.00    -0.646 OA
ATOM     50  O31 LYA d   1     -37.219 -45.610   2.463  0.00  0.00    -0.646 OA
ENDBRANCH  37  48
ENDBRANCH  35  37
ENDBRANCH   4  33
TORSDOF 10
