REMARK  24 active torsions:
REMARK  status: ('A' for Active; 'I' for Inactive)
REMARK    1  A    between atoms: N_1  and  CA_2 
REMARK    2  A    between atoms: CA_2  and  C_3 
REMARK    3  A    between atoms: CA_2  and  CB_5 
REMARK       I    between atoms: C_3  and  N_9 
REMARK    4  A    between atoms: CB_5  and  CG_6 
REMARK    5  A    between atoms: N_9  and  CA_10 
REMARK    6  A    between atoms: CA_10  and  C_11 
REMARK    7  A    between atoms: CA_10  and  CB_13 
REMARK       I    between atoms: C_11  and  N_17 
REMARK    8  A    between atoms: CB_13  and  CG_14 
REMARK    9  A    between atoms: N_17  and  CA_18 
REMARK   10  A    between atoms: CA_18  and  C_19 
REMARK   11  A    between atoms: CA_18  and  CB_21 
REMARK       I    between atoms: C_19  and  N_27 
REMARK   12  A    between atoms: CB_21  and  CG_22 
REMARK   13  A    between atoms: N_27  and  CA_28 
REMARK   14  A    between atoms: CA_28  and  C_29 
REMARK   15  A    between atoms: CA_28  and  CB_31 
REMARK       I    between atoms: C_29  and  N_35 
REMARK   16  A    between atoms: CB_31  and  CG_32 
REMARK   17  A    between atoms: CG_32  and  CD1_33 
REMARK   18  A    between atoms: CG_32  and  CD2_34 
REMARK   19  A    between atoms: N_35  and  CA_36 
REMARK   20  A    between atoms: CA_36  and  C_37 
REMARK   21  A    between atoms: CA_36  and  CB_39 
REMARK   22  A    between atoms: CB_39  and  CG_40 
REMARK   23  A    between atoms: CG_40  and  CD1_41 
REMARK   24  A    between atoms: CG_40  and  CD2_42 
ROOT
ATOM      1  CA  HIS d   1      43.862  11.033  53.395  0.00  0.00     0.094 C 
ATOM      2  H12 HIS d   1      43.938  12.022  52.919  0.00  0.00     0.088 H 
ENDROOT
BRANCH   1   3
ATOM      3  N   HIS d   1      43.173  11.188  54.671  0.00  0.00    -0.346 N 
ATOM      4  C   ASP d   1      42.417  12.248  54.945  0.00  0.00     0.241 C 
ATOM      5  O   ASP d   1      42.231  13.171  54.148  0.00  0.00    -0.271 OA
ATOM      6  H11 HIS d   1      43.272  10.473  55.364  0.00  0.00     0.163 HD
BRANCH   4   7
ATOM      7  CA  ASP d   1      41.777  12.267  56.330  0.00  0.00     0.098 C 
ATOM      8  H8  ASP d   1      42.522  12.646  57.045  0.00  0.00     0.088 H 
BRANCH   7   9
ATOM      9  N   ASP d   1      40.611  13.140  56.393  0.00  0.00    -0.345 N 
ATOM     10  C   ASP d   1      40.632  14.283  57.074  0.00  0.00     0.249 C 
ATOM     11  O   ASP d   1      41.623  14.683  57.691  0.00  0.00    -0.271 OA
ATOM     12  H7  ASP d   1      39.775  12.873  55.913  0.00  0.00     0.163 HD
BRANCH  10  13
ATOM     13  CA  ASP d   1      39.348  15.104  57.056  0.00  0.00     0.185 C 
ATOM     14  H4  ASP d   1      38.481  14.427  57.090  0.00  0.00     0.100 H 
BRANCH  13  15
ATOM     15  N   ASP d   1      39.315  15.984  58.223  0.00  0.00    -0.066 N 
ATOM     16  H1  ASP d   1      38.466  16.527  58.211  0.00  0.00     0.275 HD
ATOM     17  H2  ASP d   1      40.110  16.603  58.199  0.00  0.00     0.275 HD
ATOM     18  H3  ASP d   1      39.347  15.429  59.064  0.00  0.00     0.275 HD
ENDBRANCH  13  15
BRANCH  13  19
ATOM     19  CB  ASP d   1      39.294  15.927  55.761  0.00  0.00     0.050 C 
ATOM     20  H5  ASP d   1      40.258  16.441  55.631  0.00  0.00     0.052 H 
ATOM     21  H6  ASP d   1      38.490  16.672  55.851  0.00  0.00     0.052 H 
BRANCH  19  22
ATOM     22  CG  ASP d   1      39.029  15.073  54.531  0.00  0.00     0.175 C 
ATOM     23  OD1 ASP d   1      38.568  13.922  54.685  0.00  0.00    -0.648 OA
ATOM     24  OD2 ASP d   1      39.269  15.559  53.406  0.00  0.00    -0.648 OA
ENDBRANCH  19  22
ENDBRANCH  13  19
ENDBRANCH  10  13
ENDBRANCH   7   9
BRANCH   7  25
ATOM     25  CB  ASP d   1      41.395  10.842  56.736  0.00  0.00     0.043 C 
ATOM     26  H9  ASP d   1      41.267  10.809  57.828  0.00  0.00     0.052 H 
ATOM     27  H10 ASP d   1      42.207  10.162  56.441  0.00  0.00     0.052 H 
BRANCH  25  28
ATOM     28  CG  ASP d   1      40.112  10.377  56.083  0.00  0.00     0.175 C 
ATOM     29  OD1 ASP d   1      39.026  10.796  56.543  0.00  0.00    -0.648 OA
ATOM     30  OD2 ASP d   1      40.194   9.602  55.106  0.00  0.00    -0.648 OA
ENDBRANCH  25  28
ENDBRANCH   7  25
ENDBRANCH   4   7
ENDBRANCH   1   3
BRANCH   1  31
ATOM     31  C   HIS d   1      43.112  10.099  52.454  0.00  0.00     0.241 C 
ATOM     32  O   HIS d   1      42.194   9.388  52.864  0.00  0.00    -0.271 OA
ATOM     33  N   LEU d   1      43.519  10.106  51.187  0.00  0.00    -0.346 N 
ATOM     34  H18 LEU d   1      44.270  10.712  50.924  0.00  0.00     0.163 HD
BRANCH  33  35
ATOM     35  CA  LEU d   1      42.906   9.258  50.169  0.00  0.00     0.089 C 
ATOM     36  H19 LEU d   1      41.811   9.328  50.250  0.00  0.00     0.087 H 
BRANCH  35  37
ATOM     37  C   LEU d   1      43.333   7.806  50.389  0.00  0.00     0.241 C 
ATOM     38  O   LEU d   1      44.469   7.545  50.795  0.00  0.00    -0.271 OA
ATOM     39  N   LEU d   1      42.422   6.869  50.122  0.00  0.00    -0.348 N 
ATOM     40  H29 LEU d   1      41.522   7.152  49.790  0.00  0.00     0.163 HD
BRANCH  39  41
ATOM     41  CA  LEU d   1      42.692   5.440  50.297  0.00  0.00     0.063 C 
ATOM     42  H30 LEU d   1      42.605   5.218  51.371  0.00  0.00     0.083 H 
BRANCH  41  43
ATOM     43  C   LEU d   1      44.080   5.010  49.844  0.00  0.00     0.109 C 
ATOM     44  O   LEU d   1      44.769   5.823  49.195  0.00  0.00    -0.305 OA
ATOM     45  H31 LEU d   1      44.462   4.018  50.080  0.00  0.00     0.146 H 
ENDBRANCH  41  43
BRANCH  41  46
ATOM     46  CB  LEU d   1      41.656   4.603  49.543  0.00  0.00    -0.037 C 
ATOM     47  H32 LEU d   1      42.095   3.608  49.376  0.00  0.00     0.037 H 
ATOM     48  H33 LEU d   1      41.479   5.093  48.574  0.00  0.00     0.037 H 
BRANCH  46  49
ATOM     49  CG  LEU d   1      40.297   4.397  50.205  0.00  0.00    -0.059 C 
ATOM     50  H34 LEU d   1      39.817   5.374  50.362  0.00  0.00     0.038 H 
BRANCH  49  51
ATOM     51  CD1 LEU d   1      39.417   3.550  49.292  0.00  0.00    -0.073 C 
ATOM     52  H35 LEU d   1      38.436   3.399  49.766  0.00  0.00     0.028 H 
ATOM     53  H36 LEU d   1      39.896   2.575  49.122  0.00  0.00     0.028 H 
ATOM     54  H37 LEU d   1      39.284   4.066  48.329  0.00  0.00     0.028 H 
ENDBRANCH  49  51
BRANCH  49  55
ATOM     55  CD2 LEU d   1      40.487   3.713  51.556  0.00  0.00    -0.073 C 
ATOM     56  H38 LEU d   1      41.124   4.340  52.198  0.00  0.00     0.028 H 
ATOM     57  H39 LEU d   1      40.967   2.734  51.407  0.00  0.00     0.028 H 
ATOM     58  H40 LEU d   1      39.508   3.572  52.037  0.00  0.00     0.028 H 
ENDBRANCH  49  55
ENDBRANCH  46  49
ENDBRANCH  41  46
ENDBRANCH  39  41
ENDBRANCH  35  37
BRANCH  35  59
ATOM     59  CB  LEU d   1      43.337   9.732  48.777  0.00  0.00    -0.035 C 
ATOM     60  H20 LEU d   1      44.435   9.674  48.735  0.00  0.00     0.037 H 
ATOM     61  H21 LEU d   1      43.021  10.781  48.675  0.00  0.00     0.037 H 
BRANCH  59  62
ATOM     62  CG  LEU d   1      42.793   8.971  47.567  0.00  0.00    -0.059 C 
ATOM     63  H22 LEU d   1      43.145   7.930  47.611  0.00  0.00     0.038 H 
BRANCH  62  64
ATOM     64  CD1 LEU d   1      41.274   8.974  47.595  0.00  0.00    -0.073 C 
ATOM     65  H23 LEU d   1      40.890   8.425  46.722  0.00  0.00     0.028 H 
ATOM     66  H24 LEU d   1      40.909  10.011  47.566  0.00  0.00     0.028 H 
ATOM     67  H25 LEU d   1      40.923   8.488  48.517  0.00  0.00     0.028 H 
ENDBRANCH  62  64
BRANCH  62  68
ATOM     68  CD2 LEU d   1      43.316   9.612  46.286  0.00  0.00    -0.073 C 
ATOM     69  H26 LEU d   1      44.416   9.597  46.291  0.00  0.00     0.028 H 
ATOM     70  H27 LEU d   1      42.964  10.652  46.226  0.00  0.00     0.028 H 
ATOM     71  H28 LEU d   1      42.946   9.049  45.417  0.00  0.00     0.028 H 
ENDBRANCH  62  68
ENDBRANCH  59  62
ENDBRANCH  35  59
ENDBRANCH  33  35
ENDBRANCH   1  31
BRANCH   1  72
ATOM     72  CB  HIS d   1      45.272  10.484  53.627  0.00  0.00     0.002 C 
ATOM     73  H13 HIS d   1      45.781  10.413  52.654  0.00  0.00     0.046 H 
ATOM     74  H14 HIS d   1      45.185   9.481  54.069  0.00  0.00     0.046 H 
BRANCH  72  75
ATOM     75  CG  HIS d   1      46.109  11.329  54.536  0.00  0.00     0.030 A 
ATOM     76  ND1 HIS d   1      46.412  12.646  54.261  0.00  0.00    -0.353 N 
ATOM     77  CE1 HIS d   1      47.161  13.136  55.233  0.00  0.00     0.063 A 
ATOM     78  H15 HIS d   1      46.103  13.166  53.428  0.00  0.00     0.166 HD
ATOM     79  NE2 HIS d   1      47.355  12.185  56.129  0.00  0.00    -0.254 NA
ATOM     80  H17 HIS d   1      47.552  14.151  55.286  0.00  0.00     0.143 H 
ATOM     81  CD2 HIS d   1      46.708  11.044  55.717  0.00  0.00     0.025 A 
ATOM     82  H16 HIS d   1      46.682  10.090  56.242  0.00  0.00     0.117 H 
ENDBRANCH  72  75
ENDBRANCH   1  72
TORSDOF 24
