REMARK  10 active torsions:
REMARK  status: ('A' for Active; 'I' for Inactive)
REMARK    1  A    between atoms: C4'_2  and  C8_14 
REMARK    2  A    between atoms: C1'_5  and  C9_7 
REMARK       I    between atoms: C9_7  and  N_9 
REMARK    3  A    between atoms: N_9  and  CA_10 
REMARK    4  A    between atoms: CA_10  and  CB_11 
REMARK    5  A    between atoms: CA_10  and  C_17 
REMARK    6  A    between atoms: CB_11  and  CG1_12 
REMARK    7  A    between atoms: CB_11  and  CG2_13 
REMARK    8  A    between atoms: C8_14  and  C7_15 
REMARK    9  A    between atoms: C7_15  and  C5_16 
REMARK   10  A    between atoms: C2_27  and  N2_29 
ROOT
ATOM      1  C5' LYD d   1      16.271  14.140  34.844  0.00  0.00    -0.076 A 
ATOM      2  C4' LYD d   1      15.979  13.960  33.475  0.00  0.00    -0.058 A 
ATOM      3  C3' LYD d   1      14.672  13.652  33.082  0.00  0.00    -0.076 A 
ATOM      4  C2' LYD d   1      13.681  13.513  34.062  0.00  0.00    -0.067 A 
ATOM      5  C1' LYD d   1      13.966  13.674  35.438  0.00  0.00     0.032 A 
ATOM      6  C6' LYD d   1      15.272  13.998  35.820  0.00  0.00    -0.067 A 
ATOM      7  H1  LYD d   1      17.281  14.392  35.146  0.00  0.00     0.084 H 
ATOM      8  H2  LYD d   1      14.430  13.523  32.033  0.00  0.00     0.084 H 
ATOM      9  H3  LYD d   1      12.668  13.276  33.758  0.00  0.00     0.085 H 
ATOM     10  H4  LYD d   1      15.512  14.139  36.868  0.00  0.00     0.085 H 
ENDROOT
BRANCH   2  11
ATOM     11  C8  LYD d   1      17.085  14.100  32.432  0.00  0.00    -0.037 C 
ATOM     12  H14 LYD d   1      16.878  13.408  31.603  0.00  0.00     0.040 H 
ATOM     13  H15 LYD d   1      18.046  13.836  32.899  0.00  0.00     0.040 H 
BRANCH  11  14
ATOM     14  C7  LYD d   1      17.186  15.534  31.867  0.00  0.00    -0.035 C 
ATOM     15  H16 LYD d   1      18.003  15.571  31.131  0.00  0.00     0.040 H 
ATOM     16  H17 LYD d   1      17.403  16.229  32.692  0.00  0.00     0.040 H 
BRANCH  14  17
ATOM     17  C5  LYD d   1      15.895  15.959  31.192  0.00  0.00    -0.023 A 
ATOM     18  C6  LYD d   1      15.461  15.432  30.002  0.00  0.00    -0.014 A 
ATOM     19  N7  LYD d   1      14.346  16.166  29.555  0.00  0.00    -0.349 N 
ATOM     20  H18 LYD d   1      15.907  14.583  29.486  0.00  0.00     0.112 H 
ATOM     21  C7A LYD d   1      14.115  17.165  30.480  0.00  0.00     0.163 A 
ATOM     22  H19 LYD d   1      13.803  15.991  28.697  0.00  0.00     0.167 HD
ATOM     23  C4A LYD d   1      15.016  17.052  31.523  0.00  0.00     0.087 A 
ATOM     24  N1  LYD d   1      13.095  18.144  30.424  0.00  0.00    -0.046 NA
ATOM     25  C4  LYD d   1      14.964  17.984  32.619  0.00  0.00     0.274 C 
ATOM     26  O4  LYD d   1      15.745  18.052  33.587  0.00  0.00    -0.267 OA
ATOM     27  N3  LYD d   1      13.947  18.976  32.533  0.00  0.00    -0.154 N 
ATOM     28  C2  LYD d   1      12.975  19.019  31.505  0.00  0.00     0.702 C 
ATOM     29  H20 LYD d   1      13.918  19.683  33.239  0.00  0.00     0.187 HD
BRANCH  28  30
ATOM     30  N2  LYD d   1      11.876  19.855  31.636  0.00  0.00    -0.233 N 
ATOM     31  H21 LYD d   1      11.165  19.891  30.892  0.00  0.00     0.174 HD
ATOM     32  H22 LYD d   1      11.771  20.440  32.477  0.00  0.00     0.174 HD
ENDBRANCH  28  30
ENDBRANCH  14  17
ENDBRANCH  11  14
ENDBRANCH   2  11
BRANCH   5  33
ATOM     33  C9  LYD d   1      12.947  13.310  36.447  0.00  0.00     0.252 C 
ATOM     34  O9  LYD d   1      11.744  13.130  36.177  0.00  0.00    -0.268 OA
ATOM     35  N   LYD d   1      13.400  13.130  37.729  0.00  0.00    -0.342 N 
ATOM     36  H5  LYD d   1      14.367  13.295  37.922  0.00  0.00     0.163 HD
BRANCH  35  37
ATOM     37  CA  LYD d   1      12.517  12.701  38.843  0.00  0.00     0.099 C 
ATOM     38  H6  LYD d   1      11.486  13.000  38.605  0.00  0.00     0.090 H 
BRANCH  37  39
ATOM     39  CB  LYD d   1      12.555  11.173  39.013  0.00  0.00    -0.032 C 
ATOM     40  H7  LYD d   1      13.593  10.882  39.233  0.00  0.00     0.042 H 
BRANCH  39  41
ATOM     41  CG1 LYD d   1      12.131  10.513  37.711  0.00  0.00    -0.071 C 
ATOM     42  H8  LYD d   1      12.157   9.420  37.829  0.00  0.00     0.028 H 
ATOM     43  H9  LYD d   1      12.820  10.812  36.907  0.00  0.00     0.028 H 
ATOM     44  H10 LYD d   1      11.109  10.830  37.455  0.00  0.00     0.028 H 
ENDBRANCH  39  41
BRANCH  39  45
ATOM     45  CG2 LYD d   1      11.664  10.663  40.170  0.00  0.00    -0.071 C 
ATOM     46  H11 LYD d   1      11.974  11.143  41.110  0.00  0.00     0.028 H 
ATOM     47  H12 LYD d   1      11.771   9.572  40.262  0.00  0.00     0.028 H 
ATOM     48  H13 LYD d   1      10.613  10.912  39.961  0.00  0.00     0.028 H 
ENDBRANCH  39  45
ENDBRANCH  37  39
BRANCH  37  49
ATOM     49  C   LYD d   1      12.929  13.375  40.123  0.00  0.00     0.197 C 
ATOM     50  OX1 LYD d   1      14.128  13.709  40.186  0.00  0.00    -0.646 OA
ATOM     51  OX2 LYD d   1      12.091  13.504  41.034  0.00  0.00    -0.646 OA
ENDBRANCH  37  49
ENDBRANCH  35  37
ENDBRANCH   5  33
TORSDOF 10
