REMARK  1 active torsions:
REMARK  status: ('A' for Active; 'I' for Inactive)
REMARK    1  A    between atoms: C6_5  and  C7_6 
ROOT
ATOM      1  N1  MOL d   1       1.803  32.306   7.312  0.00  0.00    -0.276 N 
ATOM      2  N3  MOL d   1       0.645  32.788   7.881  0.00  0.00    -0.173 NA
ATOM      3  C4  MOL d   1       0.168  31.899   8.610  0.00  0.00     0.096 A 
ATOM      4  C5  MOL d   1       0.864  30.842   8.618  0.00  0.00     0.006 A 
ATOM      5  C6  MOL d   1       1.907  31.064   7.816  0.00  0.00     0.069 A 
ATOM      6  C17 MOL d   1       0.318  29.709   9.502  0.00  0.00    -0.012 A 
ATOM      7  C20 MOL d   1      -0.973  30.537  10.007  0.00  0.00    -0.041 A 
ATOM      8  C21 MOL d   1      -1.023  31.810   9.468  0.00  0.00     0.002 A 
ATOM      9  C22 MOL d   1      -2.032  32.727   9.739  0.00  0.00    -0.070 A 
ATOM     10  C24 MOL d   1      -3.039  32.304  10.624  0.00  0.00    -0.082 A 
ATOM     11  C26 MOL d   1      -3.006  31.007  11.187  0.00  0.00    -0.082 A 
ATOM     12  C28 MOL d   1      -1.967  30.105  10.882  0.00  0.00    -0.076 A 
ATOM     13  H1  MOL d   1       2.438  32.783   6.657  0.00  0.00     0.189 HD
ATOM     14  H6  MOL d   1       1.000  29.436  10.321  0.00  0.00     0.047 H 
ATOM     15  H7  MOL d   1       0.053  28.808   8.930  0.00  0.00     0.047 H 
ATOM     16  H8  MOL d   1      -2.042  33.715   9.292  0.00  0.00     0.084 H 
ATOM     17  H9  MOL d   1      -3.849  32.979  10.877  0.00  0.00     0.083 H 
ATOM     18  H10 MOL d   1      -3.794  30.701  11.865  0.00  0.00     0.083 H 
ATOM     19  H11 MOL d   1      -1.942  29.111  11.313  0.00  0.00     0.084 H 
ENDROOT
BRANCH   5  20
ATOM     20  C7  MOL d   1       3.017  30.083   7.516  0.00  0.00    -0.005 A 
ATOM     21  C8  MOL d   1       3.044  28.832   8.130  0.00  0.00    -0.054 A 
ATOM     22  C10 MOL d   1       4.086  27.947   7.838  0.00  0.00     0.003 A 
ATOM     23  H2  MOL d   1       2.264  28.548   8.827  0.00  0.00     0.087 H 
ATOM     24  N12 MOL d   1       5.063  28.293   6.965  0.00  0.00    -0.273 NA
ATOM     25  H3  MOL d   1       4.113  26.974   8.315  0.00  0.00     0.114 H 
ATOM     26  C13 MOL d   1       5.055  29.504   6.364  0.00  0.00     0.003 A 
ATOM     27  C15 MOL d   1       4.034  30.422   6.625  0.00  0.00    -0.054 A 
ATOM     28  H4  MOL d   1       5.848  29.765   5.673  0.00  0.00     0.114 H 
ATOM     29  H5  MOL d   1       4.033  31.390   6.138  0.00  0.00     0.087 H 
ENDBRANCH   5  20
TORSDOF 1
