REMARK WARNING: 32 MAX_TORS EXCEEDED!!!
REMARK  66 active torsions:
REMARK  status: ('A' for Active; 'I' for Inactive)
REMARK    1  A    between atoms: CA_2  and  C_3 
REMARK       I    between atoms: C_3  and  N_8 
REMARK    2  A    between atoms: N_8  and  CA_9 
REMARK    3  A    between atoms: CA_9  and  C_10 
REMARK    4  A    between atoms: CA_9  and  CB_12 
REMARK       I    between atoms: C_10  and  N_17 
REMARK    5  A    between atoms: CB_12  and  CG_13 
REMARK    6  A    between atoms: CG_13  and  CD_14 
REMARK    7  A    between atoms: CD_14  and  CE_15 
REMARK    8  A    between atoms: CE_15  and  NZ_16 
REMARK    9  A    between atoms: N_17  and  CA_18 
REMARK   10  A    between atoms: CA_18  and  C_19 
REMARK   11  A    between atoms: CA_18  and  CB_21 
REMARK       I    between atoms: C_19  and  N_29 
REMARK   12  A    between atoms: CB_21  and  CG_22 
REMARK   13  A    between atoms: CZ_27  and  OH_28 
REMARK   14  A    between atoms: N_29  and  CA_30 
REMARK   15  A    between atoms: CA_30  and  C_31 
REMARK   16  A    between atoms: CA_30  and  CB_33 
REMARK       I    between atoms: C_31  and  N_36 
REMARK   17  A    between atoms: CB_33  and  CG1_34 
REMARK   18  A    between atoms: CB_33  and  CG2_35 
REMARK   19  A    between atoms: N_36  and  CA_37 
REMARK   20  A    between atoms: CA_37  and  C_38 
REMARK   21  A    between atoms: CA_37  and  CB_40 
REMARK       I    between atoms: C_38  and  N_45 
REMARK   22  A    between atoms: CB_40  and  CG_41 
REMARK   23  A    between atoms: CG_41  and  CD_42 
REMARK   24  A    between atoms: CD_42  and  CE_43 
REMARK   25  A    between atoms: CE_43  and  NZ_44 
REMARK   26  A    between atoms: N_45  and  CA_46 
REMARK   27  A    between atoms: CA_46  and  C_47 
REMARK   28  A    between atoms: CA_46  and  CB_49 
REMARK       I    between atoms: C_47  and  N_54 
REMARK   29  A    between atoms: CB_49  and  CG_50 
REMARK   30  A    between atoms: CG_50  and  CD_51 
REMARK       I    between atoms: CD_51  and  NE2_53 
REMARK   31  A    between atoms: N_54  and  CA_55 
REMARK   32  A    between atoms: CA_55  and  C_56 
REMARK   33  A    between atoms: CA_55  and  CB_58 
REMARK       I    between atoms: C_56  and  N_62 
REMARK   34  A    between atoms: CB_58  and  CG_59 
REMARK       I    between atoms: CG_59  and  ND2_61 
REMARK   35  A    between atoms: N_62  and  CA_63 
REMARK   36  A    between atoms: CA_63  and  C_64 
REMARK   37  A    between atoms: CA_63  and  CB_66 
REMARK       I    between atoms: C_64  and  N_69 
REMARK   38  A    between atoms: CB_66  and  OG1_67 
REMARK   39  A    between atoms: CB_66  and  CG2_68 
REMARK   40  A    between atoms: N_69  and  CA_70 
REMARK   41  A    between atoms: CA_70  and  C_71 
REMARK   42  A    between atoms: CA_70  and  CB_73 
REMARK       I    between atoms: C_71  and  N_77 
REMARK   43  A    between atoms: CB_73  and  CG_74 
REMARK   44  A    between atoms: CG_74  and  CD1_75 
REMARK   45  A    between atoms: CG_74  and  CD2_76 
REMARK   46  A    between atoms: N_77  and  CA_78 
REMARK   47  A    between atoms: CA_78  and  C_79 
REMARK   48  A    between atoms: CA_78  and  CB_81 
REMARK       I    between atoms: C_79  and  N_86 
REMARK   49  A    between atoms: CB_81  and  CG_82 
REMARK   50  A    between atoms: CG_82  and  CD_83 
REMARK   51  A    between atoms: CD_83  and  CE_84 
REMARK   52  A    between atoms: CE_84  and  NZ_85 
REMARK   53  A    between atoms: N_86  and  CA_87 
REMARK   54  A    between atoms: CA_87  and  C_88 
REMARK   55  A    between atoms: CA_87  and  CB_90 
REMARK       I    between atoms: C_88  and  N_94 
REMARK   56  A    between atoms: CB_90  and  CG_91 
REMARK   57  A    between atoms: CG_91  and  CD1_92 
REMARK   58  A    between atoms: CG_91  and  CD2_93 
REMARK   59  A    between atoms: N_94  and  CA_95 
REMARK   60  A    between atoms: CA_95  and  C_96 
REMARK   61  A    between atoms: CA_95  and  CB_98 
REMARK       I    between atoms: C_96  and  N_99 
REMARK   62  A    between atoms: N_99  and  CA_100 
REMARK   63  A    between atoms: CA_100  and  C_101 
REMARK   64  A    between atoms: CA_100  and  CB_103 
REMARK   65  A    between atoms: CB_103  and  OG1_104 
REMARK   66  A    between atoms: CB_103  and  CG2_105 
ROOT
ATOM      1  C   GLN d   1     -26.727  48.718   9.293  0.00  0.00     0.241 C 
ATOM      2  O   GLN d   1     -26.461  48.083   8.274  0.00  0.00    -0.271 OA
ATOM      3  N   ASN d   1     -27.956  49.116   9.569  0.00  0.00    -0.346 N 
ATOM      4  H62 ASN d   1     -28.152  49.613  10.414  0.00  0.00     0.163 HD
ENDROOT
BRANCH   1   5
ATOM      5  CA  GLN d   1     -25.640  49.047  10.298  0.00  0.00     0.090 C 
ATOM      6  H55 GLN d   1     -26.056  49.206  11.303  0.00  0.00     0.087 H 
BRANCH   5   7
ATOM      7  N   GLN d   1     -24.788  47.868  10.265  0.00  0.00    -0.346 N 
ATOM      8  C   LYS d   1     -24.888  46.920  11.188  0.00  0.00     0.241 C 
ATOM      9  O   LYS d   1     -25.652  46.997  12.150  0.00  0.00    -0.271 OA
ATOM     10  H54 GLN d   1     -24.114  47.770   9.533  0.00  0.00     0.163 HD
BRANCH   8  11
ATOM     11  CA  LYS d   1     -23.996  45.698  10.990  0.00  0.00     0.089 C 
ATOM     12  H42 LYS d   1     -22.986  46.033  10.710  0.00  0.00     0.087 H 
BRANCH  11  13
ATOM     13  N   LYS d   1     -23.888  44.876  12.200  0.00  0.00    -0.346 N 
ATOM     14  C   VAL d   1     -22.866  44.997  13.043  0.00  0.00     0.241 C 
ATOM     15  O   VAL d   1     -21.956  45.808  12.886  0.00  0.00    -0.271 OA
ATOM     16  H41 LYS d   1     -24.603  44.205  12.397  0.00  0.00     0.163 HD
BRANCH  14  17
ATOM     17  CA  VAL d   1     -22.877  44.082  14.259  0.00  0.00     0.092 C 
ATOM     18  H33 VAL d   1     -23.589  43.263  14.079  0.00  0.00     0.088 H 
BRANCH  17  19
ATOM     19  N   VAL d   1     -21.566  43.498  14.506  0.00  0.00    -0.346 N 
ATOM     20  C   TYR d   1     -21.375  42.186  14.439  0.00  0.00     0.241 C 
ATOM     21  O   TYR d   1     -22.280  41.393  14.179  0.00  0.00    -0.271 OA
ATOM     22  H32 VAL d   1     -20.796  44.096  14.730  0.00  0.00     0.163 HD
BRANCH  20  23
ATOM     23  CA  TYR d   1     -19.956  41.687  14.714  0.00  0.00     0.093 C 
ATOM     24  H24 TYR d   1     -19.391  42.475  15.233  0.00  0.00     0.088 H 
BRANCH  23  25
ATOM     25  N   TYR d   1     -19.999  40.493  15.564  0.00  0.00    -0.346 N 
ATOM     26  C   LYS d   1     -20.402  40.526  16.836  0.00  0.00     0.241 C 
ATOM     27  O   LYS d   1     -20.735  41.561  17.409  0.00  0.00    -0.271 OA
ATOM     28  H23 TYR d   1     -19.714  39.617  15.174  0.00  0.00     0.163 HD
BRANCH  26  29
ATOM     29  CA  LYS d   1     -20.421  39.182  17.570  0.00  0.00     0.089 C 
ATOM     30  H11 LYS d   1     -20.000  38.434  16.882  0.00  0.00     0.087 H 
BRANCH  29  31
ATOM     31  N   LYS d   1     -19.627  39.140  18.787  0.00  0.00    -0.346 N 
ATOM     32  C   PRO d   1     -18.455  38.507  18.834  0.00  0.00     0.249 C 
ATOM     33  O   PRO d   1     -17.944  37.945  17.855  0.00  0.00    -0.271 OA
ATOM     34  H10 LYS d   1     -19.968  39.597  19.608  0.00  0.00     0.163 HD
BRANCH  32  35
ATOM     35  CA  PRO d   1     -17.750  38.523  20.190  0.00  0.00     0.178 C 
ATOM     36  N   PRO d   1     -17.477  37.148  20.674  0.00  0.00    -0.062 N 
ATOM     37  CD  PRO d   1     -16.048  37.019  21.011  0.00  0.00     0.083 C 
ATOM     38  H1  PRO d   1     -17.713  36.485  19.952  0.00  0.00     0.278 HD
ATOM     39  H2  PRO d   1     -18.033  36.964  21.494  0.00  0.00     0.278 HD
ATOM     40  CG  PRO d   1     -15.613  38.497  21.170  0.00  0.00    -0.040 C 
ATOM     41  H8  PRO d   1     -15.491  36.524  20.202  0.00  0.00     0.075 H 
ATOM     42  H9  PRO d   1     -15.908  36.459  21.948  0.00  0.00     0.075 H 
ATOM     43  CB  PRO d   1     -16.408  39.239  20.102  0.00  0.00    -0.028 C 
ATOM     44  H6  PRO d   1     -15.864  38.871  22.173  0.00  0.00     0.035 H 
ATOM     45  H7  PRO d   1     -14.532  38.606  20.998  0.00  0.00     0.035 H 
ATOM     46  H4  PRO d   1     -16.504  40.309  20.340  0.00  0.00     0.036 H 
ATOM     47  H5  PRO d   1     -15.953  39.124  19.107  0.00  0.00     0.036 H 
ATOM     48  H3  PRO d   1     -18.395  39.043  20.914  0.00  0.00     0.099 H 
ENDBRANCH  32  35
ENDBRANCH  29  31
BRANCH  29  49
ATOM     49  CB  LYS d   1     -21.864  38.777  17.890  0.00  0.00    -0.038 C 
ATOM     50  H12 LYS d   1     -22.370  39.624  18.376  0.00  0.00     0.036 H 
ATOM     51  H13 LYS d   1     -21.846  37.917  18.576  0.00  0.00     0.036 H 
BRANCH  49  52
ATOM     52  CG  LYS d   1     -22.642  38.393  16.647  0.00  0.00    -0.061 C 
ATOM     53  H14 LYS d   1     -21.972  37.837  15.974  0.00  0.00     0.033 H 
ATOM     54  H15 LYS d   1     -22.980  39.314  16.149  0.00  0.00     0.033 H 
BRANCH  52  55
ATOM     55  CD  LYS d   1     -23.860  37.527  16.939  0.00  0.00    -0.043 C 
ATOM     56  H16 LYS d   1     -24.706  38.168  17.228  0.00  0.00     0.035 H 
ATOM     57  H17 LYS d   1     -23.629  36.832  17.760  0.00  0.00     0.035 H 
BRANCH  55  58
ATOM     58  CE  LYS d   1     -24.225  36.734  15.685  0.00  0.00     0.080 C 
ATOM     59  H18 LYS d   1     -23.398  36.048  15.451  0.00  0.00     0.075 H 
ATOM     60  H19 LYS d   1     -24.364  37.439  14.852  0.00  0.00     0.075 H 
BRANCH  58  61
ATOM     61  NZ  LYS d   1     -25.468  35.940  15.845  0.00  0.00    -0.079 N 
ATOM     62  H20 LYS d   1     -25.659  35.440  14.991  0.00  0.00     0.274 HD
ATOM     63  H21 LYS d   1     -26.237  36.558  16.052  0.00  0.00     0.274 HD
ATOM     64  H22 LYS d   1     -25.352  35.283  16.601  0.00  0.00     0.274 HD
ENDBRANCH  58  61
ENDBRANCH  55  58
ENDBRANCH  52  55
ENDBRANCH  49  52
ENDBRANCH  29  49
ENDBRANCH  26  29
ENDBRANCH  23  25
BRANCH  23  65
ATOM     65  CB  TYR d   1     -19.263  41.368  13.380  0.00  0.00    -0.014 C 
ATOM     66  H25 TYR d   1     -19.718  41.994  12.598  0.00  0.00     0.043 H 
ATOM     67  H26 TYR d   1     -19.438  40.307  13.148  0.00  0.00     0.043 H 
BRANCH  65  68
ATOM     68  CG  TYR d   1     -17.767  41.614  13.372  0.00  0.00    -0.056 A 
ATOM     69  CD1 TYR d   1     -17.260  42.907  13.412  0.00  0.00    -0.074 A 
ATOM     70  CE1 TYR d   1     -15.887  43.147  13.438  0.00  0.00    -0.051 A 
ATOM     71  H27 TYR d   1     -17.946  43.746  13.423  0.00  0.00     0.084 H 
ATOM     72  CZ  TYR d   1     -15.002  42.088  13.424  0.00  0.00     0.065 A 
ATOM     73  H29 TYR d   1     -15.515  44.165  13.469  0.00  0.00     0.087 H 
ATOM     74  CE2 TYR d   1     -15.474  40.784  13.378  0.00  0.00    -0.051 A 
ATOM     75  CD2 TYR d   1     -16.857  40.553  13.352  0.00  0.00    -0.074 A 
ATOM     76  H30 TYR d   1     -14.780  39.951  13.362  0.00  0.00     0.087 H 
ATOM     77  H28 TYR d   1     -17.227  39.535  13.316  0.00  0.00     0.084 H 
BRANCH  72  78
ATOM     78  OH  TYR d   1     -13.652  42.348  13.473  0.00  0.00    -0.361 OA
ATOM     79  H31 TYR d   1     -13.512  43.287  13.500  0.00  0.00     0.217 HD
ENDBRANCH  72  78
ENDBRANCH  65  68
ENDBRANCH  23  65
ENDBRANCH  20  23
ENDBRANCH  17  19
BRANCH  17  80
ATOM     80  CB  VAL d   1     -23.355  44.901  15.469  0.00  0.00    -0.033 C 
ATOM     81  H34 VAL d   1     -22.626  45.699  15.672  0.00  0.00     0.042 H 
BRANCH  80  82
ATOM     82  CG1 VAL d   1     -24.701  45.528  15.171  0.00  0.00    -0.071 C 
ATOM     83  H35 VAL d   1     -25.035  46.111  16.042  0.00  0.00     0.028 H 
ATOM     84  H36 VAL d   1     -25.435  44.737  14.957  0.00  0.00     0.028 H 
ATOM     85  H37 VAL d   1     -24.611  46.191  14.298  0.00  0.00     0.028 H 
ENDBRANCH  80  82
BRANCH  80  86
ATOM     86  CG2 VAL d   1     -23.457  44.004  16.688  0.00  0.00    -0.071 C 
ATOM     87  H38 VAL d   1     -22.475  43.554  16.895  0.00  0.00     0.028 H 
ATOM     88  H39 VAL d   1     -24.192  43.208  16.497  0.00  0.00     0.028 H 
ATOM     89  H40 VAL d   1     -23.778  44.599  17.555  0.00  0.00     0.028 H 
ENDBRANCH  80  86
ENDBRANCH  17  80
ENDBRANCH  14  17
ENDBRANCH  11  13
BRANCH  11  90
ATOM     90  CB  LYS d   1     -24.601  44.890   9.838  0.00  0.00    -0.038 C 
ATOM     91  H43 LYS d   1     -24.183  43.873   9.867  0.00  0.00     0.036 H 
ATOM     92  H44 LYS d   1     -24.324  45.373   8.889  0.00  0.00     0.036 H 
BRANCH  90  93
ATOM     93  CG  LYS d   1     -26.133  44.789   9.905  0.00  0.00    -0.061 C 
ATOM     94  H45 LYS d   1     -26.551  45.793  10.069  0.00  0.00     0.033 H 
ATOM     95  H46 LYS d   1     -26.412  44.134  10.744  0.00  0.00     0.033 H 
BRANCH  93  96
ATOM     96  CD  LYS d   1     -26.709  44.218   8.619  0.00  0.00    -0.043 C 
ATOM     97  H47 LYS d   1     -26.423  43.158   8.543  0.00  0.00     0.035 H 
ATOM     98  H48 LYS d   1     -26.289  44.773   7.767  0.00  0.00     0.035 H 
BRANCH  96  99
ATOM     99  CE  LYS d   1     -28.222  44.320   8.570  0.00  0.00     0.080 C 
ATOM    100  H49 LYS d   1     -28.569  44.008   7.574  0.00  0.00     0.075 H 
ATOM    101  H50 LYS d   1     -28.516  45.364   8.750  0.00  0.00     0.075 H 
BRANCH  99 102
ATOM    102  NZ  LYS d   1     -28.855  43.461   9.589  0.00  0.00    -0.079 N 
ATOM    103  H51 LYS d   1     -29.857  43.552   9.530  0.00  0.00     0.274 HD
ATOM    104  H52 LYS d   1     -28.546  43.744  10.506  0.00  0.00     0.274 HD
ATOM    105  H53 LYS d   1     -28.595  42.501   9.428  0.00  0.00     0.274 HD
ENDBRANCH  99 102
ENDBRANCH  96  99
ENDBRANCH  93  96
ENDBRANCH  90  93
ENDBRANCH  11  90
ENDBRANCH   8  11
ENDBRANCH   5   7
BRANCH   5 106
ATOM    106  CB  GLN d   1     -24.883  50.295   9.847  0.00  0.00    -0.030 C 
ATOM    107  H56 GLN d   1     -25.604  50.978   9.373  0.00  0.00     0.037 H 
ATOM    108  H57 GLN d   1     -24.129  49.987   9.107  0.00  0.00     0.037 H 
BRANCH 106 109
ATOM    109  CG  GLN d   1     -24.170  51.058  10.958  0.00  0.00     0.011 C 
ATOM    110  H58 GLN d   1     -23.650  51.920  10.515  0.00  0.00     0.047 H 
ATOM    111  H59 GLN d   1     -23.435  50.389  11.429  0.00  0.00     0.047 H 
BRANCH 109 112
ATOM    112  CD  GLN d   1     -25.124  51.561  12.026  0.00  0.00     0.215 C 
ATOM    113  OE1 GLN d   1     -25.466  50.840  12.960  0.00  0.00    -0.274 OA
ATOM    114  NE2 GLN d   1     -25.570  52.803  11.884  0.00  0.00    -0.370 N 
ATOM    115  H60 GLN d   1     -26.201  53.188  12.557  0.00  0.00     0.159 HD
ATOM    116  H61 GLN d   1     -25.275  53.354  11.104  0.00  0.00     0.159 HD
ENDBRANCH 109 112
ENDBRANCH 106 109
ENDBRANCH   5 106
ENDBRANCH   1   5
BRANCH   3 117
ATOM    117  CA  ASN d   1     -29.017  48.820   8.625  0.00  0.00     0.097 C 
ATOM    118  H63 ASN d   1     -28.781  47.852   8.158  0.00  0.00     0.088 H 
BRANCH 117 119
ATOM    119  C   ASN d   1     -29.132  49.852   7.507  0.00  0.00     0.241 C 
ATOM    120  O   ASN d   1     -29.005  51.061   7.725  0.00  0.00    -0.271 OA
ATOM    121  N   THR d   1     -29.367  49.353   6.301  0.00  0.00    -0.344 N 
ATOM    122  H68 THR d   1     -29.443  48.362   6.193  0.00  0.00     0.163 HD
BRANCH 121 123
ATOM    123  CA  THR d   1     -29.518  50.203   5.132  0.00  0.00     0.113 C 
ATOM    124  H69 THR d   1     -28.708  50.947   5.130  0.00  0.00     0.091 H 
BRANCH 123 125
ATOM    125  C   THR d   1     -30.863  50.932   5.176  0.00  0.00     0.243 C 
ATOM    126  O   THR d   1     -31.911  50.334   5.419  0.00  0.00    -0.271 OA
ATOM    127  N   LEU d   1     -30.813  52.233   4.949  0.00  0.00    -0.346 N 
ATOM    128  H75 LEU d   1     -29.926  52.661   4.777  0.00  0.00     0.163 HD
BRANCH 127 129
ATOM    129  CA  LEU d   1     -32.003  53.058   4.941  0.00  0.00     0.089 C 
ATOM    130  H76 LEU d   1     -32.755  52.630   5.620  0.00  0.00     0.087 H 
BRANCH 129 131
ATOM    131  C   LEU d   1     -32.558  53.138   3.534  0.00  0.00     0.241 C 
ATOM    132  O   LEU d   1     -31.794  53.214   2.570  0.00  0.00    -0.271 OA
ATOM    133  N   LYS d   1     -33.882  53.124   3.422  0.00  0.00    -0.346 N 
ATOM    134  H86 LYS d   1     -34.438  53.013   4.245  0.00  0.00     0.163 HD
BRANCH 133 135
ATOM    135  CA  LYS d   1     -34.550  53.267   2.123  0.00  0.00     0.089 C 
ATOM    136  H87 LYS d   1     -34.041  52.636   1.379  0.00  0.00     0.087 H 
BRANCH 135 137
ATOM    137  C   LYS d   1     -34.467  54.736   1.711  0.00  0.00     0.241 C 
ATOM    138  O   LYS d   1     -34.485  55.638   2.556  0.00  0.00    -0.271 OA
ATOM    139  N   LEU d   1     -34.371  54.961   0.406  0.00  0.00    -0.346 N 
ATOM    140  H99 LEU d   1     -34.364  54.185  -0.225  0.00  0.00     0.163 HD
BRANCH 139 141
ATOM    141  CA  LEU d   1     -34.276  56.306  -0.124  0.00  0.00     0.089 C 
ATOM    142 0H10 LEU d   1     -33.631  56.898   0.542  0.00  0.00     0.087 H 
BRANCH 141 143
ATOM    143  C   LEU d   1     -35.639  56.962  -0.191  0.00  0.00     0.241 C 
ATOM    144  O   LEU d   1     -36.671  56.292  -0.149  0.00  0.00    -0.271 OA
ATOM    145  N   ALA d   1     -35.628  58.285  -0.288  0.00  0.00    -0.346 N 
ATOM    146 0H11 ALA d   1     -34.752  58.767  -0.284  0.00  0.00     0.163 HD
BRANCH 145 147
ATOM    147  CA  ALA d   1     -36.855  59.048  -0.400  0.00  0.00     0.086 C 
ATOM    148 1H11 ALA d   1     -37.516  58.824   0.450  0.00  0.00     0.086 H 
BRANCH 147 149
ATOM    149  C   ALA d   1     -37.525  58.640  -1.702  0.00  0.00     0.240 C 
ATOM    150  O   ALA d   1     -36.876  58.573  -2.752  0.00  0.00    -0.271 OA
ATOM    151  N   THR d   1     -38.820  58.354  -1.624  0.00  0.00    -0.343 N 
ATOM    152 5H11 THR d   1     -39.277  58.408  -0.736  0.00  0.00     0.163 HD
BRANCH 151 153
ATOM    153  CA  THR d   1     -39.594  57.963  -2.796  0.00  0.00     0.120 C 
ATOM    154 6H11 THR d   1     -38.916  57.867  -3.657  0.00  0.00     0.093 H 
BRANCH 153 155
ATOM    155  C   THR d   1     -40.646  59.031  -3.088  0.00  0.00     0.199 C 
ATOM    156  O   THR d   1     -40.540  59.681  -4.153  0.00  0.00    -0.646 OA
ATOM    157  OXT THR d   1     -41.558  59.208  -2.242  0.00  0.00    -0.646 OA
ENDBRANCH 153 155
BRANCH 153 158
ATOM    158  CB  THR d   1     -40.317  56.627  -2.571  0.00  0.00     0.061 C 
ATOM    159 7H11 THR d   1     -41.089  56.759  -1.799  0.00  0.00     0.086 H 
BRANCH 158 160
ATOM    160  OG1 THR d   1     -39.374  55.640  -2.138  0.00  0.00    -0.393 OA
ATOM    161 8H11 THR d   1     -39.823  54.814  -1.999  0.00  0.00     0.210 HD
ENDBRANCH 158 160
BRANCH 158 162
ATOM    162  CG2 THR d   1     -40.971  56.157  -3.860  0.00  0.00    -0.050 C 
ATOM    163 9H11 THR d   1     -41.484  55.200  -3.683  0.00  0.00     0.031 H 
ATOM    164 0H12 THR d   1     -40.201  56.022  -4.634  0.00  0.00     0.031 H 
ATOM    165 1H12 THR d   1     -41.701  56.908  -4.196  0.00  0.00     0.031 H 
ENDBRANCH 158 162
ENDBRANCH 153 158
ENDBRANCH 151 153
ENDBRANCH 147 149
BRANCH 147 166
ATOM    166  CB  ALA d   1     -36.544  60.534  -0.421  0.00  0.00    -0.049 C 
ATOM    167 2H11 ALA d   1     -37.481  61.104  -0.506  0.00  0.00     0.030 H 
ATOM    168 3H11 ALA d   1     -35.897  60.761  -1.281  0.00  0.00     0.030 H 
ATOM    169 4H11 ALA d   1     -36.028  60.814   0.509  0.00  0.00     0.030 H 
ENDBRANCH 147 166
ENDBRANCH 145 147
ENDBRANCH 141 143
BRANCH 141 170
ATOM    170  CB  LEU d   1     -33.660  56.292  -1.524  0.00  0.00    -0.035 C 
ATOM    171 1H10 LEU d   1     -33.755  57.309  -1.931  0.00  0.00     0.037 H 
ATOM    172 2H10 LEU d   1     -34.255  55.596  -2.134  0.00  0.00     0.037 H 
BRANCH 170 173
ATOM    173  CG  LEU d   1     -32.196  55.882  -1.670  0.00  0.00    -0.059 C 
ATOM    174 3H10 LEU d   1     -32.092  54.814  -1.429  0.00  0.00     0.038 H 
BRANCH 173 175
ATOM    175  CD1 LEU d   1     -31.746  56.124  -3.106  0.00  0.00    -0.073 C 
ATOM    176 4H10 LEU d   1     -30.692  55.830  -3.214  0.00  0.00     0.028 H 
ATOM    177 5H10 LEU d   1     -31.856  57.191  -3.350  0.00  0.00     0.028 H 
ATOM    178 6H10 LEU d   1     -32.366  55.526  -3.790  0.00  0.00     0.028 H 
ENDBRANCH 173 175
BRANCH 173 179
ATOM    179  CD2 LEU d   1     -31.332  56.695  -0.726  0.00  0.00    -0.073 C 
ATOM    180 7H10 LEU d   1     -31.657  56.520   0.310  0.00  0.00     0.028 H 
ATOM    181 8H10 LEU d   1     -31.432  57.764  -0.966  0.00  0.00     0.028 H 
ATOM    182 9H10 LEU d   1     -30.281  56.391  -0.837  0.00  0.00     0.028 H 
ENDBRANCH 173 179
ENDBRANCH 170 173
ENDBRANCH 141 170
ENDBRANCH 139 141
ENDBRANCH 135 137
BRANCH 135 183
ATOM    183  CB  LYS d   1     -36.032  52.871   2.197  0.00  0.00    -0.038 C 
ATOM    184  H88 LYS d   1     -36.523  53.206   1.271  0.00  0.00     0.036 H 
ATOM    185  H89 LYS d   1     -36.482  53.387   3.058  0.00  0.00     0.036 H 
BRANCH 183 186
ATOM    186  CG  LYS d   1     -36.285  51.374   2.355  0.00  0.00    -0.061 C 
ATOM    187  H90 LYS d   1     -35.316  50.853   2.386  0.00  0.00     0.033 H 
ATOM    188  H91 LYS d   1     -36.864  51.020   1.489  0.00  0.00     0.033 H 
BRANCH 186 189
ATOM    189  CD  LYS d   1     -37.069  51.042   3.645  0.00  0.00    -0.043 C 
ATOM    190  H92 LYS d   1     -37.995  51.636   3.672  0.00  0.00     0.035 H 
ATOM    191  H93 LYS d   1     -36.450  51.288   4.521  0.00  0.00     0.035 H 
BRANCH 189 192
ATOM    192  CE  LYS d   1     -37.425  49.539   3.676  0.00  0.00     0.080 C 
ATOM    193  H94 LYS d   1     -38.011  49.332   4.583  0.00  0.00     0.075 H 
ATOM    194  H95 LYS d   1     -36.494  48.954   3.700  0.00  0.00     0.075 H 
BRANCH 192 195
ATOM    195  NZ  LYS d   1     -38.237  49.120   2.461  0.00  0.00    -0.079 N 
ATOM    196  H96 LYS d   1     -38.447  48.136   2.521  0.00  0.00     0.274 HD
ATOM    197  H97 LYS d   1     -37.706  49.300   1.623  0.00  0.00     0.274 HD
ATOM    198  H98 LYS d   1     -39.096  49.646   2.433  0.00  0.00     0.274 HD
ENDBRANCH 192 195
ENDBRANCH 189 192
ENDBRANCH 186 189
ENDBRANCH 183 186
ENDBRANCH 135 183
ENDBRANCH 133 135
ENDBRANCH 129 131
BRANCH 129 199
ATOM    199  CB  LEU d   1     -31.647  54.472   5.378  0.00  0.00    -0.035 C 
ATOM    200  H77 LEU d   1     -32.558  55.084   5.302  0.00  0.00     0.037 H 
ATOM    201  H78 LEU d   1     -30.888  54.856   4.681  0.00  0.00     0.037 H 
BRANCH 199 202
ATOM    202  CG  LEU d   1     -31.101  54.630   6.786  0.00  0.00    -0.059 C 
ATOM    203  H79 LEU d   1     -30.469  53.763   7.028  0.00  0.00     0.038 H 
BRANCH 202 204
ATOM    204  CD1 LEU d   1     -30.251  55.878   6.856  0.00  0.00    -0.073 C 
ATOM    205  H80 LEU d   1     -29.854  55.995   7.875  0.00  0.00     0.028 H 
ATOM    206  H81 LEU d   1     -30.864  56.754   6.599  0.00  0.00     0.028 H 
ATOM    207  H82 LEU d   1     -29.416  55.793   6.145  0.00  0.00     0.028 H 
ENDBRANCH 202 204
BRANCH 202 208
ATOM    208  CD2 LEU d   1     -32.268  54.671   7.769  0.00  0.00    -0.073 C 
ATOM    209  H83 LEU d   1     -32.855  53.745   7.681  0.00  0.00     0.028 H 
ATOM    210  H84 LEU d   1     -32.910  55.535   7.540  0.00  0.00     0.028 H 
ATOM    211  H85 LEU d   1     -31.881  54.763   8.794  0.00  0.00     0.028 H 
ENDBRANCH 202 208
ENDBRANCH 199 202
ENDBRANCH 129 199
ENDBRANCH 127 129
ENDBRANCH 123 125
BRANCH 123 212
ATOM    212  CB  THR d   1     -29.434  49.365   3.828  0.00  0.00     0.060 C 
ATOM    213  H70 THR d   1     -30.062  49.835   3.057  0.00  0.00     0.086 H 
BRANCH 212 214
ATOM    214  OG1 THR d   1     -29.897  48.035   4.086  0.00  0.00    -0.393 OA
ATOM    215  H71 THR d   1     -29.354  47.636   4.755  0.00  0.00     0.210 HD
ENDBRANCH 212 214
BRANCH 212 216
ATOM    216  CG2 THR d   1     -28.020  49.271   3.330  0.00  0.00    -0.050 C 
ATOM    217  H72 THR d   1     -27.995  48.672   2.407  0.00  0.00     0.031 H 
ATOM    218  H73 THR d   1     -27.393  48.791   4.096  0.00  0.00     0.031 H 
ATOM    219  H74 THR d   1     -27.637  50.281   3.122  0.00  0.00     0.031 H 
ENDBRANCH 212 216
ENDBRANCH 123 212
ENDBRANCH 121 123
ENDBRANCH 117 119
BRANCH 117 220
ATOM    220  CB  ASN d   1     -30.350  48.681   9.350  0.00  0.00     0.036 C 
ATOM    221  H64 ASN d   1     -31.151  48.581   8.603  0.00  0.00     0.051 H 
ATOM    222  H65 ASN d   1     -30.522  49.585   9.952  0.00  0.00     0.051 H 
BRANCH 220 223
ATOM    223  CG  ASN d   1     -30.381  47.479  10.259  0.00  0.00     0.217 C 
ATOM    224  OD1 ASN d   1     -29.942  46.395   9.877  0.00  0.00    -0.274 OA
ATOM    225  ND2 ASN d   1     -30.908  47.655  11.463  0.00  0.00    -0.370 N 
ATOM    226  H66 ASN d   1     -30.953  46.890  12.106  0.00  0.00     0.159 HD
ATOM    227  H67 ASN d   1     -31.260  48.553  11.728  0.00  0.00     0.159 HD
ENDBRANCH 220 223
ENDBRANCH 117 220
ENDBRANCH   3 117
TORSDOF 66
