REMARK WARNING: 32 MAX_TORS EXCEEDED!!!
REMARK  66 active torsions:
REMARK  status: ('A' for Active; 'I' for Inactive)
REMARK    1  A    between atoms: CA_2  and  C_3 
REMARK       I    between atoms: C_3  and  N_8 
REMARK    2  A    between atoms: N_8  and  CA_9 
REMARK    3  A    between atoms: CA_9  and  C_10 
REMARK    4  A    between atoms: CA_9  and  CB_12 
REMARK       I    between atoms: C_10  and  N_17 
REMARK    5  A    between atoms: CB_12  and  CG_13 
REMARK    6  A    between atoms: CG_13  and  CD_14 
REMARK    7  A    between atoms: CD_14  and  CE_15 
REMARK    8  A    between atoms: CE_15  and  NZ_16 
REMARK    9  A    between atoms: N_17  and  CA_18 
REMARK   10  A    between atoms: CA_18  and  C_19 
REMARK   11  A    between atoms: CA_18  and  CB_21 
REMARK       I    between atoms: C_19  and  N_29 
REMARK   12  A    between atoms: CB_21  and  CG_22 
REMARK   13  A    between atoms: CZ_27  and  OH_28 
REMARK   14  A    between atoms: N_29  and  CA_30 
REMARK   15  A    between atoms: CA_30  and  C_31 
REMARK   16  A    between atoms: CA_30  and  CB_33 
REMARK       I    between atoms: C_31  and  N_36 
REMARK   17  A    between atoms: CB_33  and  CG1_34 
REMARK   18  A    between atoms: CB_33  and  CG2_35 
REMARK   19  A    between atoms: N_36  and  CA_37 
REMARK   20  A    between atoms: CA_37  and  C_38 
REMARK   21  A    between atoms: CA_37  and  CB_40 
REMARK       I    between atoms: C_38  and  N_45 
REMARK   22  A    between atoms: CB_40  and  CG_41 
REMARK   23  A    between atoms: CG_41  and  CD_42 
REMARK   24  A    between atoms: CD_42  and  CE_43 
REMARK   25  A    between atoms: CE_43  and  NZ_44 
REMARK   26  A    between atoms: N_45  and  CA_46 
REMARK   27  A    between atoms: CA_46  and  C_47 
REMARK   28  A    between atoms: CA_46  and  CB_49 
REMARK       I    between atoms: C_47  and  N_54 
REMARK   29  A    between atoms: CB_49  and  CG_50 
REMARK   30  A    between atoms: CG_50  and  CD_51 
REMARK       I    between atoms: CD_51  and  NE2_53 
REMARK   31  A    between atoms: N_54  and  CA_55 
REMARK   32  A    between atoms: CA_55  and  C_56 
REMARK   33  A    between atoms: CA_55  and  CB_58 
REMARK       I    between atoms: C_56  and  N_62 
REMARK   34  A    between atoms: CB_58  and  CG_59 
REMARK       I    between atoms: CG_59  and  ND2_61 
REMARK   35  A    between atoms: N_62  and  CA_63 
REMARK   36  A    between atoms: CA_63  and  C_64 
REMARK   37  A    between atoms: CA_63  and  CB_66 
REMARK       I    between atoms: C_64  and  N_69 
REMARK   38  A    between atoms: CB_66  and  OG1_67 
REMARK   39  A    between atoms: CB_66  and  CG2_68 
REMARK   40  A    between atoms: N_69  and  CA_70 
REMARK   41  A    between atoms: CA_70  and  C_71 
REMARK   42  A    between atoms: CA_70  and  CB_73 
REMARK       I    between atoms: C_71  and  N_77 
REMARK   43  A    between atoms: CB_73  and  CG_74 
REMARK   44  A    between atoms: CG_74  and  CD1_75 
REMARK   45  A    between atoms: CG_74  and  CD2_76 
REMARK   46  A    between atoms: N_77  and  CA_78 
REMARK   47  A    between atoms: CA_78  and  C_79 
REMARK   48  A    between atoms: CA_78  and  CB_81 
REMARK       I    between atoms: C_79  and  N_86 
REMARK   49  A    between atoms: CB_81  and  CG_82 
REMARK   50  A    between atoms: CG_82  and  CD_83 
REMARK   51  A    between atoms: CD_83  and  CE_84 
REMARK   52  A    between atoms: CE_84  and  NZ_85 
REMARK   53  A    between atoms: N_86  and  CA_87 
REMARK   54  A    between atoms: CA_87  and  C_88 
REMARK   55  A    between atoms: CA_87  and  CB_90 
REMARK       I    between atoms: C_88  and  N_94 
REMARK   56  A    between atoms: CB_90  and  CG_91 
REMARK   57  A    between atoms: CG_91  and  CD1_92 
REMARK   58  A    between atoms: CG_91  and  CD2_93 
REMARK   59  A    between atoms: N_94  and  CA_95 
REMARK   60  A    between atoms: CA_95  and  C_96 
REMARK   61  A    between atoms: CA_95  and  CB_98 
REMARK       I    between atoms: C_96  and  N_99 
REMARK   62  A    between atoms: N_99  and  CA_100 
REMARK   63  A    between atoms: CA_100  and  C_101 
REMARK   64  A    between atoms: CA_100  and  CB_103 
REMARK   65  A    between atoms: CB_103  and  OG1_104 
REMARK   66  A    between atoms: CB_103  and  CG2_105 
ROOT
ATOM      1  C   GLN d   1     -26.701  48.594   9.403  0.00  0.00     0.241 C 
ATOM      2  O   GLN d   1     -26.379  48.034   8.363  0.00  0.00    -0.271 OA
ATOM      3  N   ASN d   1     -27.963  48.871   9.699  0.00  0.00    -0.346 N 
ATOM      4  H62 ASN d   1     -28.193  49.311  10.567  0.00  0.00     0.163 HD
ENDROOT
BRANCH   1   5
ATOM      5  CA  GLN d   1     -25.642  48.963  10.415  0.00  0.00     0.090 C 
ATOM      6  H55 GLN d   1     -26.075  49.156  11.408  0.00  0.00     0.087 H 
BRANCH   5   7
ATOM      7  N   GLN d   1     -24.788  47.779  10.428  0.00  0.00    -0.346 N 
ATOM      8  C   LYS d   1     -24.878  46.863  11.384  0.00  0.00     0.241 C 
ATOM      9  O   LYS d   1     -25.631  46.966  12.351  0.00  0.00    -0.271 OA
ATOM     10  H54 GLN d   1     -24.117  47.655   9.697  0.00  0.00     0.163 HD
BRANCH   8  11
ATOM     11  CA  LYS d   1     -23.986  45.648  11.212  0.00  0.00     0.089 C 
ATOM     12  H42 LYS d   1     -22.979  45.988  10.927  0.00  0.00     0.087 H 
BRANCH  11  13
ATOM     13  N   LYS d   1     -23.867  44.851  12.429  0.00  0.00    -0.346 N 
ATOM     14  C   VAL d   1     -22.765  44.909  13.163  0.00  0.00     0.241 C 
ATOM     15  O   VAL d   1     -21.811  45.627  12.874  0.00  0.00    -0.271 OA
ATOM     16  H41 LYS d   1     -24.621  44.258  12.711  0.00  0.00     0.163 HD
BRANCH  14  17
ATOM     17  CA  VAL d   1     -22.727  44.042  14.402  0.00  0.00     0.092 C 
ATOM     18  H33 VAL d   1     -23.391  43.177  14.259  0.00  0.00     0.088 H 
BRANCH  17  19
ATOM     19  N   VAL d   1     -21.378  43.560  14.639  0.00  0.00    -0.346 N 
ATOM     20  C   TYR d   1     -21.111  42.265  14.610  0.00  0.00     0.241 C 
ATOM     21  O   TYR d   1     -21.968  41.417  14.390  0.00  0.00    -0.271 OA
ATOM     22  H32 VAL d   1     -20.644  44.213  14.826  0.00  0.00     0.163 HD
BRANCH  20  23
ATOM     23  CA  TYR d   1     -19.675  41.864  14.869  0.00  0.00     0.093 C 
ATOM     24  H24 TYR d   1     -19.143  42.687  15.369  0.00  0.00     0.088 H 
BRANCH  23  25
ATOM     25  N   TYR d   1     -19.682  40.692  15.734  0.00  0.00    -0.346 N 
ATOM     26  C   LYS d   1     -20.046  40.767  17.012  0.00  0.00     0.241 C 
ATOM     27  O   LYS d   1     -20.388  41.821  17.552  0.00  0.00    -0.271 OA
ATOM     28  H23 TYR d   1     -19.406  39.808  15.358  0.00  0.00     0.163 HD
BRANCH  26  29
ATOM     29  CA  LYS d   1     -20.038  39.444  17.786  0.00  0.00     0.089 C 
ATOM     30  H11 LYS d   1     -19.633  38.681  17.105  0.00  0.00     0.087 H 
BRANCH  29  31
ATOM     31  N   LYS d   1     -19.231  39.392  18.996  0.00  0.00    -0.346 N 
ATOM     32  C   PRO d   1     -18.233  38.517  19.119  0.00  0.00     0.249 C 
ATOM     33  O   PRO d   1     -17.896  37.740  18.221  0.00  0.00    -0.271 OA
ATOM     34  H10 LYS d   1     -19.428  40.023  19.747  0.00  0.00     0.163 HD
BRANCH  32  35
ATOM     35  CA  PRO d   1     -17.492  38.525  20.447  0.00  0.00     0.178 C 
ATOM     36  N   PRO d   1     -17.332  37.136  20.939  0.00  0.00    -0.062 N 
ATOM     37  CD  PRO d   1     -15.919  36.891  21.275  0.00  0.00     0.083 C 
ATOM     38  H1  PRO d   1     -17.623  36.490  20.222  0.00  0.00     0.278 HD
ATOM     39  H2  PRO d   1     -17.900  37.004  21.761  0.00  0.00     0.278 HD
ATOM     40  CG  PRO d   1     -15.354  38.324  21.380  0.00  0.00    -0.040 C 
ATOM     41  H8  PRO d   1     -15.414  36.321  20.482  0.00  0.00     0.075 H 
ATOM     42  H9  PRO d   1     -15.824  36.354  22.230  0.00  0.00     0.075 H 
ATOM     43  CB  PRO d   1     -16.092  39.099  20.300  0.00  0.00    -0.028 C 
ATOM     44  H6  PRO d   1     -15.557  38.751  22.373  0.00  0.00     0.035 H 
ATOM     45  H7  PRO d   1     -14.270  38.330  21.192  0.00  0.00     0.035 H 
ATOM     46  H4  PRO d   1     -16.075  40.181  20.495  0.00  0.00     0.036 H 
ATOM     47  H5  PRO d   1     -15.675  38.900  19.302  0.00  0.00     0.036 H 
ATOM     48  H3  PRO d   1     -18.063  39.120  21.175  0.00  0.00     0.099 H 
ENDBRANCH  32  35
ENDBRANCH  29  31
BRANCH  29  49
ATOM     49  CB  LYS d   1     -21.477  39.066  18.126  0.00  0.00    -0.038 C 
ATOM     50  H12 LYS d   1     -21.941  39.907  18.662  0.00  0.00     0.036 H 
ATOM     51  H13 LYS d   1     -21.459  38.181  18.779  0.00  0.00     0.036 H 
BRANCH  49  52
ATOM     52  CG  LYS d   1     -22.323  38.748  16.908  0.00  0.00    -0.061 C 
ATOM     53  H14 LYS d   1     -21.737  38.950  15.999  0.00  0.00     0.033 H 
ATOM     54  H15 LYS d   1     -23.220  39.385  16.916  0.00  0.00     0.033 H 
BRANCH  52  55
ATOM     55  CD  LYS d   1     -22.753  37.273  16.912  0.00  0.00    -0.043 C 
ATOM     56  H16 LYS d   1     -23.672  37.169  17.507  0.00  0.00     0.035 H 
ATOM     57  H17 LYS d   1     -21.953  36.668  17.364  0.00  0.00     0.035 H 
BRANCH  55  58
ATOM     58  CE  LYS d   1     -23.020  36.764  15.485  0.00  0.00     0.080 C 
ATOM     59  H18 LYS d   1     -22.070  36.736  14.931  0.00  0.00     0.075 H 
ATOM     60  H19 LYS d   1     -23.716  37.453  14.984  0.00  0.00     0.075 H 
BRANCH  58  61
ATOM     61  NZ  LYS d   1     -23.624  35.375  15.497  0.00  0.00    -0.079 N 
ATOM     62  H20 LYS d   1     -23.787  35.071  14.550  0.00  0.00     0.274 HD
ATOM     63  H21 LYS d   1     -24.498  35.393  15.999  0.00  0.00     0.274 HD
ATOM     64  H22 LYS d   1     -22.989  34.736  15.950  0.00  0.00     0.274 HD
ENDBRANCH  58  61
ENDBRANCH  55  58
ENDBRANCH  52  55
ENDBRANCH  49  52
ENDBRANCH  29  49
ENDBRANCH  26  29
ENDBRANCH  23  25
BRANCH  23  65
ATOM     65  CB  TYR d   1     -18.987  41.554  13.537  0.00  0.00    -0.014 C 
ATOM     66  H25 TYR d   1     -19.419  42.207  12.764  0.00  0.00     0.043 H 
ATOM     67  H26 TYR d   1     -19.186  40.503  13.281  0.00  0.00     0.043 H 
BRANCH  65  68
ATOM     68  CG  TYR d   1     -17.489  41.764  13.555  0.00  0.00    -0.056 A 
ATOM     69  CD1 TYR d   1     -16.946  43.039  13.689  0.00  0.00    -0.074 A 
ATOM     70  CE1 TYR d   1     -15.566  43.241  13.710  0.00  0.00    -0.051 A 
ATOM     71  H27 TYR d   1     -17.609  43.892  13.779  0.00  0.00     0.084 H 
ATOM     72  CZ  TYR d   1     -14.709  42.159  13.595  0.00  0.00     0.065 A 
ATOM     73  H29 TYR d   1     -15.165  44.243  13.816  0.00  0.00     0.087 H 
ATOM     74  CE2 TYR d   1     -15.219  40.881  13.459  0.00  0.00    -0.051 A 
ATOM     75  CD2 TYR d   1     -16.609  40.688  13.441  0.00  0.00    -0.074 A 
ATOM     76  H30 TYR d   1     -14.549  40.033  13.367  0.00  0.00     0.087 H 
ATOM     77  H28 TYR d   1     -17.006  39.685  13.337  0.00  0.00     0.084 H 
BRANCH  72  78
ATOM     78  OH  TYR d   1     -13.349  42.360  13.634  0.00  0.00    -0.361 OA
ATOM     79  H31 TYR d   1     -13.170  43.288  13.730  0.00  0.00     0.217 HD
ENDBRANCH  72  78
ENDBRANCH  65  68
ENDBRANCH  23  65
ENDBRANCH  20  23
ENDBRANCH  17  19
BRANCH  17  80
ATOM     80  CB  VAL d   1     -23.226  44.863  15.579  0.00  0.00    -0.033 C 
ATOM     81  H34 VAL d   1     -22.614  45.773  15.668  0.00  0.00     0.042 H 
BRANCH  80  82
ATOM     82  CG1 VAL d   1     -24.655  45.260  15.343  0.00  0.00    -0.071 C 
ATOM     83  H35 VAL d   1     -25.016  45.854  16.195  0.00  0.00     0.028 H 
ATOM     84  H36 VAL d   1     -25.274  44.357  15.238  0.00  0.00     0.028 H 
ATOM     85  H37 VAL d   1     -24.722  45.860  14.423  0.00  0.00     0.028 H 
ENDBRANCH  80  82
BRANCH  80  86
ATOM     86  CG2 VAL d   1     -23.097  44.058  16.863  0.00  0.00    -0.071 C 
ATOM     87  H38 VAL d   1     -22.044  43.778  17.016  0.00  0.00     0.028 H 
ATOM     88  H39 VAL d   1     -23.711  43.148  16.789  0.00  0.00     0.028 H 
ATOM     89  H40 VAL d   1     -23.442  44.665  17.713  0.00  0.00     0.028 H 
ENDBRANCH  80  86
ENDBRANCH  17  80
ENDBRANCH  14  17
ENDBRANCH  11  13
BRANCH  11  90
ATOM     90  CB  LYS d   1     -24.573  44.807  10.076  0.00  0.00    -0.038 C 
ATOM     91  H43 LYS d   1     -24.094  43.817  10.092  0.00  0.00     0.036 H 
ATOM     92  H44 LYS d   1     -24.350  45.307   9.122  0.00  0.00     0.036 H 
BRANCH  90  93
ATOM     93  CG  LYS d   1     -26.066  44.616  10.177  0.00  0.00    -0.061 C 
ATOM     94  H45 LYS d   1     -26.535  45.576  10.438  0.00  0.00     0.033 H 
ATOM     95  H46 LYS d   1     -26.282  43.877  10.963  0.00  0.00     0.033 H 
BRANCH  93  96
ATOM     96  CD  LYS d   1     -26.635  44.129   8.875  0.00  0.00    -0.043 C 
ATOM     97  H47 LYS d   1     -26.334  43.082   8.720  0.00  0.00     0.035 H 
ATOM     98  H48 LYS d   1     -26.241  44.749   8.056  0.00  0.00     0.035 H 
BRANCH  96  99
ATOM     99  CE  LYS d   1     -28.150  44.215   8.878  0.00  0.00     0.080 C 
ATOM    100  H49 LYS d   1     -28.523  43.956   7.876  0.00  0.00     0.075 H 
ATOM    101  H50 LYS d   1     -28.447  45.245   9.125  0.00  0.00     0.075 H 
BRANCH  99 102
ATOM    102  NZ  LYS d   1     -28.752  43.295   9.864  0.00  0.00    -0.079 N 
ATOM    103  H51 LYS d   1     -29.756  43.382   9.835  0.00  0.00     0.274 HD
ATOM    104  H52 LYS d   1     -28.421  43.528  10.787  0.00  0.00     0.274 HD
ATOM    105  H53 LYS d   1     -28.490  42.347   9.643  0.00  0.00     0.274 HD
ENDBRANCH  99 102
ENDBRANCH  96  99
ENDBRANCH  93  96
ENDBRANCH  90  93
ENDBRANCH  11  90
ENDBRANCH   8  11
ENDBRANCH   5   7
BRANCH   5 106
ATOM    106  CB  GLN d   1     -24.885  50.194   9.928  0.00  0.00    -0.030 C 
ATOM    107  H56 GLN d   1     -25.595  50.843   9.394  0.00  0.00     0.037 H 
ATOM    108  H57 GLN d   1     -24.100  49.860   9.234  0.00  0.00     0.037 H 
BRANCH 106 109
ATOM    109  CG  GLN d   1     -24.226  51.017  11.027  0.00  0.00     0.011 C 
ATOM    110  H58 GLN d   1     -23.688  51.858  10.564  0.00  0.00     0.047 H 
ATOM    111  H59 GLN d   1     -23.512  50.378  11.567  0.00  0.00     0.047 H 
BRANCH 109 112
ATOM    112  CD  GLN d   1     -25.235  51.572  12.023  0.00  0.00     0.215 C 
ATOM    113  OE1 GLN d   1     -25.746  50.846  12.879  0.00  0.00    -0.274 OA
ATOM    114  NE2 GLN d   1     -25.537  52.865  11.906  0.00  0.00    -0.370 N 
ATOM    115  H60 GLN d   1     -26.194  53.284  12.533  0.00  0.00     0.159 HD
ATOM    116  H61 GLN d   1     -25.107  53.416  11.191  0.00  0.00     0.159 HD
ENDBRANCH 109 112
ENDBRANCH 106 109
ENDBRANCH   5 106
ENDBRANCH   1   5
BRANCH   3 117
ATOM    117  CA  ASN d   1     -29.012  48.529   8.748  0.00  0.00     0.097 C 
ATOM    118  H63 ASN d   1     -28.774  47.554   8.298  0.00  0.00     0.088 H 
BRANCH 117 119
ATOM    119  C   ASN d   1     -29.079  49.577   7.646  0.00  0.00     0.241 C 
ATOM    120  O   ASN d   1     -28.906  50.768   7.905  0.00  0.00    -0.271 OA
ATOM    121  N   THR d   1     -29.310  49.129   6.415  0.00  0.00    -0.344 N 
ATOM    122  H68 THR d   1     -29.416  48.147   6.259  0.00  0.00     0.163 HD
BRANCH 121 123
ATOM    123  CA  THR d   1     -29.410  50.051   5.290  0.00  0.00     0.113 C 
ATOM    124  H69 THR d   1     -28.644  50.831   5.413  0.00  0.00     0.091 H 
BRANCH 123 125
ATOM    125  C   THR d   1     -30.789  50.710   5.283  0.00  0.00     0.243 C 
ATOM    126  O   THR d   1     -31.819  50.057   5.480  0.00  0.00    -0.271 OA
ATOM    127  N   LEU d   1     -30.796  52.017   5.082  0.00  0.00    -0.346 N 
ATOM    128  H75 LEU d   1     -29.930  52.500   4.954  0.00  0.00     0.163 HD
BRANCH 127 129
ATOM    129  CA  LEU d   1     -32.040  52.761   5.044  0.00  0.00     0.089 C 
ATOM    130  H76 LEU d   1     -32.767  52.288   5.721  0.00  0.00     0.087 H 
BRANCH 129 131
ATOM    131  C   LEU d   1     -32.592  52.762   3.635  0.00  0.00     0.241 C 
ATOM    132  O   LEU d   1     -31.849  52.691   2.663  0.00  0.00    -0.271 OA
ATOM    133  N   LYS d   1     -33.905  52.833   3.526  0.00  0.00    -0.346 N 
ATOM    134  H86 LYS d   1     -34.473  52.848   4.349  0.00  0.00     0.163 HD
BRANCH 133 135
ATOM    135  CA  LYS d   1     -34.532  52.890   2.212  0.00  0.00     0.089 C 
ATOM    136  H87 LYS d   1     -33.944  52.291   1.501  0.00  0.00     0.087 H 
BRANCH 135 137
ATOM    137  C   LYS d   1     -34.571  54.355   1.747  0.00  0.00     0.241 C 
ATOM    138  O   LYS d   1     -34.851  55.260   2.535  0.00  0.00    -0.271 OA
ATOM    139  N   LEU d   1     -34.287  54.564   0.466  0.00  0.00    -0.346 N 
ATOM    140  H99 LEU d   1     -34.068  53.783  -0.118  0.00  0.00     0.163 HD
BRANCH 139 141
ATOM    141  CA  LEU d   1     -34.287  55.892  -0.104  0.00  0.00     0.089 C 
ATOM    142 0H10 LEU d   1     -33.654  56.532   0.527  0.00  0.00     0.087 H 
BRANCH 141 143
ATOM    143  C   LEU d   1     -35.683  56.504  -0.150  0.00  0.00     0.241 C 
ATOM    144  O   LEU d   1     -36.697  55.806  -0.047  0.00  0.00    -0.271 OA
ATOM    145  N   ALA d   1     -35.710  57.825  -0.298  0.00  0.00    -0.346 N 
ATOM    146 0H11 ALA d   1     -34.842  58.317  -0.360  0.00  0.00     0.163 HD
BRANCH 145 147
ATOM    147  CA  ALA d   1     -36.947  58.585  -0.374  0.00  0.00     0.086 C 
ATOM    148 1H11 ALA d   1     -37.592  58.312   0.474  0.00  0.00     0.086 H 
BRANCH 147 149
ATOM    149  C   ALA d   1     -37.658  58.257  -1.668  0.00  0.00     0.240 C 
ATOM    150  O   ALA d   1     -37.053  58.257  -2.740  0.00  0.00    -0.271 OA
ATOM    151  N   THR d   1     -38.952  57.991  -1.552  0.00  0.00    -0.343 N 
ATOM    152 5H11 THR d   1     -39.372  58.021  -0.645  0.00  0.00     0.163 HD
BRANCH 151 153
ATOM    153  CA  THR d   1     -39.781  57.657  -2.699  0.00  0.00     0.120 C 
ATOM    154 6H11 THR d   1     -39.158  57.718  -3.604  0.00  0.00     0.093 H 
BRANCH 153 155
ATOM    155  C   THR d   1     -40.957  58.619  -2.846  0.00  0.00     0.199 C 
ATOM    156  O   THR d   1     -41.110  59.182  -3.954  0.00  0.00    -0.646 OA
ATOM    157  OXT THR d   1     -41.716  58.780  -1.858  0.00  0.00    -0.646 OA
ENDBRANCH 153 155
BRANCH 153 158
ATOM    158  CB  THR d   1     -40.337  56.233  -2.573  0.00  0.00     0.061 C 
ATOM    159 7H11 THR d   1     -40.813  56.119  -1.588  0.00  0.00     0.086 H 
BRANCH 158 160
ATOM    160  OG1 THR d   1     -39.262  55.293  -2.687  0.00  0.00    -0.393 OA
ATOM    161 8H11 THR d   1     -39.605  54.410  -2.609  0.00  0.00     0.210 HD
ENDBRANCH 158 160
BRANCH 158 162
ATOM    162  CG2 THR d   1     -41.375  55.969  -3.658  0.00  0.00    -0.050 C 
ATOM    163 9H11 THR d   1     -41.763  54.945  -3.553  0.00  0.00     0.031 H 
ATOM    164 0H12 THR d   1     -40.909  56.085  -4.647  0.00  0.00     0.031 H 
ATOM    165 1H12 THR d   1     -42.203  56.687  -3.556  0.00  0.00     0.031 H 
ENDBRANCH 158 162
ENDBRANCH 153 158
ENDBRANCH 151 153
ENDBRANCH 147 149
BRANCH 147 166
ATOM    166  CB  ALA d   1     -36.647  60.081  -0.314  0.00  0.00    -0.049 C 
ATOM    167 2H11 ALA d   1     -37.589  60.646  -0.372  0.00  0.00     0.030 H 
ATOM    168 3H11 ALA d   1     -35.999  60.359  -1.159  0.00  0.00     0.030 H 
ATOM    169 4H11 ALA d   1     -36.137  60.315   0.632  0.00  0.00     0.030 H 
ENDBRANCH 147 166
ENDBRANCH 145 147
ENDBRANCH 141 143
BRANCH 141 170
ATOM    170  CB  LEU d   1     -33.697  55.862  -1.510  0.00  0.00    -0.035 C 
ATOM    171 1H10 LEU d   1     -33.831  56.861  -1.950  0.00  0.00     0.037 H 
ATOM    172 2H10 LEU d   1     -34.266  55.124  -2.095  0.00  0.00     0.037 H 
BRANCH 170 173
ATOM    173  CG  LEU d   1     -32.216  55.501  -1.624  0.00  0.00    -0.059 C 
ATOM    174 3H10 LEU d   1     -32.081  54.443  -1.357  0.00  0.00     0.038 H 
BRANCH 173 175
ATOM    175  CD1 LEU d   1     -31.744  55.720  -3.060  0.00  0.00    -0.073 C 
ATOM    176 4H10 LEU d   1     -30.678  55.460  -3.139  0.00  0.00     0.028 H 
ATOM    177 5H10 LEU d   1     -31.885  56.776  -3.335  0.00  0.00     0.028 H 
ATOM    178 6H10 LEU d   1     -32.329  55.083  -3.740  0.00  0.00     0.028 H 
ENDBRANCH 173 175
BRANCH 173 179
ATOM    179  CD2 LEU d   1     -31.399  56.360  -0.677  0.00  0.00    -0.073 C 
ATOM    180 7H10 LEU d   1     -31.744  56.198   0.355  0.00  0.00     0.028 H 
ATOM    181 8H10 LEU d   1     -31.524  57.420  -0.943  0.00  0.00     0.028 H 
ATOM    182 9H10 LEU d   1     -30.337  56.085  -0.756  0.00  0.00     0.028 H 
ENDBRANCH 173 179
ENDBRANCH 170 173
ENDBRANCH 141 170
ENDBRANCH 139 141
ENDBRANCH 135 137
BRANCH 135 183
ATOM    183  CB  LYS d   1     -35.959  52.348   2.270  0.00  0.00    -0.038 C 
ATOM    184  H88 LYS d   1     -36.590  53.098   2.769  0.00  0.00     0.036 H 
ATOM    185  H89 LYS d   1     -35.950  51.423   2.865  0.00  0.00     0.036 H 
BRANCH 183 186
ATOM    186  CG  LYS d   1     -36.583  52.032   0.906  0.00  0.00    -0.061 C 
ATOM    187  H90 LYS d   1     -36.002  51.238   0.414  0.00  0.00     0.033 H 
ATOM    188  H91 LYS d   1     -36.570  52.937   0.281  0.00  0.00     0.033 H 
BRANCH 186 189
ATOM    189  CD  LYS d   1     -38.044  51.558   1.091  0.00  0.00    -0.043 C 
ATOM    190  H92 LYS d   1     -38.336  50.968   0.210  0.00  0.00     0.035 H 
ATOM    191  H93 LYS d   1     -38.693  52.442   1.171  0.00  0.00     0.035 H 
BRANCH 189 192
ATOM    192  CE  LYS d   1     -38.239  50.670   2.381  0.00  0.00     0.080 C 
ATOM    193  H94 LYS d   1     -37.609  49.775   2.271  0.00  0.00     0.075 H 
ATOM    194  H95 LYS d   1     -39.297  50.370   2.425  0.00  0.00     0.075 H 
BRANCH 192 195
ATOM    195  NZ  LYS d   1     -37.883  51.331   3.722  0.00  0.00    -0.079 N 
ATOM    196  H96 LYS d   1     -38.045  50.677   4.472  0.00  0.00     0.274 HD
ATOM    197  H97 LYS d   1     -38.459  52.147   3.858  0.00  0.00     0.274 HD
ATOM    198  H98 LYS d   1     -36.912  51.602   3.716  0.00  0.00     0.274 HD
ENDBRANCH 192 195
ENDBRANCH 189 192
ENDBRANCH 186 189
ENDBRANCH 183 186
ENDBRANCH 135 183
ENDBRANCH 133 135
ENDBRANCH 129 131
BRANCH 129 199
ATOM    199  CB  LEU d   1     -31.797  54.204   5.488  0.00  0.00    -0.035 C 
ATOM    200  H77 LEU d   1     -32.730  54.768   5.340  0.00  0.00     0.037 H 
ATOM    201  H78 LEU d   1     -31.007  54.629   4.851  0.00  0.00     0.037 H 
BRANCH 199 202
ATOM    202  CG  LEU d   1     -31.370  54.367   6.945  0.00  0.00    -0.059 C 
ATOM    203  H79 LEU d   1     -30.500  53.723   7.140  0.00  0.00     0.038 H 
BRANCH 202 204
ATOM    204  CD1 LEU d   1     -30.975  55.811   7.204  0.00  0.00    -0.073 C 
ATOM    205  H80 LEU d   1     -30.668  55.924   8.254  0.00  0.00     0.028 H 
ATOM    206  H81 LEU d   1     -31.833  56.468   7.000  0.00  0.00     0.028 H 
ATOM    207  H82 LEU d   1     -30.138  56.086   6.546  0.00  0.00     0.028 H 
ENDBRANCH 202 204
BRANCH 202 208
ATOM    208  CD2 LEU d   1     -32.514  53.933   7.853  0.00  0.00    -0.073 C 
ATOM    209  H83 LEU d   1     -32.774  52.886   7.640  0.00  0.00     0.028 H 
ATOM    210  H84 LEU d   1     -33.390  54.573   7.670  0.00  0.00     0.028 H 
ATOM    211  H85 LEU d   1     -32.204  54.027   8.904  0.00  0.00     0.028 H 
ENDBRANCH 202 208
ENDBRANCH 199 202
ENDBRANCH 129 199
ENDBRANCH 127 129
ENDBRANCH 123 125
BRANCH 123 212
ATOM    212  CB  THR d   1     -29.172  49.338   3.925  0.00  0.00     0.060 C 
ATOM    213  H70 THR d   1     -29.382  50.044   3.108  0.00  0.00     0.086 H 
BRANCH 212 214
ATOM    214  OG1 THR d   1     -30.030  48.205   3.817  0.00  0.00    -0.393 OA
ATOM    215  H71 THR d   1     -29.881  47.775   2.983  0.00  0.00     0.210 HD
ENDBRANCH 212 214
BRANCH 212 216
ATOM    216  CG2 THR d   1     -27.759  48.850   3.815  0.00  0.00    -0.050 C 
ATOM    217  H72 THR d   1     -27.618  48.352   2.845  0.00  0.00     0.031 H 
ATOM    218  H73 THR d   1     -27.553  48.137   4.627  0.00  0.00     0.031 H 
ATOM    219  H74 THR d   1     -27.069  49.703   3.893  0.00  0.00     0.031 H 
ENDBRANCH 212 216
ENDBRANCH 123 212
ENDBRANCH 121 123
ENDBRANCH 117 119
BRANCH 117 220
ATOM    220  CB  ASN d   1     -30.367  48.429   9.447  0.00  0.00     0.036 C 
ATOM    221  H64 ASN d   1     -31.100  48.015   8.739  0.00  0.00     0.051 H 
ATOM    222  H65 ASN d   1     -30.682  49.438   9.752  0.00  0.00     0.051 H 
BRANCH 220 223
ATOM    223  CG  ASN d   1     -30.323  47.543  10.673  0.00  0.00     0.217 C 
ATOM    224  OD1 ASN d   1     -29.556  46.582  10.734  0.00  0.00    -0.274 OA
ATOM    225  ND2 ASN d   1     -31.157  47.855  11.656  0.00  0.00    -0.370 N 
ATOM    226  H66 ASN d   1     -31.173  47.306  12.491  0.00  0.00     0.159 HD
ATOM    227  H67 ASN d   1     -31.770  48.640  11.562  0.00  0.00     0.159 HD
ENDBRANCH 220 223
ENDBRANCH 117 220
ENDBRANCH   3 117
TORSDOF 66
