REMARK  7 active torsions:
REMARK  status: ('A' for Active; 'I' for Inactive)
REMARK    1  A    between atoms: N3_4  and  S1_14 
REMARK    2  A    between atoms: C01_8  and  C09_9 
REMARK       I    between atoms: C09_9  and  N10_11 
REMARK    3  A    between atoms: N10_11  and  C1'_18 
REMARK    4  A    between atoms: S1_14  and  C02_16 
REMARK    5  A    between atoms: C02_16  and  C6'_29 
REMARK    6  A    between atoms: C1'_18  and  C2'_19 
REMARK       I    between atoms: N1'_24  and  C6'_25 
REMARK       I    between atoms: C6'_25  and  N2'_26 
REMARK    7  A    between atoms: N3'_27  and  O3'_28 
ROOT
ATOM      1  N1  BLI d   1      17.735 -13.996  22.235  0.00  0.00    -0.331 N 
ATOM      2  C1  BLI d   1      18.821 -14.648  21.529  0.00  0.00     0.032 C 
ATOM      3  C2  BLI d   1      19.785 -15.363  22.463  0.00  0.00     0.024 C 
ATOM      4  N3  BLI d   1      19.068 -16.200  23.419  0.00  0.00    -0.300 N 
ATOM      5  C4  BLI d   1      17.627 -15.966  23.579  0.00  0.00     0.079 C 
ATOM      6  C5  BLI d   1      17.171 -14.524  23.325  0.00  0.00     0.239 C 
ATOM      7  O11 BLI d   1      16.334 -13.940  24.023  0.00  0.00    -0.271 OA
ATOM      8  C01 BLI d   1      17.186 -12.834  21.538  0.00  0.00     0.092 C 
ATOM      9  C03 BLI d   1      18.092 -12.775  20.282  0.00  0.00    -0.036 C 
ATOM     10  C06 BLI d   1      19.381 -13.508  20.681  0.00  0.00    -0.042 C 
ATOM     11  H1  BLI d   1      18.412 -15.416  20.856  0.00  0.00     0.075 H 
ATOM     12  H2  BLI d   1      20.374 -14.614  23.013  0.00  0.00     0.068 H 
ATOM     13  H3  BLI d   1      20.460 -15.995  21.867  0.00  0.00     0.068 H 
ATOM     14  H4  BLI d   1      17.350 -16.235  24.609  0.00  0.00     0.080 H 
ATOM     15  H5  BLI d   1      17.095 -16.621  22.874  0.00  0.00     0.080 H 
ATOM     16  H6  BLI d   1      17.332 -11.927  22.143  0.00  0.00     0.087 H 
ATOM     17  H8  BLI d   1      17.608 -13.280  19.433  0.00  0.00     0.036 H 
ATOM     18  H9  BLI d   1      18.310 -11.731  20.012  0.00  0.00     0.036 H 
ATOM     19  H10 BLI d   1      19.919 -13.887  19.800  0.00  0.00     0.036 H 
ATOM     20  H11 BLI d   1      20.049 -12.860  21.267  0.00  0.00     0.036 H 
ENDROOT
BRANCH   8  21
ATOM     21  C09 BLI d   1      15.642 -12.958  21.239  0.00  0.00     0.240 C 
ATOM     22  N10 BLI d   1      14.984 -11.857  20.801  0.00  0.00    -0.359 N 
ATOM     23  H7  BLI d   1      15.473 -10.989  20.709  0.00  0.00     0.162 HD
ATOM     24  O09 BLI d   1      15.083 -14.022  21.413  0.00  0.00    -0.271 OA
BRANCH  22  25
ATOM     25  C1' BLI d   1      13.569 -11.931  20.464  0.00  0.00    -0.001 C 
ATOM     26  H14 BLI d   1      13.357 -12.847  19.892  0.00  0.00     0.064 H 
ATOM     27  H15 BLI d   1      13.268 -11.053  19.874  0.00  0.00     0.064 H 
BRANCH  25  28
ATOM     28  C2' BLI d   1      12.844 -11.954  21.780  0.00  0.00    -0.037 C 
ATOM     29  C4' BLI d   1      12.054 -13.241  21.971  0.00  0.00    -0.049 C 
ATOM     30  C5' BLI d   1      11.482 -13.218  23.389  0.00  0.00    -0.013 C 
ATOM     31  H21 BLI d   1      12.716 -14.111  21.846  0.00  0.00     0.035 H 
ATOM     32  H22 BLI d   1      11.237 -13.293  21.236  0.00  0.00     0.035 H 
ATOM     33  N1' BLI d   1      10.782 -11.975  23.758  0.00  0.00    -0.254 NA
ATOM     34  H23 BLI d   1      10.770 -14.051  23.483  0.00  0.00     0.056 H 
ATOM     35  H24 BLI d   1      12.313 -13.364  24.095  0.00  0.00     0.056 H 
ATOM     36  C7' BLI d   1      11.378 -10.711  23.313  0.00  0.00    -0.013 C 
ATOM     37  C6' BLI d   1      10.452 -11.881  25.114  0.00  0.00     0.173 C 
ATOM     38  C3' BLI d   1      11.943 -10.747  21.903  0.00  0.00    -0.049 C 
ATOM     39  H19 BLI d   1      10.603  -9.932  23.353  0.00  0.00     0.056 H 
ATOM     40  H20 BLI d   1      12.194 -10.453  24.004  0.00  0.00     0.056 H 
ATOM     41  H17 BLI d   1      11.121 -10.821  21.175  0.00  0.00     0.035 H 
ATOM     42  H18 BLI d   1      12.521  -9.831  21.711  0.00  0.00     0.035 H 
ATOM     43  N3' BLI d   1      10.695 -10.801  25.888  0.00  0.00    -0.243 N 
ATOM     44  N2' BLI d   1       9.871 -12.869  25.670  0.00  0.00    -0.374 N 
ATOM     45  H27 BLI d   1      11.237 -10.989  26.744  0.00  0.00     0.197 HD
ATOM     46  H25 BLI d   1       9.618 -12.823  26.667  0.00  0.00     0.158 HD
ATOM     47  H26 BLI d   1       9.654 -13.714  25.122  0.00  0.00     0.158 HD
ATOM     48  H16 BLI d   1      13.597 -11.901  22.581  0.00  0.00     0.042 H 
BRANCH  43  49
ATOM     49  O3' BLI d   1      10.313  -9.437  25.698  0.00  0.00    -0.287 OA
ATOM     50  H28 BLI d   1       9.366  -9.377  25.662  0.00  0.00     0.244 HD
ENDBRANCH  43  49
ENDBRANCH  25  28
ENDBRANCH  22  25
ENDBRANCH   8  21
BRANCH   4  51
ATOM     51  S1  BLI d   1      19.642 -17.790  23.803  0.00  0.00     0.233 S 
ATOM     52  O1  BLI d   1      18.642 -18.324  24.648  0.00  0.00    -0.205 OA
ATOM     53  O2  BLI d   1      19.908 -18.402  22.511  0.00  0.00    -0.205 OA
BRANCH  51  54
ATOM     54  C02 BLI d   1      21.235 -17.576  24.622  0.00  0.00     0.070 C 
ATOM     55  H12 BLI d   1      21.995 -17.348  23.861  0.00  0.00     0.066 H 
ATOM     56  H13 BLI d   1      21.498 -18.514  25.133  0.00  0.00     0.066 H 
BRANCH  54  57
ATOM     57  C6' BLI d   1      21.217 -16.467  25.631  0.00  0.00    -0.043 C 
ATOM     58  C5' BLI d   1      20.135 -16.401  26.496  0.00  0.00    -0.076 C 
ATOM     59  C4' BLI d   1      19.859 -15.221  27.125  0.00  0.00    -0.082 C 
ATOM     60  H33 BLI d   1      19.517 -17.274  26.670  0.00  0.00     0.084 H 
ATOM     61  C3' BLI d   1      20.722 -14.148  26.954  0.00  0.00    -0.083 C 
ATOM     62  H32 BLI d   1      18.978 -15.124  27.749  0.00  0.00     0.083 H 
ATOM     63  C2' BLI d   1      21.910 -14.286  26.262  0.00  0.00    -0.082 C 
ATOM     64  H31 BLI d   1      20.459 -13.183  27.371  0.00  0.00     0.083 H 
ATOM     65  C1' BLI d   1      22.183 -15.471  25.622  0.00  0.00    -0.076 C 
ATOM     66  H30 BLI d   1      22.620 -13.467  26.224  0.00  0.00     0.083 H 
ATOM     67  H29 BLI d   1      23.132 -15.624  25.121  0.00  0.00     0.084 H 
ENDBRANCH  54  57
ENDBRANCH  51  54
ENDBRANCH   4  51
TORSDOF 7
