REMARK WARNING: 32 MAX_TORS EXCEEDED!!!
REMARK  66 active torsions:
REMARK  status: ('A' for Active; 'I' for Inactive)
REMARK    1  A    between atoms: CA_2  and  C_3 
REMARK       I    between atoms: C_3  and  N_8 
REMARK    2  A    between atoms: N_8  and  CA_9 
REMARK    3  A    between atoms: CA_9  and  C_10 
REMARK    4  A    between atoms: CA_9  and  CB_12 
REMARK       I    between atoms: C_10  and  N_17 
REMARK    5  A    between atoms: CB_12  and  CG_13 
REMARK    6  A    between atoms: CG_13  and  CD_14 
REMARK    7  A    between atoms: CD_14  and  CE_15 
REMARK    8  A    between atoms: CE_15  and  NZ_16 
REMARK    9  A    between atoms: N_17  and  CA_18 
REMARK   10  A    between atoms: CA_18  and  C_19 
REMARK   11  A    between atoms: CA_18  and  CB_21 
REMARK       I    between atoms: C_19  and  N_29 
REMARK   12  A    between atoms: CB_21  and  CG_22 
REMARK   13  A    between atoms: CZ_27  and  OH_28 
REMARK   14  A    between atoms: N_29  and  CA_30 
REMARK   15  A    between atoms: CA_30  and  C_31 
REMARK   16  A    between atoms: CA_30  and  CB_33 
REMARK       I    between atoms: C_31  and  N_36 
REMARK   17  A    between atoms: CB_33  and  CG1_34 
REMARK   18  A    between atoms: CB_33  and  CG2_35 
REMARK   19  A    between atoms: N_36  and  CA_37 
REMARK   20  A    between atoms: CA_37  and  C_38 
REMARK   21  A    between atoms: CA_37  and  CB_40 
REMARK       I    between atoms: C_38  and  N_45 
REMARK   22  A    between atoms: CB_40  and  CG_41 
REMARK   23  A    between atoms: CG_41  and  CD_42 
REMARK   24  A    between atoms: CD_42  and  CE_43 
REMARK   25  A    between atoms: CE_43  and  NZ_44 
REMARK   26  A    between atoms: N_45  and  CA_46 
REMARK   27  A    between atoms: CA_46  and  C_47 
REMARK   28  A    between atoms: CA_46  and  CB_49 
REMARK       I    between atoms: C_47  and  N_54 
REMARK   29  A    between atoms: CB_49  and  CG_50 
REMARK   30  A    between atoms: CG_50  and  CD_51 
REMARK       I    between atoms: CD_51  and  NE2_53 
REMARK   31  A    between atoms: N_54  and  CA_55 
REMARK   32  A    between atoms: CA_55  and  C_56 
REMARK   33  A    between atoms: CA_55  and  CB_58 
REMARK       I    between atoms: C_56  and  N_62 
REMARK   34  A    between atoms: CB_58  and  CG_59 
REMARK       I    between atoms: CG_59  and  ND2_61 
REMARK   35  A    between atoms: N_62  and  CA_63 
REMARK   36  A    between atoms: CA_63  and  C_64 
REMARK   37  A    between atoms: CA_63  and  CB_66 
REMARK       I    between atoms: C_64  and  N_69 
REMARK   38  A    between atoms: CB_66  and  OG1_67 
REMARK   39  A    between atoms: CB_66  and  CG2_68 
REMARK   40  A    between atoms: N_69  and  CA_70 
REMARK   41  A    between atoms: CA_70  and  C_71 
REMARK   42  A    between atoms: CA_70  and  CB_73 
REMARK       I    between atoms: C_71  and  N_77 
REMARK   43  A    between atoms: CB_73  and  CG_74 
REMARK   44  A    between atoms: CG_74  and  CD1_75 
REMARK   45  A    between atoms: CG_74  and  CD2_76 
REMARK   46  A    between atoms: N_77  and  CA_78 
REMARK   47  A    between atoms: CA_78  and  C_79 
REMARK   48  A    between atoms: CA_78  and  CB_81 
REMARK       I    between atoms: C_79  and  N_86 
REMARK   49  A    between atoms: CB_81  and  CG_82 
REMARK   50  A    between atoms: CG_82  and  CD_83 
REMARK   51  A    between atoms: CD_83  and  CE_84 
REMARK   52  A    between atoms: CE_84  and  NZ_85 
REMARK   53  A    between atoms: N_86  and  CA_87 
REMARK   54  A    between atoms: CA_87  and  C_88 
REMARK   55  A    between atoms: CA_87  and  CB_90 
REMARK       I    between atoms: C_88  and  N_94 
REMARK   56  A    between atoms: CB_90  and  CG_91 
REMARK   57  A    between atoms: CG_91  and  CD1_92 
REMARK   58  A    between atoms: CG_91  and  CD2_93 
REMARK   59  A    between atoms: N_94  and  CA_95 
REMARK   60  A    between atoms: CA_95  and  C_96 
REMARK   61  A    between atoms: CA_95  and  CB_98 
REMARK       I    between atoms: C_96  and  N_99 
REMARK   62  A    between atoms: N_99  and  CA_100 
REMARK   63  A    between atoms: CA_100  and  C_101 
REMARK   64  A    between atoms: CA_100  and  CB_103 
REMARK   65  A    between atoms: CB_103  and  OG1_104 
REMARK   66  A    between atoms: CB_103  and  CG2_105 
ROOT
ATOM      1  C   GLN d   1     -26.496  48.747   9.238  0.00  0.00     0.241 C 
ATOM      2  O   GLN d   1     -26.118  48.227   8.183  0.00  0.00    -0.271 OA
ATOM      3  N   ASN d   1     -27.776  49.005   9.495  0.00  0.00    -0.346 N 
ATOM      4  H62 ASN d   1     -28.027  49.420  10.370  0.00  0.00     0.163 HD
ENDROOT
BRANCH   1   5
ATOM      5  CA  GLN d   1     -25.481  49.094  10.331  0.00  0.00     0.090 C 
ATOM      6  H55 GLN d   1     -25.978  49.270  11.296  0.00  0.00     0.087 H 
BRANCH   5   7
ATOM      7  N   GLN d   1     -24.625  47.917  10.389  0.00  0.00    -0.346 N 
ATOM      8  C   LYS d   1     -24.870  46.918  11.228  0.00  0.00     0.241 C 
ATOM      9  O   LYS d   1     -25.783  46.939  12.054  0.00  0.00    -0.271 OA
ATOM     10  H54 GLN d   1     -23.833  47.860   9.781  0.00  0.00     0.163 HD
BRANCH   8  11
ATOM     11  CA  LYS d   1     -23.949  45.713  11.101  0.00  0.00     0.089 C 
ATOM     12  H42 LYS d   1     -22.937  46.068  10.856  0.00  0.00     0.087 H 
BRANCH  11  13
ATOM     13  N   LYS d   1     -23.861  44.910  12.318  0.00  0.00    -0.346 N 
ATOM     14  C   VAL d   1     -22.784  44.935  13.097  0.00  0.00     0.241 C 
ATOM     15  O   VAL d   1     -21.798  45.632  12.861  0.00  0.00    -0.271 OA
ATOM     16  H41 LYS d   1     -24.632  44.326  12.572  0.00  0.00     0.163 HD
BRANCH  14  17
ATOM     17  CA  VAL d   1     -22.820  44.045  14.328  0.00  0.00     0.092 C 
ATOM     18  H33 VAL d   1     -23.485  43.190  14.138  0.00  0.00     0.088 H 
BRANCH  17  19
ATOM     19  N   VAL d   1     -21.479  43.545  14.598  0.00  0.00    -0.346 N 
ATOM     20  C   TYR d   1     -21.217  42.251  14.491  0.00  0.00     0.241 C 
ATOM     21  O   TYR d   1     -22.079  41.424  14.208  0.00  0.00    -0.271 OA
ATOM     22  H32 VAL d   1     -20.754  44.180  14.865  0.00  0.00     0.163 HD
BRANCH  20  23
ATOM     23  CA  TYR d   1     -19.785  41.806  14.751  0.00  0.00     0.093 C 
ATOM     24  H24 TYR d   1     -19.238  42.575  15.316  0.00  0.00     0.088 H 
BRANCH  23  25
ATOM     25  N   TYR d   1     -19.855  40.570  15.520  0.00  0.00    -0.346 N 
ATOM     26  C   LYS d   1     -20.241  40.537  16.792  0.00  0.00     0.241 C 
ATOM     27  O   LYS d   1     -20.523  41.543  17.435  0.00  0.00    -0.271 OA
ATOM     28  H23 TYR d   1     -19.602  39.712  15.073  0.00  0.00     0.163 HD
BRANCH  26  29
ATOM     29  CA  LYS d   1     -20.290  39.149  17.428  0.00  0.00     0.089 C 
ATOM     30  H11 LYS d   1     -19.775  38.461  16.741  0.00  0.00     0.087 H 
BRANCH  29  31
ATOM     31  N   LYS d   1     -19.622  39.050  18.711  0.00  0.00    -0.346 N 
ATOM     32  C   PRO d   1     -18.506  38.341  18.849  0.00  0.00     0.249 C 
ATOM     33  O   PRO d   1     -17.952  37.767  17.908  0.00  0.00    -0.271 OA
ATOM     34  H10 LYS d   1     -20.007  39.522  19.504  0.00  0.00     0.163 HD
BRANCH  32  35
ATOM     35  CA  PRO d   1     -17.913  38.284  20.253  0.00  0.00     0.178 C 
ATOM     36  N   PRO d   1     -17.387  36.923  20.529  0.00  0.00    -0.062 N 
ATOM     37  CD  PRO d   1     -15.939  36.998  20.783  0.00  0.00     0.083 C 
ATOM     38  H1  PRO d   1     -17.558  36.329  19.733  0.00  0.00     0.278 HD
ATOM     39  H2  PRO d   1     -17.851  36.541  21.339  0.00  0.00     0.278 HD
ATOM     40  CG  PRO d   1     -15.766  38.451  21.242  0.00  0.00    -0.040 C 
ATOM     41  H8  PRO d   1     -15.363  36.797  19.868  0.00  0.00     0.075 H 
ATOM     42  H9  PRO d   1     -15.635  36.292  21.570  0.00  0.00     0.075 H 
ATOM     43  CB  PRO d   1     -16.747  39.257  20.381  0.00  0.00    -0.028 C 
ATOM     44  H6  PRO d   1     -16.014  38.552  22.309  0.00  0.00     0.035 H 
ATOM     45  H7  PRO d   1     -14.733  38.790  21.072  0.00  0.00     0.035 H 
ATOM     46  H4  PRO d   1     -17.053  40.186  20.884  0.00  0.00     0.036 H 
ATOM     47  H5  PRO d   1     -16.315  39.497  19.398  0.00  0.00     0.036 H 
ATOM     48  H3  PRO d   1     -18.692  38.539  20.986  0.00  0.00     0.099 H 
ENDBRANCH  32  35
ENDBRANCH  29  31
BRANCH  29  49
ATOM     49  CB  LYS d   1     -21.746  38.683  17.563  0.00  0.00    -0.038 C 
ATOM     50  H12 LYS d   1     -22.325  39.482  18.049  0.00  0.00     0.036 H 
ATOM     51  H13 LYS d   1     -21.767  37.780  18.191  0.00  0.00     0.036 H 
BRANCH  49  52
ATOM     52  CG  LYS d   1     -22.400  38.357  16.224  0.00  0.00    -0.061 C 
ATOM     53  H14 LYS d   1     -21.640  37.919  15.560  0.00  0.00     0.033 H 
ATOM     54  H15 LYS d   1     -22.780  39.290  15.782  0.00  0.00     0.033 H 
BRANCH  52  55
ATOM     55  CD  LYS d   1     -23.559  37.373  16.354  0.00  0.00    -0.043 C 
ATOM     56  H16 LYS d   1     -24.462  37.916  16.669  0.00  0.00     0.035 H 
ATOM     57  H17 LYS d   1     -23.306  36.612  17.107  0.00  0.00     0.035 H 
BRANCH  55  58
ATOM     58  CE  LYS d   1     -23.825  36.686  15.010  0.00  0.00     0.080 C 
ATOM     59  H18 LYS d   1     -22.883  36.244  14.655  0.00  0.00     0.075 H 
ATOM     60  H19 LYS d   1     -24.166  37.448  14.293  0.00  0.00     0.075 H 
BRANCH  58  61
ATOM     61  NZ  LYS d   1     -24.856  35.606  15.074  0.00  0.00    -0.079 N 
ATOM     62  H20 LYS d   1     -24.977  35.202  14.158  0.00  0.00     0.274 HD
ATOM     63  H21 LYS d   1     -25.731  35.995  15.388  0.00  0.00     0.274 HD
ATOM     64  H22 LYS d   1     -24.555  34.892  15.719  0.00  0.00     0.274 HD
ENDBRANCH  58  61
ENDBRANCH  55  58
ENDBRANCH  52  55
ENDBRANCH  49  52
ENDBRANCH  29  49
ENDBRANCH  26  29
ENDBRANCH  23  25
BRANCH  23  65
ATOM     65  CB  TYR d   1     -19.097  41.562  13.402  0.00  0.00    -0.014 C 
ATOM     66  H25 TYR d   1     -19.488  42.297  12.683  0.00  0.00     0.043 H 
ATOM     67  H26 TYR d   1     -19.357  40.547  13.066  0.00  0.00     0.043 H 
BRANCH  65  68
ATOM     68  CG  TYR d   1     -17.589  41.678  13.417  0.00  0.00    -0.056 A 
ATOM     69  CD1 TYR d   1     -16.962  42.925  13.483  0.00  0.00    -0.074 A 
ATOM     70  CE1 TYR d   1     -15.571  43.034  13.474  0.00  0.00    -0.051 A 
ATOM     71  H27 TYR d   1     -17.567  43.823  13.542  0.00  0.00     0.084 H 
ATOM     72  CZ  TYR d   1     -14.795  41.883  13.403  0.00  0.00     0.065 A 
ATOM     73  H29 TYR d   1     -15.099  44.009  13.522  0.00  0.00     0.087 H 
ATOM     74  CE2 TYR d   1     -15.394  40.638  13.343  0.00  0.00    -0.051 A 
ATOM     75  CD2 TYR d   1     -16.785  40.541  13.347  0.00  0.00    -0.074 A 
ATOM     76  H30 TYR d   1     -14.785  39.742  13.293  0.00  0.00     0.087 H 
ATOM     77  H28 TYR d   1     -17.250  39.563  13.295  0.00  0.00     0.084 H 
BRANCH  72  78
ATOM     78  OH  TYR d   1     -13.423  41.970  13.367  0.00  0.00    -0.361 OA
ATOM     79  H31 TYR d   1     -13.163  42.883  13.416  0.00  0.00     0.217 HD
ENDBRANCH  72  78
ENDBRANCH  65  68
ENDBRANCH  23  65
ENDBRANCH  20  23
ENDBRANCH  17  19
BRANCH  17  80
ATOM     80  CB  VAL d   1     -23.374  44.847  15.516  0.00  0.00    -0.033 C 
ATOM     81  H34 VAL d   1     -22.673  45.658  15.762  0.00  0.00     0.042 H 
BRANCH  80  82
ATOM     82  CG1 VAL d   1     -24.717  45.443  15.153  0.00  0.00    -0.071 C 
ATOM     83  H35 VAL d   1     -25.107  46.015  16.008  0.00  0.00     0.028 H 
ATOM     84  H36 VAL d   1     -25.420  44.636  14.901  0.00  0.00     0.028 H 
ATOM     85  H37 VAL d   1     -24.600  46.111  14.287  0.00  0.00     0.028 H 
ENDBRANCH  80  82
BRANCH  80  86
ATOM     86  CG2 VAL d   1     -23.529  43.934  16.729  0.00  0.00    -0.071 C 
ATOM     87  H38 VAL d   1     -22.552  43.502  16.990  0.00  0.00     0.028 H 
ATOM     88  H39 VAL d   1     -24.235  43.125  16.491  0.00  0.00     0.028 H 
ATOM     89  H40 VAL d   1     -23.912  44.517  17.580  0.00  0.00     0.028 H 
ENDBRANCH  80  86
ENDBRANCH  17  80
ENDBRANCH  14  17
ENDBRANCH  11  13
BRANCH  11  90
ATOM     90  CB  LYS d   1     -24.485  44.868   9.939  0.00  0.00    -0.038 C 
ATOM     91  H43 LYS d   1     -24.040  43.864  10.006  0.00  0.00     0.036 H 
ATOM     92  H44 LYS d   1     -24.178  45.342   8.995  0.00  0.00     0.036 H 
BRANCH  90  93
ATOM     93  CG  LYS d   1     -26.025  44.720   9.933  0.00  0.00    -0.061 C 
ATOM     94  H45 LYS d   1     -26.481  45.720   9.989  0.00  0.00     0.033 H 
ATOM     95  H46 LYS d   1     -26.331  44.128  10.808  0.00  0.00     0.033 H 
BRANCH  93  96
ATOM     96  CD  LYS d   1     -26.512  44.024   8.671  0.00  0.00    -0.043 C 
ATOM     97  H47 LYS d   1     -26.182  42.975   8.696  0.00  0.00     0.035 H 
ATOM     98  H48 LYS d   1     -26.071  44.526   7.798  0.00  0.00     0.035 H 
BRANCH  96  99
ATOM     99  CE  LYS d   1     -28.030  44.057   8.540  0.00  0.00     0.080 C 
ATOM    100  H49 LYS d   1     -28.300  43.648   7.555  0.00  0.00     0.075 H 
ATOM    101  H50 LYS d   1     -28.359  45.105   8.604  0.00  0.00     0.075 H 
BRANCH  99 102
ATOM    102  NZ  LYS d   1     -28.747  43.280   9.579  0.00  0.00    -0.079 N 
ATOM    103  H51 LYS d   1     -29.741  43.350   9.425  0.00  0.00     0.274 HD
ATOM    104  H52 LYS d   1     -28.521  43.648  10.490  0.00  0.00     0.274 HD
ATOM    105  H53 LYS d   1     -28.467  42.313   9.528  0.00  0.00     0.274 HD
ENDBRANCH  99 102
ENDBRANCH  96  99
ENDBRANCH  93  96
ENDBRANCH  90  93
ENDBRANCH  11  90
ENDBRANCH   8  11
ENDBRANCH   5   7
BRANCH   5 106
ATOM    106  CB  GLN d   1     -24.680  50.331   9.926  0.00  0.00    -0.030 C 
ATOM    107  H56 GLN d   1     -25.337  50.992   9.341  0.00  0.00     0.037 H 
ATOM    108  H57 GLN d   1     -23.835  50.006   9.300  0.00  0.00     0.037 H 
BRANCH 106 109
ATOM    109  CG  GLN d   1     -24.127  51.125  11.101  0.00  0.00     0.011 C 
ATOM    110  H58 GLN d   1     -23.634  52.031  10.718  0.00  0.00     0.047 H 
ATOM    111  H59 GLN d   1     -23.392  50.505  11.635  0.00  0.00     0.047 H 
BRANCH 109 112
ATOM    112  CD  GLN d   1     -25.225  51.534  12.072  0.00  0.00     0.215 C 
ATOM    113  OE1 GLN d   1     -25.693  50.725  12.872  0.00  0.00    -0.274 OA
ATOM    114  NE2 GLN d   1     -25.652  52.787  11.990  0.00  0.00    -0.370 N 
ATOM    115  H60 GLN d   1     -26.372  53.111  12.604  0.00  0.00     0.159 HD
ATOM    116  H61 GLN d   1     -25.254  53.408  11.315  0.00  0.00     0.159 HD
ENDBRANCH 109 112
ENDBRANCH 106 109
ENDBRANCH   5 106
ENDBRANCH   1   5
BRANCH   3 117
ATOM    117  CA  ASN d   1     -28.819  48.694   8.525  0.00  0.00     0.097 C 
ATOM    118  H63 ASN d   1     -28.573  47.729   8.058  0.00  0.00     0.088 H 
BRANCH 117 119
ATOM    119  C   ASN d   1     -28.906  49.751   7.433  0.00  0.00     0.241 C 
ATOM    120  O   ASN d   1     -28.736  50.948   7.689  0.00  0.00    -0.271 OA
ATOM    121  N   THR d   1     -29.178  49.296   6.215  0.00  0.00    -0.344 N 
ATOM    122  H68 THR d   1     -29.297  48.312   6.080  0.00  0.00     0.163 HD
BRANCH 121 123
ATOM    123  CA  THR d   1     -29.308  50.184   5.072  0.00  0.00     0.113 C 
ATOM    124  H69 THR d   1     -28.550  50.978   5.152  0.00  0.00     0.091 H 
BRANCH 123 125
ATOM    125  C   THR d   1     -30.700  50.827   5.076  0.00  0.00     0.243 C 
ATOM    126  O   THR d   1     -31.724  50.150   5.203  0.00  0.00    -0.271 OA
ATOM    127  N   LEU d   1     -30.728  52.145   4.953  0.00  0.00    -0.346 N 
ATOM    128  H75 LEU d   1     -29.866  52.645   4.867  0.00  0.00     0.163 HD
BRANCH 127 129
ATOM    129  CA  LEU d   1     -31.983  52.885   4.940  0.00  0.00     0.089 C 
ATOM    130  H76 LEU d   1     -32.705  52.384   5.601  0.00  0.00     0.087 H 
BRANCH 129 131
ATOM    131  C   LEU d   1     -32.556  52.951   3.529  0.00  0.00     0.241 C 
ATOM    132  O   LEU d   1     -31.809  52.989   2.552  0.00  0.00    -0.271 OA
ATOM    133  N   LYS d   1     -33.878  52.971   3.427  0.00  0.00    -0.346 N 
ATOM    134  H86 LYS d   1     -34.434  52.924   4.257  0.00  0.00     0.163 HD
BRANCH 133 135
ATOM    135  CA  LYS d   1     -34.538  53.061   2.126  0.00  0.00     0.089 C 
ATOM    136  H87 LYS d   1     -34.022  52.424   1.393  0.00  0.00     0.087 H 
BRANCH 135 137
ATOM    137  C   LYS d   1     -34.469  54.529   1.695  0.00  0.00     0.241 C 
ATOM    138  O   LYS d   1     -34.634  55.426   2.523  0.00  0.00    -0.271 OA
ATOM    139  N   LEU d   1     -34.214  54.775   0.412  0.00  0.00    -0.346 N 
ATOM    140  H99 LEU d   1     -34.079  54.009  -0.216  0.00  0.00     0.163 HD
BRANCH 139 141
ATOM    141  CA  LEU d   1     -34.127  56.141  -0.097  0.00  0.00     0.089 C 
ATOM    142 0H10 LEU d   1     -33.463  56.714   0.567  0.00  0.00     0.087 H 
BRANCH 141 143
ATOM    143  C   LEU d   1     -35.485  56.821  -0.128  0.00  0.00     0.241 C 
ATOM    144  O   LEU d   1     -36.516  56.163  -0.020  0.00  0.00    -0.271 OA
ATOM    145  N   ALA d   1     -35.480  58.144  -0.272  0.00  0.00    -0.346 N 
ATOM    146 0H11 ALA d   1     -34.607  58.628  -0.337  0.00  0.00     0.163 HD
BRANCH 145 147
ATOM    147  CA  ALA d   1     -36.725  58.901  -0.337  0.00  0.00     0.086 C 
ATOM    148 1H11 ALA d   1     -37.361  58.626   0.517  0.00  0.00     0.086 H 
BRANCH 147 149
ATOM    149  C   ALA d   1     -37.447  58.558  -1.633  0.00  0.00     0.240 C 
ATOM    150  O   ALA d   1     -36.841  58.537  -2.705  0.00  0.00    -0.271 OA
ATOM    151  N   THR d   1     -38.741  58.285  -1.528  0.00  0.00    -0.343 N 
ATOM    152 5H11 THR d   1     -39.174  58.306  -0.627  0.00  0.00     0.163 HD
BRANCH 151 153
ATOM    153  CA  THR d   1     -39.545  57.955  -2.700  0.00  0.00     0.120 C 
ATOM    154 6H11 THR d   1     -38.868  57.738  -3.539  0.00  0.00     0.093 H 
BRANCH 153 155
ATOM    155  C   THR d   1     -40.438  59.132  -3.072  0.00  0.00     0.199 C 
ATOM    156  O   THR d   1     -40.435  59.513  -4.262  0.00  0.00    -0.646 OA
ATOM    157  OXT THR d   1     -41.131  59.651  -2.168  0.00  0.00    -0.646 OA
ENDBRANCH 153 155
BRANCH 153 158
ATOM    158  CB  THR d   1     -40.431  56.724  -2.447  0.00  0.00     0.061 C 
ATOM    159 7H11 THR d   1     -41.033  56.893  -1.542  0.00  0.00     0.086 H 
BRANCH 158 160
ATOM    160  OG1 THR d   1     -39.600  55.573  -2.255  0.00  0.00    -0.393 OA
ATOM    161 8H11 THR d   1     -40.146  54.812  -2.099  0.00  0.00     0.210 HD
ENDBRANCH 158 160
BRANCH 158 162
ATOM    162  CG2 THR d   1     -41.361  56.488  -3.628  0.00  0.00    -0.050 C 
ATOM    163 9H11 THR d   1     -41.987  55.605  -3.431  0.00  0.00     0.031 H 
ATOM    164 0H12 THR d   1     -40.764  56.319  -4.537  0.00  0.00     0.031 H 
ATOM    165 1H12 THR d   1     -42.004  57.369  -3.770  0.00  0.00     0.031 H 
ENDBRANCH 158 162
ENDBRANCH 153 158
ENDBRANCH 151 153
ENDBRANCH 147 149
BRANCH 147 166
ATOM    166  CB  ALA d   1     -36.442  60.394  -0.284  0.00  0.00    -0.049 C 
ATOM    167 2H11 ALA d   1     -37.390  60.949  -0.334  0.00  0.00     0.030 H 
ATOM    168 3H11 ALA d   1     -35.806  60.677  -1.136  0.00  0.00     0.030 H 
ATOM    169 4H11 ALA d   1     -35.925  60.636   0.656  0.00  0.00     0.030 H 
ENDBRANCH 147 166
ENDBRANCH 145 147
ENDBRANCH 141 143
BRANCH 141 170
ATOM    170  CB  LEU d   1     -33.542  56.151  -1.509  0.00  0.00    -0.035 C 
ATOM    171 1H10 LEU d   1     -33.622  57.178  -1.896  0.00  0.00     0.037 H 
ATOM    172 2H10 LEU d   1     -34.153  55.477  -2.128  0.00  0.00     0.037 H 
BRANCH 170 173
ATOM    173  CG  LEU d   1     -32.086  55.716  -1.651  0.00  0.00    -0.059 C 
ATOM    174 3H10 LEU d   1     -31.979  54.682  -1.290  0.00  0.00     0.038 H 
BRANCH 173 175
ATOM    175  CD1 LEU d   1     -31.692  55.778  -3.114  0.00  0.00    -0.073 C 
ATOM    176 4H10 LEU d   1     -30.643  55.466  -3.225  0.00  0.00     0.028 H 
ATOM    177 5H10 LEU d   1     -31.809  56.808  -3.482  0.00  0.00     0.028 H 
ATOM    178 6H10 LEU d   1     -32.338  55.105  -3.697  0.00  0.00     0.028 H 
ENDBRANCH 173 175
BRANCH 173 179
ATOM    179  CD2 LEU d   1     -31.184  56.628  -0.825  0.00  0.00    -0.073 C 
ATOM    180 7H10 LEU d   1     -31.479  56.575   0.233  0.00  0.00     0.028 H 
ATOM    181 8H10 LEU d   1     -31.284  57.664  -1.182  0.00  0.00     0.028 H 
ATOM    182 9H10 LEU d   1     -30.138  56.303  -0.931  0.00  0.00     0.028 H 
ENDBRANCH 173 179
ENDBRANCH 170 173
ENDBRANCH 141 170
ENDBRANCH 139 141
ENDBRANCH 135 137
BRANCH 135 183
ATOM    183  CB  LYS d   1     -36.002  52.624   2.246  0.00  0.00    -0.038 C 
ATOM    184  H88 LYS d   1     -36.352  52.306   1.253  0.00  0.00     0.036 H 
ATOM    185  H89 LYS d   1     -36.595  53.486   2.585  0.00  0.00     0.036 H 
BRANCH 183 186
ATOM    186  CG  LYS d   1     -36.221  51.474   3.225  0.00  0.00    -0.061 C 
ATOM    187  H90 LYS d   1     -35.772  51.744   4.192  0.00  0.00     0.033 H 
ATOM    188  H91 LYS d   1     -35.726  50.575   2.829  0.00  0.00     0.033 H 
BRANCH 186 189
ATOM    189  CD  LYS d   1     -37.699  51.163   3.442  0.00  0.00    -0.043 C 
ATOM    190  H92 LYS d   1     -38.215  52.082   3.757  0.00  0.00     0.035 H 
ATOM    191  H93 LYS d   1     -37.791  50.402   4.231  0.00  0.00     0.035 H 
BRANCH 189 192
ATOM    192  CE  LYS d   1     -38.355  50.639   2.172  0.00  0.00     0.080 C 
ATOM    193  H94 LYS d   1     -37.777  49.779   1.802  0.00  0.00     0.075 H 
ATOM    194  H95 LYS d   1     -38.352  51.437   1.415  0.00  0.00     0.075 H 
BRANCH 192 195
ATOM    195  NZ  LYS d   1     -39.762  50.207   2.411  0.00  0.00    -0.079 N 
ATOM    196  H96 LYS d   1     -40.160  49.868   1.549  0.00  0.00     0.274 HD
ATOM    197  H97 LYS d   1     -40.302  50.990   2.745  0.00  0.00     0.274 HD
ATOM    198  H98 LYS d   1     -39.775  49.471   3.100  0.00  0.00     0.274 HD
ENDBRANCH 192 195
ENDBRANCH 189 192
ENDBRANCH 186 189
ENDBRANCH 183 186
ENDBRANCH 135 183
ENDBRANCH 133 135
ENDBRANCH 129 131
BRANCH 129 199
ATOM    199  CB  LEU d   1     -31.733  54.304   5.440  0.00  0.00    -0.035 C 
ATOM    200  H77 LEU d   1     -32.693  54.840   5.458  0.00  0.00     0.037 H 
ATOM    201  H78 LEU d   1     -31.047  54.803   4.740  0.00  0.00     0.037 H 
BRANCH 199 202
ATOM    202  CG  LEU d   1     -31.122  54.362   6.836  0.00  0.00    -0.059 C 
ATOM    203  H79 LEU d   1     -30.314  53.619   6.904  0.00  0.00     0.038 H 
BRANCH 202 204
ATOM    204  CD1 LEU d   1     -30.533  55.732   7.094  0.00  0.00    -0.073 C 
ATOM    205  H80 LEU d   1     -30.096  55.759   8.103  0.00  0.00     0.028 H 
ATOM    206  H81 LEU d   1     -31.324  56.492   7.016  0.00  0.00     0.028 H 
ATOM    207  H82 LEU d   1     -29.750  55.941   6.350  0.00  0.00     0.028 H 
ENDBRANCH 202 204
BRANCH 202 208
ATOM    208  CD2 LEU d   1     -32.192  54.010   7.853  0.00  0.00    -0.073 C 
ATOM    209  H83 LEU d   1     -32.594  53.010   7.631  0.00  0.00     0.028 H 
ATOM    210  H84 LEU d   1     -33.004  54.751   7.803  0.00  0.00     0.028 H 
ATOM    211  H85 LEU d   1     -31.754  54.014   8.862  0.00  0.00     0.028 H 
ENDBRANCH 202 208
ENDBRANCH 199 202
ENDBRANCH 129 199
ENDBRANCH 127 129
ENDBRANCH 123 125
BRANCH 123 212
ATOM    212  CB  THR d   1     -29.073  49.403   3.744  0.00  0.00     0.060 C 
ATOM    213  H70 THR d   1     -29.402  50.021   2.896  0.00  0.00     0.086 H 
BRANCH 212 214
ATOM    214  OG1 THR d   1     -29.803  48.176   3.770  0.00  0.00    -0.393 OA
ATOM    215  H71 THR d   1     -29.656  47.704   2.958  0.00  0.00     0.210 HD
ENDBRANCH 212 214
BRANCH 212 216
ATOM    216  CG2 THR d   1     -27.616  49.043   3.581  0.00  0.00    -0.050 C 
ATOM    217  H72 THR d   1     -27.477  48.494   2.638  0.00  0.00     0.031 H 
ATOM    218  H73 THR d   1     -27.298  48.411   4.423  0.00  0.00     0.031 H 
ATOM    219  H74 THR d   1     -27.011  49.962   3.562  0.00  0.00     0.031 H 
ENDBRANCH 212 216
ENDBRANCH 123 212
ENDBRANCH 121 123
ENDBRANCH 117 119
BRANCH 117 220
ATOM    220  CB  ASN d   1     -30.192  48.573   9.208  0.00  0.00     0.036 C 
ATOM    221  H64 ASN d   1     -30.941  48.311   8.447  0.00  0.00     0.051 H 
ATOM    222  H65 ASN d   1     -30.448  49.544   9.656  0.00  0.00     0.051 H 
BRANCH 220 223
ATOM    223  CG  ASN d   1     -30.217  47.512  10.300  0.00  0.00     0.217 C 
ATOM    224  OD1 ASN d   1     -29.593  46.457  10.178  0.00  0.00    -0.274 OA
ATOM    225  ND2 ASN d   1     -30.960  47.783  11.369  0.00  0.00    -0.370 N 
ATOM    226  H66 ASN d   1     -31.016  47.124  12.119  0.00  0.00     0.159 HD
ATOM    227  H67 ASN d   1     -31.463  48.646  11.423  0.00  0.00     0.159 HD
ENDBRANCH 220 223
ENDBRANCH 117 220
ENDBRANCH   3 117
TORSDOF 66
