REMARK  2 active torsions:
REMARK  status: ('A' for Active; 'I' for Inactive)
REMARK    1  A    between atoms: C1'_1  and  C1_3 
REMARK    2  A    between atoms: C4_6  and  O4_9 
ROOT
ATOM      1  C1  HBA d   1      34.048  71.507  18.770  0.00  0.00     0.002 A 
ATOM      2  C2  HBA d   1      34.520  70.212  18.363  0.00  0.00    -0.068 A 
ATOM      3  C3  HBA d   1      35.696  69.695  18.945  0.00  0.00    -0.050 A 
ATOM      4  C4  HBA d   1      36.379  70.462  19.912  0.00  0.00     0.065 A 
ATOM      5  C5  HBA d   1      35.909  71.723  20.296  0.00  0.00    -0.050 A 
ATOM      6  C6  HBA d   1      34.750  72.231  19.722  0.00  0.00    -0.068 A 
ATOM      7  H2  HBA d   1      33.979  69.640  17.618  0.00  0.00     0.085 H 
ATOM      8  H3  HBA d   1      36.070  68.721  18.653  0.00  0.00     0.087 H 
ATOM      9  H4  HBA d   1      36.447  72.301  21.038  0.00  0.00     0.087 H 
ATOM     10  H5  HBA d   1      34.389  73.208  20.023  0.00  0.00     0.085 H 
ENDROOT
BRANCH   1  11
ATOM     11  C1' HBA d   1      32.899  72.115  18.271  0.00  0.00     0.118 C 
ATOM     12  O1' HBA d   1      32.229  71.500  17.414  0.00  0.00    -0.301 OA
ATOM     13  H1  HBA d   1      32.592  73.100  18.618  0.00  0.00     0.151 H 
ENDBRANCH   1  11
BRANCH   4  14
ATOM     14  O4  HBA d   1      37.416  70.082  20.480  0.00  0.00    -0.361 OA
ATOM     15  H6  HBA d   1      37.265  70.038  21.417  0.00  0.00     0.217 HD
ENDBRANCH   4  14
TORSDOF 2
