REMARK  7 active torsions:
REMARK  status: ('A' for Active; 'I' for Inactive)
REMARK    1  A    between atoms: C1_2  and  N1_12 
REMARK    2  A    between atoms: C2_3  and  O2_4 
REMARK    3  A    between atoms: C3_5  and  O3_6 
REMARK    4  A    between atoms: C4_7  and  O4_8 
REMARK    5  A    between atoms: C5_9  and  C6_10 
REMARK    6  A    between atoms: C6_10  and  O6_11 
REMARK       I    between atoms: N1_12  and  C7_13 
REMARK       I    between atoms: C7_13  and  N2_15 
REMARK       I    between atoms: N2_15  and  C8_16 
REMARK    7  A    between atoms: C8_16  and  C9_18 
ROOT
ATOM      1  O5  BZD d   1      33.110  21.510  28.384  0.00  0.00    -0.354 OA
ATOM      2  C1  BZD d   1      33.274  22.923  28.068  0.00  0.00     0.135 C 
ATOM      3  C2  BZD d   1      33.743  23.103  26.576  0.00  0.00     0.104 C 
ATOM      4  C3  BZD d   1      32.653  22.471  25.655  0.00  0.00     0.091 C 
ATOM      5  C4  BZD d   1      32.508  20.983  26.036  0.00  0.00     0.089 C 
ATOM      6  C5  BZD d   1      32.128  20.861  27.543  0.00  0.00     0.088 C 
ATOM      7  H1  BZD d   1      32.308  23.435  28.194  0.00  0.00     0.122 H 
ATOM      8  H2  BZD d   1      34.697  22.578  26.424  0.00  0.00     0.093 H 
ATOM      9  H4  BZD d   1      31.693  22.984  25.812  0.00  0.00     0.091 H 
ATOM     10  H6  BZD d   1      33.466  20.469  25.867  0.00  0.00     0.091 H 
ATOM     11  H8  BZD d   1      31.152  21.347  27.693  0.00  0.00     0.090 H 
ENDROOT
BRANCH   2  12
ATOM     12  N1  BZD d   1      34.233  23.491  29.003  0.00  0.00    -0.314 N 
ATOM     13  C7  BZD d   1      33.806  24.133  30.139  0.00  0.00     0.325 C 
ATOM     14  O7  BZD d   1      32.582  24.213  30.344  0.00  0.00    -0.247 OA
ATOM     15  N2  BZD d   1      34.702  24.668  31.029  0.00  0.00    -0.275 N 
ATOM     16  C8  BZD d   1      34.399  25.322  32.200  0.00  0.00     0.259 C 
ATOM     17  H13 BZD d   1      35.672  24.573  30.804  0.00  0.00     0.173 HD
ATOM     18  O8  BZD d   1      33.241  25.519  32.596  0.00  0.00    -0.267 OA
ATOM     19  H12 BZD d   1      35.212  23.413  28.817  0.00  0.00     0.167 HD
BRANCH  16  20
ATOM     20  C9  BZD d   1      35.524  25.838  33.070  0.00  0.00     0.032 A 
ATOM     21  C10 BZD d   1      36.762  26.274  32.504  0.00  0.00    -0.068 A 
ATOM     22  C11 BZD d   1      37.807  26.748  33.338  0.00  0.00    -0.082 A 
ATOM     23  H14 BZD d   1      36.903  26.242  31.430  0.00  0.00     0.085 H 
ATOM     24  C12 BZD d   1      37.623  26.794  34.760  0.00  0.00    -0.083 A 
ATOM     25  H15 BZD d   1      38.744  27.075  32.901  0.00  0.00     0.083 H 
ATOM     26  C13 BZD d   1      36.395  26.361  35.335  0.00  0.00    -0.082 A 
ATOM     27  H16 BZD d   1      38.420  27.159  35.397  0.00  0.00     0.083 H 
ATOM     28  C14 BZD d   1      35.349  25.885  34.495  0.00  0.00    -0.068 A 
ATOM     29  H17 BZD d   1      36.257  26.394  36.410  0.00  0.00     0.083 H 
ATOM     30  H18 BZD d   1      34.414  25.556  34.934  0.00  0.00     0.085 H 
ENDBRANCH  16  20
ENDBRANCH   2  12
BRANCH   3  31
ATOM     31  O2  BZD d   1      33.927  24.496  26.281  0.00  0.00    -0.389 OA
ATOM     32  H3  BZD d   1      33.106  24.957  26.408  0.00  0.00     0.210 HD
ENDBRANCH   3  31
BRANCH   6  33
ATOM     33  C6  BZD d   1      32.023  19.376  27.984  0.00  0.00     0.043 C 
ATOM     34  H9  BZD d   1      31.127  18.921  27.537  0.00  0.00     0.078 H 
ATOM     35  H10 BZD d   1      31.954  19.320  29.080  0.00  0.00     0.078 H 
BRANCH  33  36
ATOM     36  O6  BZD d   1      33.202  18.669  27.535  0.00  0.00    -0.398 OA
ATOM     37  H11 BZD d   1      33.974  19.065  27.922  0.00  0.00     0.209 HD
ENDBRANCH  33  36
ENDBRANCH   6  33
BRANCH   4  38
ATOM     38  O3  BZD d   1      33.042  22.613  24.281  0.00  0.00    -0.390 OA
ATOM     39  H5  BZD d   1      33.136  23.535  24.073  0.00  0.00     0.210 HD
ENDBRANCH   4  38
BRANCH   5  40
ATOM     40  O4  BZD d   1      31.500  20.385  25.203  0.00  0.00    -0.390 OA
ATOM     41  H7  BZD d   1      30.673  20.833  25.337  0.00  0.00     0.210 HD
ENDBRANCH   5  40
TORSDOF 7
