REMARK  7 active torsions:
REMARK  status: ('A' for Active; 'I' for Inactive)
REMARK    1  A    between atoms: C1_2  and  N1_12 
REMARK    2  A    between atoms: C2_3  and  O2_4 
REMARK    3  A    between atoms: C3_5  and  O3_6 
REMARK    4  A    between atoms: C4_7  and  O4_8 
REMARK    5  A    between atoms: C5_9  and  C6_10 
REMARK    6  A    between atoms: C6_10  and  O6_11 
REMARK       I    between atoms: N1_12  and  C7_13 
REMARK       I    between atoms: C7_13  and  N2_15 
REMARK       I    between atoms: N2_15  and  C8_16 
REMARK    7  A    between atoms: C8_16  and  C9_18 
ROOT
ATOM      1  O5  BZD d   1      33.034  21.455  28.308  0.00  0.00    -0.354 OA
ATOM      2  C1  BZD d   1      33.218  22.872  28.012  0.00  0.00     0.135 C 
ATOM      3  C2  BZD d   1      33.669  23.091  26.523  0.00  0.00     0.104 C 
ATOM      4  C3  BZD d   1      32.570  22.486  25.593  0.00  0.00     0.091 C 
ATOM      5  C4  BZD d   1      32.425  20.985  25.941  0.00  0.00     0.089 C 
ATOM      6  C5  BZD d   1      32.050  20.836  27.452  0.00  0.00     0.088 C 
ATOM      7  H1  BZD d   1      32.259  23.391  28.157  0.00  0.00     0.122 H 
ATOM      8  H2  BZD d   1      34.620  22.566  26.347  0.00  0.00     0.093 H 
ATOM      9  H4  BZD d   1      31.612  22.994  25.775  0.00  0.00     0.091 H 
ATOM     10  H6  BZD d   1      33.381  20.473  25.759  0.00  0.00     0.091 H 
ATOM     11  H8  BZD d   1      31.080  21.330  27.610  0.00  0.00     0.090 H 
ENDROOT
BRANCH   2  12
ATOM     12  N1  BZD d   1      34.187  23.413  28.955  0.00  0.00    -0.314 N 
ATOM     13  C7  BZD d   1      33.774  24.078  30.080  0.00  0.00     0.325 C 
ATOM     14  O7  BZD d   1      32.554  24.207  30.265  0.00  0.00    -0.247 OA
ATOM     15  N2  BZD d   1      34.678  24.590  30.974  0.00  0.00    -0.275 N 
ATOM     16  C8  BZD d   1      34.386  25.268  32.137  0.00  0.00     0.259 C 
ATOM     17  H13 BZD d   1      35.646  24.458  30.761  0.00  0.00     0.173 HD
ATOM     18  O8  BZD d   1      33.232  25.507  32.517  0.00  0.00    -0.267 OA
ATOM     19  H12 BZD d   1      35.165  23.298  28.780  0.00  0.00     0.167 HD
BRANCH  16  20
ATOM     20  C9  BZD d   1      35.510  25.764  33.024  0.00  0.00     0.032 A 
ATOM     21  C10 BZD d   1      36.737  26.254  32.482  0.00  0.00    -0.068 A 
ATOM     22  C11 BZD d   1      37.777  26.708  33.336  0.00  0.00    -0.082 A 
ATOM     23  H14 BZD d   1      36.876  26.280  31.407  0.00  0.00     0.085 H 
ATOM     24  C12 BZD d   1      37.604  26.669  34.749  0.00  0.00    -0.083 A 
ATOM     25  H15 BZD d   1      38.702  27.084  32.913  0.00  0.00     0.083 H 
ATOM     26  C13 BZD d   1      36.390  26.183  35.304  0.00  0.00    -0.082 A 
ATOM     27  H16 BZD d   1      38.399  27.011  35.402  0.00  0.00     0.083 H 
ATOM     28  C14 BZD d   1      35.349  25.729  34.446  0.00  0.00    -0.068 A 
ATOM     29  H17 BZD d   1      36.257  26.158  36.380  0.00  0.00     0.083 H 
ATOM     30  H18 BZD d   1      34.426  25.353  34.873  0.00  0.00     0.085 H 
ENDBRANCH  16  20
ENDBRANCH   2  12
BRANCH   3  31
ATOM     31  O2  BZD d   1      33.861  24.491  26.267  0.00  0.00    -0.389 OA
ATOM     32  H3  BZD d   1      33.045  24.954  26.418  0.00  0.00     0.210 HD
ENDBRANCH   3  31
BRANCH   6  33
ATOM     33  C6  BZD d   1      31.930  19.351  27.885  0.00  0.00     0.043 C 
ATOM     34  H9  BZD d   1      31.060  18.892  27.392  0.00  0.00     0.078 H 
ATOM     35  H10 BZD d   1      31.805  19.294  28.976  0.00  0.00     0.078 H 
BRANCH  33  36
ATOM     36  O6  BZD d   1      33.128  18.650  27.500  0.00  0.00    -0.398 OA
ATOM     37  H11 BZD d   1      33.878  19.048  27.927  0.00  0.00     0.209 HD
ENDBRANCH  33  36
ENDBRANCH   6  33
BRANCH   4  38
ATOM     38  O3  BZD d   1      32.942  22.673  24.217  0.00  0.00    -0.390 OA
ATOM     39  H5  BZD d   1      33.031  23.602  24.038  0.00  0.00     0.210 HD
ENDBRANCH   4  38
BRANCH   5  40
ATOM     40  O4  BZD d   1      31.416  20.412  25.093  0.00  0.00    -0.390 OA
ATOM     41  H7  BZD d   1      30.590  20.859  25.238  0.00  0.00     0.210 HD
ENDBRANCH   5  40
TORSDOF 7
