REMARK  10 active torsions:
REMARK  status: ('A' for Active; 'I' for Inactive)
REMARK    1  A    between atoms: C1_1  and  C8_8 
REMARK    2  A    between atoms: C8_8  and  N7_7 
REMARK    3  A    between atoms: N7_7  and  C28_28 
REMARK    4  A    between atoms: C8_8  and  C9_9 
REMARK       I    between atoms: C9_9  and  N11_11 
REMARK    5  A    between atoms: C12_12  and  C13_13 
REMARK       I    between atoms: C13_13  and  N15_15 
REMARK    6  A    between atoms: N15_15  and  C16_16 
REMARK    7  A    between atoms: C16_16  and  C17_17 
REMARK    8  A    between atoms: C20_20  and  C23_23 
REMARK    9  A    between atoms: C23_23  and  N24_24 
REMARK   10  A    between atoms: C28_28  and  C29_29 
ROOT
ATOM      1  C9  MEL d   1      41.749  24.467  53.841  0.00  0.00     0.231 C 
ATOM      2  O0  MEL d   1      42.338  23.411  53.862  0.00  0.00    -0.277 OA
ATOM      3  N11 MEL d   1      41.059  24.876  52.778  0.00  0.00    -0.238 NA
ATOM      4  C12 MEL d   1      41.367  24.357  51.397  0.00  0.00     0.080 C 
ATOM      5  C26 MEL d   1      41.045  25.745  50.820  0.00  0.00    -0.030 C 
ATOM      6  C27 MEL d   1      41.271  26.258  52.274  0.00  0.00    -0.011 C 
ATOM      7  H15 MEL d   1      40.679  23.569  51.058  0.00  0.00     0.079 H 
ATOM      8  H27 MEL d   1      40.021  25.866  50.436  0.00  0.00     0.037 H 
ATOM      9  H28 MEL d   1      41.763  26.120  50.075  0.00  0.00     0.037 H 
ATOM     10  H29 MEL d   1      42.279  26.657  52.460  0.00  0.00     0.056 H 
ATOM     11  H30 MEL d   1      40.520  26.984  52.618  0.00  0.00     0.056 H 
ENDROOT
BRANCH   1  12
ATOM     12  C8  MEL d   1      41.612  25.292  55.112  0.00  0.00     0.177 C 
ATOM     13  H14 MEL d   1      41.600  26.352  54.819  0.00  0.00     0.099 H 
BRANCH  12  14
ATOM     14  C1  MEL d   1      40.262  24.976  55.833  0.00  0.00    -0.018 C 
ATOM     15  C2  MEL d   1      39.084  25.912  55.382  0.00  0.00    -0.059 C 
ATOM     16  C3  MEL d   1      37.731  25.353  55.925  0.00  0.00    -0.065 C 
ATOM     17  H2  MEL d   1      39.049  25.952  54.283  0.00  0.00     0.033 H 
ATOM     18  H3  MEL d   1      39.248  26.924  55.781  0.00  0.00     0.033 H 
ATOM     19  C4  MEL d   1      37.778  25.294  57.464  0.00  0.00    -0.065 C 
ATOM     20  H4  MEL d   1      37.565  24.342  55.525  0.00  0.00     0.033 H 
ATOM     21  H5  MEL d   1      36.909  26.012  55.609  0.00  0.00     0.033 H 
ATOM     22  C5  MEL d   1      38.962  24.407  57.916  0.00  0.00    -0.065 C 
ATOM     23  H6  MEL d   1      36.837  24.868  57.843  0.00  0.00     0.033 H 
ATOM     24  H7  MEL d   1      37.908  26.310  57.865  0.00  0.00     0.033 H 
ATOM     25  C6  MEL d   1      40.305  24.961  57.384  0.00  0.00    -0.059 C 
ATOM     26  H8  MEL d   1      38.815  23.387  57.530  0.00  0.00     0.033 H 
ATOM     27  H9  MEL d   1      38.993  24.382  59.015  0.00  0.00     0.033 H 
ATOM     28  H10 MEL d   1      40.457  25.984  57.759  0.00  0.00     0.033 H 
ATOM     29  H11 MEL d   1      41.130  24.319  57.724  0.00  0.00     0.033 H 
ATOM     30  H1  MEL d   1      39.997  23.955  55.521  0.00  0.00     0.043 H 
ENDBRANCH  12  14
BRANCH  12  31
ATOM     31  N7  MEL d   1      42.758  25.096  56.050  0.00  0.00    -0.053 N 
ATOM     32  H12 MEL d   1      42.813  24.112  56.262  0.00  0.00     0.278 HD
ATOM     33  H13 MEL d   1      42.554  25.610  56.892  0.00  0.00     0.278 HD
BRANCH  31  34
ATOM     34  C28 MEL d   1      44.094  25.528  55.573  0.00  0.00     0.161 C 
ATOM     35  H31 MEL d   1      44.100  26.625  55.499  0.00  0.00     0.092 H 
ATOM     36  H32 MEL d   1      44.267  25.092  54.578  0.00  0.00     0.092 H 
BRANCH  34  37
ATOM     37  C29 MEL d   1      45.212  25.106  56.478  0.00  0.00     0.199 C 
ATOM     38  O30 MEL d   1      45.027  25.142  57.702  0.00  0.00    -0.647 OA
ATOM     39  O31 MEL d   1      46.305  24.740  55.975  0.00  0.00    -0.647 OA
ENDBRANCH  34  37
ENDBRANCH  31  34
ENDBRANCH  12  31
ENDBRANCH   1  12
BRANCH   4  40
ATOM     40  C13 MEL d   1      42.826  23.870  51.185  0.00  0.00     0.236 C 
ATOM     41  O14 MEL d   1      43.743  24.685  51.390  0.00  0.00    -0.272 OA
ATOM     42  N15 MEL d   1      43.053  22.632  50.729  0.00  0.00    -0.355 N 
ATOM     43  H16 MEL d   1      42.281  22.020  50.559  0.00  0.00     0.162 HD
BRANCH  42  44
ATOM     44  C16 MEL d   1      44.426  22.159  50.474  0.00  0.00     0.019 C 
ATOM     45  H17 MEL d   1      45.127  22.995  50.611  0.00  0.00     0.071 H 
ATOM     46  H18 MEL d   1      44.494  21.789  49.440  0.00  0.00     0.071 H 
BRANCH  44  47
ATOM     47  C17 MEL d   1      44.795  21.040  51.428  0.00  0.00    -0.040 A 
ATOM     48  C18 MEL d   1      45.083  21.360  52.765  0.00  0.00    -0.074 A 
ATOM     49  C19 MEL d   1      45.433  20.336  53.671  0.00  0.00    -0.069 A 
ATOM     50  H19 MEL d   1      45.037  22.390  53.100  0.00  0.00     0.084 H 
ATOM     51  C20 MEL d   1      45.505  18.990  53.247  0.00  0.00     0.007 A 
ATOM     52  H20 MEL d   1      45.649  20.585  54.704  0.00  0.00     0.085 H 
ATOM     53  C21 MEL d   1      45.237  18.675  51.907  0.00  0.00    -0.069 A 
ATOM     54  C22 MEL d   1      44.883  19.692  51.011  0.00  0.00    -0.074 A 
ATOM     55  H21 MEL d   1      45.303  17.648  51.566  0.00  0.00     0.085 H 
ATOM     56  H22 MEL d   1      44.672  19.441  49.978  0.00  0.00     0.084 H 
BRANCH  51  57
ATOM     57  C23 MEL d   1      45.874  17.902  54.214  0.00  0.00     0.102 C 
ATOM     58  N25 MEL d   1      45.405  16.684  54.025  0.00  0.00    -0.385 N 
ATOM     59  H25 MEL d   1      44.786  16.489  53.225  0.00  0.00     0.157 HD
ATOM     60  H26 MEL d   1      45.658  15.928  54.677  0.00  0.00     0.157 HD
BRANCH  57  61
ATOM     61  N24 MEL d   1      46.657  18.178  55.214  0.00  0.00    -0.385 N 
ATOM     62  H23 MEL d   1      46.917  17.440  55.884  0.00  0.00     0.157 HD
ATOM     63  H24 MEL d   1      47.018  19.135  55.337  0.00  0.00     0.157 HD
ENDBRANCH  57  61
ENDBRANCH  51  57
ENDBRANCH  44  47
ENDBRANCH  42  44
ENDBRANCH   4  40
TORSDOF 10
