REMARK  2 active torsions:
REMARK  status: ('A' for Active; 'I' for Inactive)
REMARK    1  A    between atoms: N11_8  and  C39_35 
REMARK    2  A    between atoms: C31_33  and  C32_34 
ROOT
ATOM      1 FE   DEF d   1      24.895  -7.195 -29.665  0.00  0.00     0.000 Fe
ATOM      2  O11 DEF d   1      24.978  -5.265 -30.030  0.00  0.00    -0.084 OA
ATOM      3  O12 DEF d   1      24.440  -6.541 -27.878  0.00  0.00    -0.175 OA
ATOM      4  O21 DEF d   1      23.023  -7.750 -29.875  0.00  0.00    -0.084 OA
ATOM      5  O22 DEF d   1      24.878  -7.272 -31.613  0.00  0.00    -0.175 OA
ATOM      6  O31 DEF d   1      26.734  -6.972 -30.279  0.00  0.00    -0.084 OA
ATOM      7  O32 DEF d   1      25.522  -9.053 -29.286  0.00  0.00    -0.175 OA
ATOM      8  N11 DEF d   1      24.682  -4.580 -28.894  0.00  0.00    -0.208 N 
ATOM      9  C11 DEF d   1      24.402  -5.286 -27.796  0.00  0.00     0.179 A 
ATOM     10  C12 DEF d   1      24.029  -4.608 -26.423  0.00  0.00     0.007 C 
ATOM     11  C13 DEF d   1      22.559  -4.059 -26.377  0.00  0.00     0.016 C 
ATOM     12  C14 DEF d   1      21.456  -5.160 -26.391  0.00  0.00     0.217 C 
ATOM     13  O13 DEF d   1      21.441  -6.051 -25.483  0.00  0.00    -0.274 OA
ATOM     14  N12 DEF d   1      20.496  -5.138 -27.390  0.00  0.00    -0.361 N 
ATOM     15  C15 DEF d   1      19.560  -6.142 -27.293  0.00  0.00    -0.005 C 
ATOM     16  C16 DEF d   1      19.988  -7.367 -28.155  0.00  0.00    -0.050 C 
ATOM     17  C18 DEF d   1      20.443  -8.362 -30.426  0.00  0.00    -0.048 C 
ATOM     18  C17 DEF d   1      20.000  -7.080 -29.676  0.00  0.00    -0.062 C 
ATOM     19  C19 DEF d   1      21.425  -8.049 -31.583  0.00  0.00     0.026 C 
ATOM     20  N21 DEF d   1      22.705  -7.746 -31.171  0.00  0.00    -0.203 N 
ATOM     21  C21 DEF d   1      23.693  -7.497 -32.046  0.00  0.00     0.180 A 
ATOM     22  C22 DEF d   1      23.328  -7.560 -33.590  0.00  0.00     0.007 C 
ATOM     23  C23 DEF d   1      24.526  -7.296 -34.591  0.00  0.00     0.016 C 
ATOM     24  C24 DEF d   1      25.424  -6.069 -34.248  0.00  0.00     0.217 C 
ATOM     25  O23 DEF d   1      24.902  -4.977 -33.954  0.00  0.00    -0.274 OA
ATOM     26  N22 DEF d   1      26.789  -6.224 -34.279  0.00  0.00    -0.361 N 
ATOM     27  C25 DEF d   1      27.533  -5.114 -33.958  0.00  0.00    -0.005 C 
ATOM     28  C26 DEF d   1      28.904  -5.572 -33.351  0.00  0.00    -0.050 C 
ATOM     29  C27 DEF d   1      28.669  -6.877 -32.551  0.00  0.00    -0.062 C 
ATOM     30  C28 DEF d   1      29.231  -6.865 -31.115  0.00  0.00    -0.048 C 
ATOM     31  C29 DEF d   1      28.801  -8.200 -30.420  0.00  0.00     0.026 C 
ATOM     32  N31 DEF d   1      27.446  -8.134 -30.074  0.00  0.00    -0.204 N 
ATOM     33  C31 DEF d   1      26.770  -9.185 -29.558  0.00  0.00     0.175 A 
ATOM     34  H4  DEF d   1      24.720  -3.770 -26.249  0.00  0.00     0.046 H 
ATOM     35  H5  DEF d   1      24.148  -5.353 -25.623  0.00  0.00     0.046 H 
ATOM     36  H6  DEF d   1      22.407  -3.410 -27.252  0.00  0.00     0.047 H 
ATOM     37  H7  DEF d   1      22.442  -3.467 -25.457  0.00  0.00     0.047 H 
ATOM     38  H8  DEF d   1      20.484  -4.452 -28.118  0.00  0.00     0.162 HD
ATOM     39  H9  DEF d   1      18.589  -5.769 -27.651  0.00  0.00     0.064 H 
ATOM     40  H10 DEF d   1      19.469  -6.452 -26.242  0.00  0.00     0.064 H 
ATOM     41  H11 DEF d   1      19.285  -8.191 -27.962  0.00  0.00     0.035 H 
ATOM     42  H12 DEF d   1      21.001  -7.670 -27.850  0.00  0.00     0.035 H 
ATOM     43  H13 DEF d   1      19.552  -8.856 -30.841  0.00  0.00     0.035 H 
ATOM     44  H14 DEF d   1      20.939  -9.037 -29.713  0.00  0.00     0.035 H 
ATOM     45  H15 DEF d   1      20.705  -6.264 -29.892  0.00  0.00     0.033 H 
ATOM     46  H16 DEF d   1      18.991  -6.790 -30.005  0.00  0.00     0.033 H 
ATOM     47  H17 DEF d   1      21.032  -7.190 -32.147  0.00  0.00     0.068 H 
ATOM     48  H18 DEF d   1      21.474  -8.929 -32.242  0.00  0.00     0.068 H 
ATOM     49  H19 DEF d   1      22.552  -6.805 -33.785  0.00  0.00     0.046 H 
ATOM     50  H20 DEF d   1      22.926  -8.562 -33.801  0.00  0.00     0.046 H 
ATOM     51  H21 DEF d   1      24.102  -7.137 -35.593  0.00  0.00     0.047 H 
ATOM     52  H22 DEF d   1      25.164  -8.192 -34.601  0.00  0.00     0.047 H 
ATOM     53  H23 DEF d   1      27.217  -7.095 -34.521  0.00  0.00     0.162 HD
ATOM     54  H24 DEF d   1      26.988  -4.506 -33.220  0.00  0.00     0.064 H 
ATOM     55  H25 DEF d   1      27.713  -4.517 -34.864  0.00  0.00     0.064 H 
ATOM     56  H26 DEF d   1      29.294  -4.791 -32.682  0.00  0.00     0.035 H 
ATOM     57  H27 DEF d   1      29.626  -5.756 -34.160  0.00  0.00     0.035 H 
ATOM     58  H28 DEF d   1      29.145  -7.704 -33.098  0.00  0.00     0.033 H 
ATOM     59  H29 DEF d   1      27.585  -7.052 -32.493  0.00  0.00     0.033 H 
ATOM     60  H30 DEF d   1      28.823  -6.007 -30.561  0.00  0.00     0.035 H 
ATOM     61  H31 DEF d   1      30.328  -6.795 -31.143  0.00  0.00     0.035 H 
ATOM     62  H32 DEF d   1      29.404  -8.351 -29.512  0.00  0.00     0.068 H 
ATOM     63  H33 DEF d   1      28.962  -9.041 -31.111  0.00  0.00     0.068 H 
ENDROOT
BRANCH   8  64
ATOM     64  C39 DEF d   1      24.681  -3.217 -28.906  0.00  0.00     0.011 C 
ATOM     65  H37 DEF d   1      24.421  -2.842 -27.905  0.00  0.00     0.060 H 
ATOM     66  H38 DEF d   1      23.941  -2.857 -29.636  0.00  0.00     0.060 H 
ATOM     67  H39 DEF d   1      25.680  -2.852 -29.186  0.00  0.00     0.060 H 
ENDBRANCH   8  64
BRANCH  33  68
ATOM     68  C32 DEF d   1      27.522 -10.531 -29.325  0.00  0.00    -0.013 C 
ATOM     69  H34 DEF d   1      28.575 -10.419 -29.624  0.00  0.00     0.038 H 
ATOM     70  H35 DEF d   1      27.052 -11.323 -29.927  0.00  0.00     0.038 H 
ATOM     71  H36 DEF d   1      27.470 -10.800 -28.260  0.00  0.00     0.038 H 
ENDBRANCH  33  68
TORSDOF 2
