REMARK WARNING: 32 MAX_TORS EXCEEDED!!!
REMARK  62 active torsions:
REMARK  status: ('A' for Active; 'I' for Inactive)
REMARK    1  A    between atoms: N_1  and  CA_2 
REMARK    2  A    between atoms: CA_2  and  C_3 
REMARK    3  A    between atoms: CA_2  and  CB_5 
REMARK       I    between atoms: C_3  and  N_10 
REMARK    4  A    between atoms: CB_5  and  CG_6 
REMARK    5  A    between atoms: CG_6  and  CD_7 
REMARK    6  A    between atoms: CD_7  and  CE_8 
REMARK    7  A    between atoms: CE_8  and  NZ_9 
REMARK    8  A    between atoms: N_10  and  CA_11 
REMARK    9  A    between atoms: CA_11  and  C_12 
REMARK   10  A    between atoms: CA_11  and  CB_14 
REMARK       I    between atoms: C_12  and  N_19 
REMARK   11  A    between atoms: CB_14  and  CG_15 
REMARK   12  A    between atoms: CG_15  and  CD_16 
REMARK   13  A    between atoms: CD_16  and  CE_17 
REMARK   14  A    between atoms: CE_17  and  NZ_18 
REMARK   15  A    between atoms: N_19  and  CA_20 
REMARK   16  A    between atoms: CA_20  and  C_21 
REMARK   17  A    between atoms: CA_20  and  CB_23 
REMARK       I    between atoms: C_21  and  N_27 
REMARK   18  A    between atoms: CB_23  and  CG_24 
REMARK   19  A    between atoms: CG_24  and  SD_25 
REMARK   20  A    between atoms: SD_25  and  CE_26 
REMARK   21  A    between atoms: N_27  and  CA_28 
REMARK   22  A    between atoms: CA_28  and  C_29 
REMARK   23  A    between atoms: CA_28  and  CB_31 
REMARK       I    between atoms: C_29  and  N_34 
REMARK   24  A    between atoms: CB_31  and  OG1_32 
REMARK   25  A    between atoms: CB_31  and  CG2_33 
REMARK   26  A    between atoms: N_34  and  CA_35 
REMARK   27  A    between atoms: CA_35  and  C_36 
REMARK   28  A    between atoms: CA_35  and  CB_38 
REMARK       I    between atoms: C_36  and  N_45 
REMARK   29  A    between atoms: CB_38  and  CG_39 
REMARK   30  A    between atoms: N_45  and  CA_46 
REMARK   31  A    between atoms: CA_46  and  C_47 
REMARK   32  A    between atoms: CA_46  and  CB_49 
REMARK       I    between atoms: C_47  and  N_54 
REMARK   33  A    between atoms: CB_49  and  CG_50 
REMARK   34  A    between atoms: CG_50  and  CD_51 
REMARK       I    between atoms: CD_51  and  NE2_53 
REMARK   35  A    between atoms: N_54  and  CA_55 
REMARK   36  A    between atoms: CA_55  and  CB_56 
REMARK   37  A    between atoms: CA_55  and  C_63 
REMARK   38  A    between atoms: CB_56  and  CG2_57 
REMARK   39  A    between atoms: CB_56  and  OG1_58 
REMARK   40  A    between atoms: OG1_58  and  P_59 
REMARK       I    between atoms: C_63  and  N_65 
REMARK   41  A    between atoms: CA_66  and  C_67 
REMARK       I    between atoms: C_67  and  N_72 
REMARK   42  A    between atoms: N_72  and  CA_73 
REMARK   43  A    between atoms: CA_73  and  C_74 
REMARK   44  A    between atoms: CA_73  and  CB_76 
REMARK       I    between atoms: C_74  and  N_79 
REMARK   45  A    between atoms: CB_76  and  OG1_77 
REMARK   46  A    between atoms: CB_76  and  CG2_78 
REMARK   47  A    between atoms: N_79  and  CA_80 
REMARK   48  A    between atoms: CA_80  and  C_81 
REMARK   49  A    between atoms: CA_80  and  CB_83 
REMARK       I    between atoms: C_81  and  N_87 
REMARK   50  A    between atoms: CB_83  and  CG_84 
REMARK   51  A    between atoms: CA_88  and  C_89 
REMARK       I    between atoms: C_89  and  N_94 
REMARK   52  A    between atoms: N_94  and  CA_95 
REMARK   53  A    between atoms: CA_95  and  C_96 
REMARK   54  A    between atoms: CA_95  and  CB_98 
REMARK       I    between atoms: C_96  and  N_102 
REMARK   55  A    between atoms: CB_98  and  CG_99 
REMARK   56  A    between atoms: CG_99  and  CD1_100 
REMARK   57  A    between atoms: CG_99  and  CD2_101 
REMARK   58  A    between atoms: N_102  and  CA_103 
REMARK   59  A    between atoms: CA_103  and  C_104 
REMARK   60  A    between atoms: CA_103  and  CB_106 
REMARK   61  A    between atoms: CB_106  and  CG_107 
REMARK   62  A    between atoms: CG_107  and  CD_108 
ROOT
ATOM      1  CA  GLN d   1      -5.753 -14.857 -20.327  0.00  0.00     0.090 C 
ATOM      2  H55 GLN d   1      -6.455 -15.231 -21.087  0.00  0.00     0.087 H 
ENDROOT
BRANCH   1   3
ATOM      3  N   GLN d   1      -5.172 -16.001 -19.633  0.00  0.00    -0.346 N 
ATOM      4  C   PHE d   1      -5.231 -17.228 -20.141  0.00  0.00     0.241 C 
ATOM      5  O   PHE d   1      -5.772 -17.483 -21.217  0.00  0.00    -0.271 OA
ATOM      6  H54 GLN d   1      -4.718 -15.859 -18.753  0.00  0.00     0.163 HD
BRANCH   4   7
ATOM      7  CA  PHE d   1      -4.582 -18.331 -19.311  0.00  0.00     0.093 C 
ATOM      8  H46 PHE d   1      -4.870 -18.192 -18.259  0.00  0.00     0.088 H 
BRANCH   7   9
ATOM      9  N   PHE d   1      -5.040 -19.646 -19.745  0.00  0.00    -0.346 N 
ATOM     10  C   THR d   1      -6.306 -20.025 -19.602  0.00  0.00     0.243 C 
ATOM     11  O   THR d   1      -7.169 -19.304 -19.102  0.00  0.00    -0.271 OA
ATOM     12  H45 PHE d   1      -4.386 -20.278 -20.160  0.00  0.00     0.163 HD
BRANCH  10  13
ATOM     13  CA  THR d   1      -6.649 -21.425 -20.099  0.00  0.00     0.113 C 
ATOM     14  H39 THR d   1      -5.755 -22.059 -20.003  0.00  0.00     0.091 H 
BRANCH  13  15
ATOM     15  N   THR d   1      -7.720 -22.012 -19.300  0.00  0.00    -0.344 N 
ATOM     16  C   MET d   1      -7.462 -22.772 -18.242  0.00  0.00     0.241 C 
ATOM     17  O   MET d   1      -6.319 -23.032 -17.865  0.00  0.00    -0.271 OA
ATOM     18  H38 THR d   1      -8.671 -21.838 -19.555  0.00  0.00     0.163 HD
BRANCH  16  19
ATOM     19  CA  MET d   1      -8.675 -23.323 -17.495  0.00  0.00     0.090 C 
ATOM     20  H30 MET d   1      -9.285 -23.906 -18.201  0.00  0.00     0.087 H 
BRANCH  19  21
ATOM     21  N   MET d   1      -8.261 -24.201 -16.409  0.00  0.00    -0.346 N 
ATOM     22  C   LYS d   1      -8.988 -25.254 -16.048  0.00  0.00     0.241 C 
ATOM     23  O   LYS d   1     -10.047 -25.556 -16.598  0.00  0.00    -0.271 OA
ATOM     24  H29 MET d   1      -7.409 -24.007 -15.923  0.00  0.00     0.163 HD
BRANCH  22  25
ATOM     25  CA  LYS d   1      -8.440 -26.089 -14.896  0.00  0.00     0.089 C 
ATOM     26  H17 LYS d   1      -7.443 -25.707 -14.631  0.00  0.00     0.087 H 
BRANCH  25  27
ATOM     27  N   LYS d   1      -9.301 -25.986 -13.724  0.00  0.00    -0.346 N 
ATOM     28  C   LYS d   1      -8.830 -26.170 -12.494  0.00  0.00     0.248 C 
ATOM     29  O   LYS d   1      -7.650 -26.434 -12.260  0.00  0.00    -0.271 OA
ATOM     30  H16 LYS d   1     -10.270 -25.772 -13.848  0.00  0.00     0.163 HD
BRANCH  28  31
ATOM     31  CA  LYS d   1      -9.841 -26.032 -11.360  0.00  0.00     0.176 C 
ATOM     32  H4  LYS d   1     -10.792 -26.485 -11.679  0.00  0.00     0.099 H 
BRANCH  31  33
ATOM     33  N   LYS d   1      -9.364 -26.721 -10.130  0.00  0.00    -0.067 N 
ATOM     34  H1  LYS d   1     -10.049 -26.615  -9.398  0.00  0.00     0.275 HD
ATOM     35  H2  LYS d   1      -8.491 -26.314  -9.834  0.00  0.00     0.275 HD
ATOM     36  H3  LYS d   1      -9.230 -27.701 -10.324  0.00  0.00     0.275 HD
ENDBRANCH  31  33
BRANCH  31  37
ATOM     37  CB  LYS d   1     -10.072 -24.556 -11.032  0.00  0.00    -0.030 C 
ATOM     38  H5  LYS d   1      -9.817 -23.958 -11.920  0.00  0.00     0.036 H 
ATOM     39  H6  LYS d   1      -9.410 -24.277 -10.199  0.00  0.00     0.036 H 
BRANCH  37  40
ATOM     40  CG  LYS d   1     -11.504 -24.239 -10.634  0.00  0.00    -0.061 C 
ATOM     41  H7  LYS d   1     -11.855 -25.002  -9.924  0.00  0.00     0.033 H 
ATOM     42  H8  LYS d   1     -12.137 -24.256 -11.533  0.00  0.00     0.033 H 
BRANCH  40  43
ATOM     43  CD  LYS d   1     -11.611 -22.871  -9.981  0.00  0.00    -0.043 C 
ATOM     44  H9  LYS d   1     -10.736 -22.269 -10.267  0.00  0.00     0.035 H 
ATOM     45  H10 LYS d   1     -11.628 -22.997  -8.888  0.00  0.00     0.035 H 
BRANCH  43  46
ATOM     46  CE  LYS d   1     -12.873 -22.144 -10.414  0.00  0.00     0.080 C 
ATOM     47  H11 LYS d   1     -13.706 -22.462  -9.769  0.00  0.00     0.075 H 
ATOM     48  H12 LYS d   1     -13.096 -22.409 -11.458  0.00  0.00     0.075 H 
BRANCH  46  49
ATOM     49  NZ  LYS d   1     -12.724 -20.665 -10.314  0.00  0.00    -0.079 N 
ATOM     50  H13 LYS d   1     -13.579 -20.221 -10.609  0.00  0.00     0.274 HD
ATOM     51  H14 LYS d   1     -11.967 -20.363 -10.906  0.00  0.00     0.274 HD
ATOM     52  H15 LYS d   1     -12.525 -20.411  -9.359  0.00  0.00     0.274 HD
ENDBRANCH  46  49
ENDBRANCH  43  46
ENDBRANCH  40  43
ENDBRANCH  37  40
ENDBRANCH  31  37
ENDBRANCH  28  31
ENDBRANCH  25  27
BRANCH  25  53
ATOM     53  CB  LYS d   1      -8.305 -27.551 -15.328  0.00  0.00    -0.038 C 
ATOM     54  H18 LYS d   1      -8.230 -27.584 -16.425  0.00  0.00     0.036 H 
ATOM     55  H19 LYS d   1      -9.206 -28.093 -15.006  0.00  0.00     0.036 H 
BRANCH  53  56
ATOM     56  CG  LYS d   1      -7.088 -28.250 -14.742  0.00  0.00    -0.061 C 
ATOM     57  H20 LYS d   1      -7.419 -29.146 -14.197  0.00  0.00     0.033 H 
ATOM     58  H21 LYS d   1      -6.582 -27.564 -14.047  0.00  0.00     0.033 H 
BRANCH  56  59
ATOM     59  CD  LYS d   1      -6.106 -28.667 -15.825  0.00  0.00    -0.043 C 
ATOM     60  H22 LYS d   1      -6.325 -28.101 -16.742  0.00  0.00     0.035 H 
ATOM     61  H23 LYS d   1      -6.226 -29.743 -16.021  0.00  0.00     0.035 H 
BRANCH  59  62
ATOM     62  CE  LYS d   1      -4.668 -28.398 -15.410  0.00  0.00     0.080 C 
ATOM     63  H24 LYS d   1      -4.042 -29.246 -15.726  0.00  0.00     0.075 H 
ATOM     64  H25 LYS d   1      -4.626 -28.300 -14.315  0.00  0.00     0.075 H 
BRANCH  62  65
ATOM     65  NZ  LYS d   1      -4.136 -27.152 -16.025  0.00  0.00    -0.079 N 
ATOM     66  H26 LYS d   1      -3.184 -27.010 -15.726  0.00  0.00     0.274 HD
ATOM     67  H27 LYS d   1      -4.699 -26.368 -15.736  0.00  0.00     0.274 HD
ATOM     68  H28 LYS d   1      -4.164 -27.234 -17.029  0.00  0.00     0.274 HD
ENDBRANCH  62  65
ENDBRANCH  59  62
ENDBRANCH  56  59
ENDBRANCH  53  56
ENDBRANCH  25  53
ENDBRANCH  22  25
ENDBRANCH  19  21
BRANCH  19  69
ATOM     69  CB  MET d   1      -9.522 -22.170 -16.952  0.00  0.00    -0.030 C 
ATOM     70  H31 MET d   1      -8.897 -21.266 -16.917  0.00  0.00     0.037 H 
ATOM     71  H32 MET d   1      -9.850 -22.429 -15.934  0.00  0.00     0.037 H 
BRANCH  69  72
ATOM     72  CG  MET d   1     -10.753 -21.871 -17.793  0.00  0.00    -0.021 C 
ATOM     73  H33 MET d   1     -11.647 -22.164 -17.223  0.00  0.00     0.049 H 
ATOM     74  H34 MET d   1     -10.698 -22.462 -18.719  0.00  0.00     0.049 H 
BRANCH  72  75
ATOM     75  SD  MET d   1     -10.894 -20.126 -18.231  0.00  0.00    -0.173 SA
BRANCH  75  76
ATOM     76  CE  MET d   1     -12.333 -19.651 -17.278  0.00  0.00    -0.035 C 
ATOM     77  H35 MET d   1     -12.549 -18.586 -17.446  0.00  0.00     0.041 H 
ATOM     78  H36 MET d   1     -12.137 -19.821 -16.209  0.00  0.00     0.041 H 
ATOM     79  H37 MET d   1     -13.197 -20.254 -17.593  0.00  0.00     0.041 H 
ENDBRANCH  75  76
ENDBRANCH  72  75
ENDBRANCH  69  72
ENDBRANCH  19  69
ENDBRANCH  16  19
ENDBRANCH  13  15
BRANCH  13  80
ATOM     80  CB  THR d   1      -7.054 -21.371 -21.573  0.00  0.00     0.060 C 
ATOM     81  H40 THR d   1      -7.638 -20.452 -21.728  0.00  0.00     0.086 H 
BRANCH  80  82
ATOM     82  OG1 THR d   1      -7.856 -22.487 -21.914  0.00  0.00    -0.393 OA
ATOM     83  H41 THR d   1      -8.096 -22.434 -22.832  0.00  0.00     0.210 HD
ENDBRANCH  80  82
BRANCH  80  84
ATOM     84  CG2 THR d   1      -5.871 -21.350 -22.517  0.00  0.00    -0.050 C 
ATOM     85  H42 THR d   1      -6.231 -21.311 -23.556  0.00  0.00     0.031 H 
ATOM     86  H43 THR d   1      -5.269 -22.259 -22.371  0.00  0.00     0.031 H 
ATOM     87  H44 THR d   1      -5.253 -20.464 -22.310  0.00  0.00     0.031 H 
ENDBRANCH  80  84
ENDBRANCH  13  80
ENDBRANCH  10  13
ENDBRANCH   7   9
BRANCH   7  88
ATOM     88  CB  PHE d   1      -3.060 -18.237 -19.417  0.00  0.00    -0.014 C 
ATOM     89  H47 PHE d   1      -2.617 -18.839 -18.610  0.00  0.00     0.043 H 
ATOM     90  H48 PHE d   1      -2.767 -17.184 -19.292  0.00  0.00     0.043 H 
BRANCH  88  91
ATOM     91  CG  PHE d   1      -2.517 -18.729 -20.729  0.00  0.00    -0.056 A 
ATOM     92  CD1 PHE d   1      -2.812 -18.065 -21.909  0.00  0.00    -0.077 A 
ATOM     93  CE1 PHE d   1      -2.313 -18.516 -23.117  0.00  0.00    -0.082 A 
ATOM     94  H49 PHE d   1      -3.441 -17.182 -21.885  0.00  0.00     0.084 H 
ATOM     95  CZ  PHE d   1      -1.511 -19.639 -23.156  0.00  0.00    -0.083 A 
ATOM     96  H51 PHE d   1      -2.551 -17.988 -24.033  0.00  0.00     0.083 H 
ATOM     97  CE2 PHE d   1      -1.208 -20.309 -21.987  0.00  0.00    -0.082 A 
ATOM     98  H53 PHE d   1      -1.120 -19.994 -24.102  0.00  0.00     0.083 H 
ATOM     99  CD2 PHE d   1      -1.711 -19.854 -20.781  0.00  0.00    -0.077 A 
ATOM    100  H52 PHE d   1      -0.577 -21.190 -22.014  0.00  0.00     0.083 H 
ATOM    101  H50 PHE d   1      -1.471 -20.384 -19.866  0.00  0.00     0.084 H 
ENDBRANCH  88  91
ENDBRANCH   7  88
ENDBRANCH   4   7
ENDBRANCH   1   3
BRANCH   1 102
ATOM    102  C   GLN d   1      -4.673 -14.038 -21.026  0.00  0.00     0.241 C 
ATOM    103  O   GLN d   1      -4.689 -13.884 -22.247  0.00  0.00    -0.271 OA
ATOM    104  N   TPO d   1      -3.735 -13.516 -20.243  0.00  0.00    -0.344 N 
ATOM    105  H62 TPO d   1      -3.777 -13.679 -19.257  0.00  0.00     0.163 HD
BRANCH 104 106
ATOM    106  CA  TPO d   1      -2.646 -12.712 -20.785  0.00  0.00     0.114 C 
ATOM    107  H63 TPO d   1      -2.863 -12.506 -21.843  0.00  0.00     0.091 H 
BRANCH 106 108
ATOM    108  CB  TPO d   1      -2.518 -11.368 -20.039  0.00  0.00     0.076 C 
ATOM    109  H64 TPO d   1      -2.331 -11.573 -18.974  0.00  0.00     0.087 H 
BRANCH 108 110
ATOM    110  CG2 TPO d   1      -1.363 -10.544 -20.589  0.00  0.00    -0.049 C 
ATOM    111  H65 TPO d   1      -1.296  -9.594 -20.039  0.00  0.00     0.031 H 
ATOM    112  H66 TPO d   1      -1.534 -10.339 -21.656  0.00  0.00     0.031 H 
ATOM    113  H67 TPO d   1      -0.424 -11.104 -20.469  0.00  0.00     0.031 H 
ENDBRANCH 108 110
BRANCH 108 114
ATOM    114  OG1 TPO d   1      -3.710 -10.639 -20.161  0.00  0.00    -0.275 OA
BRANCH 114 115
ATOM    115  P   TPO d   1      -4.215  -9.844 -18.917  0.00  0.00     0.422 P 
ATOM    116  O1P TPO d   1      -5.602  -9.294 -19.339  0.00  0.00    -0.617 OA
ATOM    117  O2P TPO d   1      -4.408 -10.917 -17.816  0.00  0.00    -0.617 OA
ATOM    118  O3P TPO d   1      -3.266  -8.757 -18.503  0.00  0.00    -0.617 OA
ENDBRANCH 114 115
ENDBRANCH 108 114
ENDBRANCH 106 108
BRANCH 106 119
ATOM    119  C   TPO d   1      -1.320 -13.465 -20.696  0.00  0.00     0.246 C 
ATOM    120  O   TPO d   1      -0.650 -13.437 -19.663  0.00  0.00    -0.271 OA
ATOM    121  N   PRO d   1      -0.920 -14.152 -21.782  0.00  0.00    -0.337 N 
ATOM    122  CA  PRO d   1       0.335 -14.913 -21.814  0.00  0.00     0.091 C 
ATOM    123  CD  PRO d   1      -1.653 -14.243 -23.058  0.00  0.00    -0.001 C 
ATOM    124  CB  PRO d   1       0.285 -15.634 -23.164  0.00  0.00    -0.036 C 
ATOM    125  H68 PRO d   1       0.367 -15.636 -20.986  0.00  0.00     0.087 H 
ATOM    126  CG  PRO d   1      -0.634 -14.816 -24.001  0.00  0.00    -0.048 C 
ATOM    127  H69 PRO d   1      -0.107 -16.655 -23.043  0.00  0.00     0.036 H 
ATOM    128  H70 PRO d   1       1.286 -15.677 -23.617  0.00  0.00     0.036 H 
ATOM    129  H71 PRO d   1      -1.125 -15.446 -24.757  0.00  0.00     0.035 H 
ATOM    130  H72 PRO d   1      -0.079 -14.008 -24.501  0.00  0.00     0.035 H 
ATOM    131  H73 PRO d   1      -1.986 -13.249 -23.393  0.00  0.00     0.064 H 
ATOM    132  H74 PRO d   1      -2.523 -14.909 -22.966  0.00  0.00     0.064 H 
BRANCH 122 133
ATOM    133  C   PRO d   1       1.561 -14.010 -21.734  0.00  0.00     0.241 C 
ATOM    134  O   PRO d   1       2.082 -13.561 -22.756  0.00  0.00    -0.271 OA
ATOM    135  N   THR d   1       2.021 -13.750 -20.515  0.00  0.00    -0.344 N 
ATOM    136  H75 THR d   1       1.555 -14.146 -19.724  0.00  0.00     0.163 HD
BRANCH 135 137
ATOM    137  CA  THR d   1       3.187 -12.902 -20.301  0.00  0.00     0.113 C 
ATOM    138  H76 THR d   1       3.155 -12.077 -21.027  0.00  0.00     0.091 H 
BRANCH 137 139
ATOM    139  C   THR d   1       4.477 -13.687 -20.514  0.00  0.00     0.243 C 
ATOM    140  O   THR d   1       4.708 -14.708 -19.867  0.00  0.00    -0.271 OA
ATOM    141  N   ASP d   1       5.316 -13.203 -21.425  0.00  0.00    -0.345 N 
ATOM    142  H82 ASP d   1       5.072 -12.368 -21.918  0.00  0.00     0.163 HD
BRANCH 141 143
ATOM    143  CA  ASP d   1       6.582 -13.861 -21.722  0.00  0.00     0.099 C 
ATOM    144  H83 ASP d   1       6.372 -14.886 -22.061  0.00  0.00     0.088 H 
BRANCH 143 145
ATOM    145  C   ASP d   1       7.465 -13.930 -20.475  0.00  0.00     0.243 C 
ATOM    146  O   ASP d   1       7.716 -12.913 -19.830  0.00  0.00    -0.271 OA
ATOM    147  N   PRO d   1       7.950 -15.134 -20.117  0.00  0.00    -0.337 N 
ATOM    148  CA  PRO d   1       8.805 -15.316 -18.939  0.00  0.00     0.091 C 
ATOM    149  CD  PRO d   1       7.707 -16.404 -20.825  0.00  0.00    -0.001 C 
ATOM    150  CB  PRO d   1       9.256 -16.775 -19.046  0.00  0.00    -0.036 C 
ATOM    151  H86 PRO d   1       8.230 -15.149 -18.016  0.00  0.00     0.087 H 
ATOM    152  CG  PRO d   1       8.198 -17.443 -19.856  0.00  0.00    -0.048 C 
ATOM    153  H87 PRO d   1       9.327 -17.233 -18.048  0.00  0.00     0.036 H 
ATOM    154  H88 PRO d   1      10.231 -16.843 -19.551  0.00  0.00     0.036 H 
ATOM    155  H89 PRO d   1       7.376 -17.781 -19.208  0.00  0.00     0.035 H 
ATOM    156  H90 PRO d   1       8.617 -18.304 -20.397  0.00  0.00     0.035 H 
ATOM    157  H91 PRO d   1       8.274 -16.445 -21.766  0.00  0.00     0.064 H 
ATOM    158  H92 PRO d   1       6.636 -16.538 -21.036  0.00  0.00     0.064 H 
BRANCH 148 159
ATOM    159  C   PRO d   1      10.012 -14.385 -18.952  0.00  0.00     0.241 C 
ATOM    160  O   PRO d   1      10.952 -14.583 -19.722  0.00  0.00    -0.271 OA
ATOM    161  N   LEU d   1       9.980 -13.371 -18.094  0.00  0.00    -0.346 N 
ATOM    162  H93 LEU d   1       9.188 -13.265 -17.493  0.00  0.00     0.163 HD
BRANCH 161 163
ATOM    163  CA  LEU d   1      11.072 -12.408 -18.007  0.00  0.00     0.089 C 
ATOM    164  H94 LEU d   1      12.010 -12.959 -17.841  0.00  0.00     0.087 H 
BRANCH 163 165
ATOM    165  C   LEU d   1      10.861 -11.448 -16.841  0.00  0.00     0.241 C 
ATOM    166  O   LEU d   1       9.876 -11.548 -16.111  0.00  0.00    -0.271 OA
ATOM    167  N   GLU d   1      11.793 -10.515 -16.674  0.00  0.00    -0.345 N 
ATOM    168 4H10 GLU d   1      12.571 -10.484 -17.302  0.00  0.00     0.163 HD
BRANCH 167 169
ATOM    169  CA  GLU d   1      11.708  -9.535 -15.597  0.00  0.00     0.097 C 
ATOM    170 5H10 GLU d   1      10.653  -9.428 -15.306  0.00  0.00     0.089 H 
BRANCH 169 171
ATOM    171  C   GLU d   1      12.225  -8.176 -16.057  0.00  0.00     0.196 C 
ATOM    172  O   GLU d   1      13.356  -8.121 -16.585  0.00  0.00    -0.646 OA
ATOM    173  OXT GLU d   1      11.494  -7.178 -15.886  0.00  0.00    -0.646 OA
ENDBRANCH 169 171
BRANCH 169 174
ATOM    174  CB  GLU d   1      12.506 -10.013 -14.381  0.00  0.00    -0.028 C 
ATOM    175 6H10 GLU d   1      12.960  -9.136 -13.896  0.00  0.00     0.037 H 
ATOM    176 7H10 GLU d   1      13.299 -10.691 -14.730  0.00  0.00     0.037 H 
BRANCH 174 177
ATOM    177  CG  GLU d   1      11.662 -10.749 -13.353  0.00  0.00     0.018 C 
ATOM    178 8H10 GLU d   1      12.230 -11.617 -12.988  0.00  0.00     0.049 H 
ATOM    179 9H10 GLU d   1      10.737 -11.094 -13.839  0.00  0.00     0.049 H 
BRANCH 177 180
ATOM    180  CD  GLU d   1      11.292  -9.879 -12.168  0.00  0.00     0.172 C 
ATOM    181  OE1 GLU d   1      12.168  -9.126 -11.688  0.00  0.00    -0.648 OA
ATOM    182  OE2 GLU d   1      10.128  -9.947 -11.722  0.00  0.00    -0.648 OA
ENDBRANCH 177 180
ENDBRANCH 174 177
ENDBRANCH 169 174
ENDBRANCH 167 169
ENDBRANCH 163 165
BRANCH 163 183
ATOM    183  CB  LEU d   1      11.191 -11.622 -19.314  0.00  0.00    -0.035 C 
ATOM    184  H95 LEU d   1      11.341 -12.342 -20.132  0.00  0.00     0.037 H 
ATOM    185  H96 LEU d   1      12.070 -10.965 -19.238  0.00  0.00     0.037 H 
BRANCH 183 186
ATOM    186  CG  LEU d   1       9.979 -10.755 -19.662  0.00  0.00    -0.059 C 
ATOM    187  H97 LEU d   1       9.097 -11.172 -19.153  0.00  0.00     0.038 H 
BRANCH 186 188
ATOM    188  CD1 LEU d   1      10.185  -9.328 -19.174  0.00  0.00    -0.073 C 
ATOM    189  H98 LEU d   1       9.305  -8.721 -19.433  0.00  0.00     0.028 H 
ATOM    190  H99 LEU d   1      11.078  -8.902 -19.654  0.00  0.00     0.028 H 
ATOM    191 0H10 LEU d   1      10.321  -9.330 -18.082  0.00  0.00     0.028 H 
ENDBRANCH 186 188
BRANCH 186 192
ATOM    192  CD2 LEU d   1       9.720 -10.774 -21.161  0.00  0.00    -0.073 C 
ATOM    193 1H10 LEU d   1       9.574 -11.812 -21.495  0.00  0.00     0.028 H 
ATOM    194 2H10 LEU d   1      10.582 -10.338 -21.688  0.00  0.00     0.028 H 
ATOM    195 3H10 LEU d   1       8.817 -10.186 -21.385  0.00  0.00     0.028 H 
ENDBRANCH 186 192
ENDBRANCH 183 186
ENDBRANCH 163 183
ENDBRANCH 161 163
ENDBRANCH 148 159
ENDBRANCH 143 145
BRANCH 143 196
ATOM    196  CB  ASP d   1       7.316 -13.115 -22.839  0.00  0.00     0.043 C 
ATOM    197  H84 ASP d   1       8.347 -13.493 -22.898  0.00  0.00     0.052 H 
ATOM    198  H85 ASP d   1       7.332 -12.042 -22.596  0.00  0.00     0.052 H 
BRANCH 196 199
ATOM    199  CG  ASP d   1       6.653 -13.298 -24.189  0.00  0.00     0.175 C 
ATOM    200  OD1 ASP d   1       6.236 -14.434 -24.497  0.00  0.00    -0.648 OA
ATOM    201  OD2 ASP d   1       6.550 -12.304 -24.939  0.00  0.00    -0.648 OA
ENDBRANCH 196 199
ENDBRANCH 143 196
ENDBRANCH 141 143
ENDBRANCH 137 139
BRANCH 137 202
ATOM    202  CB  THR d   1       3.164 -12.313 -18.890  0.00  0.00     0.060 C 
ATOM    203  H77 THR d   1       3.264 -13.145 -18.177  0.00  0.00     0.086 H 
BRANCH 202 204
ATOM    204  OG1 THR d   1       1.939 -11.644 -18.646  0.00  0.00    -0.393 OA
ATOM    205  H78 THR d   1       1.220 -12.259 -18.734  0.00  0.00     0.210 HD
ENDBRANCH 202 204
BRANCH 202 206
ATOM    206  CG2 THR d   1       4.285 -11.327 -18.634  0.00  0.00    -0.050 C 
ATOM    207  H79 THR d   1       4.209 -10.944 -17.606  0.00  0.00     0.031 H 
ATOM    208  H80 THR d   1       4.206 -10.490 -19.343  0.00  0.00     0.031 H 
ATOM    209  H81 THR d   1       5.254 -11.831 -18.767  0.00  0.00     0.031 H 
ENDBRANCH 202 206
ENDBRANCH 137 202
ENDBRANCH 135 137
ENDBRANCH 122 133
ENDBRANCH 106 119
ENDBRANCH 104 106
ENDBRANCH   1 102
BRANCH   1 210
ATOM    210  CB  GLN d   1      -6.522 -13.975 -19.343  0.00  0.00    -0.030 C 
ATOM    211  H56 GLN d   1      -5.798 -13.357 -18.790  0.00  0.00     0.037 H 
ATOM    212  H57 GLN d   1      -7.061 -14.627 -18.639  0.00  0.00     0.037 H 
BRANCH 210 213
ATOM    213  CG  GLN d   1      -7.529 -13.053 -20.012  0.00  0.00     0.011 C 
ATOM    214  H58 GLN d   1      -7.905 -13.543 -20.922  0.00  0.00     0.047 H 
ATOM    215  H59 GLN d   1      -7.023 -12.115 -20.283  0.00  0.00     0.047 H 
BRANCH 213 216
ATOM    216  CD  GLN d   1      -8.707 -12.728 -19.111  0.00  0.00     0.215 C 
ATOM    217  OE1 GLN d   1      -8.964 -11.564 -18.804  0.00  0.00    -0.274 OA
ATOM    218  NE2 GLN d   1      -9.428 -13.757 -18.687  0.00  0.00    -0.370 N 
ATOM    219  H60 GLN d   1     -10.216 -13.604 -18.091  0.00  0.00     0.159 HD
ATOM    220  H61 GLN d   1      -9.184 -14.687 -18.963  0.00  0.00     0.159 HD
ENDBRANCH 213 216
ENDBRANCH 210 213
ENDBRANCH   1 210
TORSDOF 62
