REMARK WARNING: 32 MAX_TORS EXCEEDED!!!
REMARK  60 active torsions:
REMARK  status: ('A' for Active; 'I' for Inactive)
REMARK    1  A    between atoms: N_1  and  CA_2 
REMARK    2  A    between atoms: CA_2  and  C_3 
REMARK    3  A    between atoms: CA_2  and  CB_5 
REMARK       I    between atoms: C_3  and  N_7 
REMARK    4  A    between atoms: CB_5  and  OG_6 
REMARK    5  A    between atoms: N_7  and  CA_8 
REMARK    6  A    between atoms: CA_8  and  C_9 
REMARK    7  A    between atoms: CA_8  and  CB_11 
REMARK       I    between atoms: C_9  and  N_15 
REMARK    8  A    between atoms: CB_11  and  CG_12 
REMARK    9  A    between atoms: CG_12  and  CD1_13 
REMARK   10  A    between atoms: CG_12  and  CD2_14 
REMARK   11  A    between atoms: N_15  and  CA_16 
REMARK   12  A    between atoms: CA_16  and  C_17 
REMARK   13  A    between atoms: CA_16  and  CB_19 
REMARK       I    between atoms: C_17  and  N_24 
REMARK   14  A    between atoms: CB_19  and  CG_20 
REMARK   15  A    between atoms: CG_20  and  CD_21 
REMARK   16  A    between atoms: N_24  and  CA_25 
REMARK   17  A    between atoms: CA_25  and  C_26 
REMARK   18  A    between atoms: CA_25  and  CB_28 
REMARK       I    between atoms: C_26  and  N_31 
REMARK   19  A    between atoms: CB_28  and  CG1_29 
REMARK   20  A    between atoms: CB_28  and  CG2_30 
REMARK   21  A    between atoms: N_31  and  CA_32 
REMARK   22  A    between atoms: CA_32  and  CB_33 
REMARK   23  A    between atoms: CA_32  and  C_40 
REMARK   24  A    between atoms: CB_33  and  CG2_34 
REMARK   25  A    between atoms: CB_33  and  OG1_35 
REMARK   26  A    between atoms: OG1_35  and  P_36 
REMARK       I    between atoms: C_40  and  N_42 
REMARK   27  A    between atoms: N_42  and  CA_43 
REMARK   28  A    between atoms: CA_43  and  C_44 
REMARK   29  A    between atoms: CA_43  and  CB_46 
REMARK       I    between atoms: C_44  and  N_51 
REMARK   30  A    between atoms: CB_46  and  CG_47 
REMARK   31  A    between atoms: CG_47  and  CD_48 
REMARK   32  A    between atoms: N_51  and  CA_52 
REMARK   33  A    between atoms: CA_52  and  C_53 
REMARK   34  A    between atoms: CA_52  and  CB_55 
REMARK       I    between atoms: C_53  and  N_56 
REMARK   35  A    between atoms: N_56  and  CA_57 
REMARK   36  A    between atoms: CA_57  and  C_58 
REMARK   37  A    between atoms: CA_57  and  CB_60 
REMARK       I    between atoms: C_58  and  N_64 
REMARK   38  A    between atoms: CB_60  and  CG_61 
REMARK   39  A    between atoms: N_64  and  CA_65 
REMARK   40  A    between atoms: CA_65  and  C_66 
REMARK   41  A    between atoms: CA_65  and  CB_68 
REMARK       I    between atoms: C_66  and  N_69 
REMARK   42  A    between atoms: N_69  and  CA_70 
REMARK   43  A    between atoms: CA_70  and  C_71 
REMARK   44  A    between atoms: CA_70  and  CB_73 
REMARK       I    between atoms: C_71  and  N_76 
REMARK   45  A    between atoms: CB_73  and  OG1_74 
REMARK   46  A    between atoms: CB_73  and  CG2_75 
REMARK   47  A    between atoms: N_76  and  CA_77 
REMARK   48  A    between atoms: CA_77  and  C_78 
REMARK   49  A    between atoms: CA_77  and  CB_80 
REMARK       I    between atoms: C_78  and  N_87 
REMARK   50  A    between atoms: CB_80  and  CG_81 
REMARK   51  A    between atoms: N_87  and  CA_88 
REMARK   52  A    between atoms: CA_88  and  C_89 
REMARK   53  A    between atoms: CA_88  and  CB_91 
REMARK       I    between atoms: C_89  and  N_94 
REMARK   54  A    between atoms: CB_91  and  CG1_92 
REMARK   55  A    between atoms: CB_91  and  CG2_93 
REMARK   56  A    between atoms: N_94  and  CA_95 
REMARK   57  A    between atoms: CA_95  and  C_96 
REMARK   58  A    between atoms: CA_95  and  CB_98 
REMARK   59  A    between atoms: CB_98  and  CG_99 
REMARK   60  A    between atoms: CG_99  and  CD_100 
REMARK       I    between atoms: CD_100  and  NE2_102 
ROOT
ATOM      1  CA  ALA d   1      -0.247 -20.541 -23.194  0.00  0.00     0.086 C 
ATOM      2  H47 ALA d   1       0.099 -19.545 -23.506  0.00  0.00     0.086 H 
ENDROOT
BRANCH   1   3
ATOM      3  N   ALA d   1      -1.571 -20.764 -23.761  0.00  0.00    -0.346 N 
ATOM      4  C   GLU d   1      -2.316 -19.759 -24.209  0.00  0.00     0.241 C 
ATOM      5  O   GLU d   1      -1.946 -18.585 -24.176  0.00  0.00    -0.271 OA
ATOM      6  H46 ALA d   1      -1.928 -21.697 -23.814  0.00  0.00     0.163 HD
BRANCH   4   7
ATOM      7  CA  GLU d   1      -3.681 -20.132 -24.778  0.00  0.00     0.090 C 
ATOM      8  H41 GLU d   1      -3.971 -21.114 -24.376  0.00  0.00     0.087 H 
BRANCH   7   9
ATOM      9  N   GLU d   1      -4.691 -19.157 -24.387  0.00  0.00    -0.346 N 
ATOM     10  C   TPO d   1      -5.008 -18.955 -23.111  0.00  0.00     0.243 C 
ATOM     11  O   TPO d   1      -4.477 -19.568 -22.185  0.00  0.00    -0.271 OA
ATOM     12  H40 GLU d   1      -5.157 -18.627 -25.095  0.00  0.00     0.163 HD
BRANCH  10  13
ATOM     13  CA  TPO d   1      -6.082 -17.905 -22.842  0.00  0.00     0.114 C 
ATOM     14  H35 TPO d   1      -6.453 -17.527 -23.806  0.00  0.00     0.091 H 
BRANCH  13  15
ATOM     15  N   TPO d   1      -7.205 -18.485 -22.117  0.00  0.00    -0.344 N 
ATOM     16  C   VAL d   1      -7.064 -18.982 -20.893  0.00  0.00     0.241 C 
ATOM     17  O   VAL d   1      -5.990 -18.989 -20.292  0.00  0.00    -0.271 OA
ATOM     18  H34 TPO d   1      -8.105 -18.510 -22.552  0.00  0.00     0.163 HD
BRANCH  16  19
ATOM     19  CA  VAL d   1      -8.321 -19.558 -20.251  0.00  0.00     0.092 C 
ATOM     20  H26 VAL d   1      -8.889 -20.102 -21.020  0.00  0.00     0.088 H 
BRANCH  19  21
ATOM     21  N   VAL d   1      -7.983 -20.496 -19.188  0.00  0.00    -0.346 N 
ATOM     22  C   GLU d   1      -8.120 -21.808 -19.347  0.00  0.00     0.241 C 
ATOM     23  O   GLU d   1      -8.537 -22.317 -20.388  0.00  0.00    -0.271 OA
ATOM     24  H25 VAL d   1      -7.639 -20.143 -18.317  0.00  0.00     0.163 HD
BRANCH  22  25
ATOM     25  CA  GLU d   1      -7.728 -22.675 -18.155  0.00  0.00     0.090 C 
ATOM     26  H20 GLU d   1      -7.882 -23.730 -18.424  0.00  0.00     0.087 H 
BRANCH  25  27
ATOM     27  N   GLU d   1      -6.322 -22.485 -17.817  0.00  0.00    -0.346 N 
ATOM     28  C   LEU d   1      -5.709 -23.257 -16.925  0.00  0.00     0.241 C 
ATOM     29  O   LEU d   1      -6.276 -24.175 -16.331  0.00  0.00    -0.271 OA
ATOM     30  H19 GLU d   1      -5.806 -21.756 -18.267  0.00  0.00     0.163 HD
BRANCH  28  31
ATOM     31  CA  LEU d   1      -4.238 -22.948 -16.667  0.00  0.00     0.089 C 
ATOM     32  H9  LEU d   1      -3.922 -22.152 -17.357  0.00  0.00     0.087 H 
BRANCH  31  33
ATOM     33  N   LEU d   1      -4.038 -22.481 -15.300  0.00  0.00    -0.346 N 
ATOM     34  C   SER d   1      -3.084 -21.607 -14.995  0.00  0.00     0.251 C 
ATOM     35  O   SER d   1      -2.315 -21.137 -15.832  0.00  0.00    -0.271 OA
ATOM     36  H8  LEU d   1      -4.633 -22.827 -14.574  0.00  0.00     0.163 HD
BRANCH  34  37
ATOM     37  CA  SER d   1      -2.985 -21.202 -13.528  0.00  0.00     0.195 C 
ATOM     38  H4  SER d   1      -3.507 -21.955 -12.919  0.00  0.00     0.102 H 
BRANCH  37  39
ATOM     39  N   SER d   1      -1.567 -21.121 -13.087  0.00  0.00    -0.064 N 
ATOM     40  H1  SER d   1      -1.532 -20.852 -12.116  0.00  0.00     0.275 HD
ATOM     41  H2  SER d   1      -1.081 -20.435 -13.643  0.00  0.00     0.275 HD
ATOM     42  H3  SER d   1      -1.127 -22.021 -13.203  0.00  0.00     0.275 HD
ENDBRANCH  37  39
BRANCH  37  43
ATOM     43  CB  SER d   1      -3.641 -19.838 -13.310  0.00  0.00     0.051 C 
ATOM     44  H5  SER d   1      -3.001 -19.058 -13.747  0.00  0.00     0.077 H 
ATOM     45  H6  SER d   1      -3.750 -19.660 -12.230  0.00  0.00     0.077 H 
BRANCH  43  46
ATOM     46  OG  SER d   1      -4.920 -19.783 -13.920  0.00  0.00    -0.398 OA
ATOM     47  H7  SER d   1      -5.305 -18.927 -13.770  0.00  0.00     0.209 HD
ENDBRANCH  43  46
ENDBRANCH  37  43
ENDBRANCH  34  37
ENDBRANCH  31  33
BRANCH  31  48
ATOM     48  CB  LEU d   1      -3.384 -24.191 -16.932  0.00  0.00    -0.035 C 
ATOM     49  H10 LEU d   1      -4.061 -25.042 -17.093  0.00  0.00     0.037 H 
ATOM     50  H11 LEU d   1      -2.767 -24.377 -16.041  0.00  0.00     0.037 H 
BRANCH  48  51
ATOM     51  CG  LEU d   1      -2.453 -24.090 -18.141  0.00  0.00    -0.059 C 
ATOM     52  H12 LEU d   1      -2.152 -23.039 -18.259  0.00  0.00     0.038 H 
BRANCH  51  53
ATOM     53  CD1 LEU d   1      -1.201 -24.924 -17.923  0.00  0.00    -0.073 C 
ATOM     54  H13 LEU d   1      -0.546 -24.838 -18.802  0.00  0.00     0.028 H 
ATOM     55  H14 LEU d   1      -1.483 -25.977 -17.777  0.00  0.00     0.028 H 
ATOM     56  H15 LEU d   1      -0.669 -24.560 -17.032  0.00  0.00     0.028 H 
ENDBRANCH  51  53
BRANCH  51  57
ATOM     57  CD2 LEU d   1      -3.174 -24.527 -19.407  0.00  0.00    -0.073 C 
ATOM     58  H16 LEU d   1      -4.075 -23.912 -19.546  0.00  0.00     0.028 H 
ATOM     59  H17 LEU d   1      -3.462 -25.585 -19.319  0.00  0.00     0.028 H 
ATOM     60  H18 LEU d   1      -2.506 -24.400 -20.272  0.00  0.00     0.028 H 
ENDBRANCH  51  57
ENDBRANCH  48  51
ENDBRANCH  31  48
ENDBRANCH  28  31
ENDBRANCH  25  27
BRANCH  25  61
ATOM     61  CB  GLU d   1      -8.614 -22.343 -16.953  0.00  0.00    -0.029 C 
ATOM     62  H21 GLU d   1      -8.964 -21.305 -17.055  0.00  0.00     0.037 H 
ATOM     63  H22 GLU d   1      -8.010 -22.438 -16.039  0.00  0.00     0.037 H 
BRANCH  61  64
ATOM     64  CG  GLU d   1      -9.827 -23.249 -16.823  0.00  0.00     0.018 C 
ATOM     65  H23 GLU d   1     -10.242 -23.429 -17.826  0.00  0.00     0.049 H 
ATOM     66  H24 GLU d   1     -10.579 -22.744 -16.200  0.00  0.00     0.049 H 
BRANCH  64  67
ATOM     67  CD  GLU d   1      -9.490 -24.585 -16.190  0.00  0.00     0.172 C 
ATOM     68  OE1 GLU d   1      -9.150 -24.604 -14.988  0.00  0.00    -0.648 OA
ATOM     69  OE2 GLU d   1      -9.567 -25.612 -16.896  0.00  0.00    -0.648 OA
ENDBRANCH  64  67
ENDBRANCH  61  64
ENDBRANCH  25  61
ENDBRANCH  22  25
ENDBRANCH  19  21
BRANCH  19  70
ATOM     70  CB  VAL d   1      -9.193 -18.401 -19.725  0.00  0.00    -0.033 C 
ATOM     71  H27 VAL d   1      -8.582 -17.792 -19.043  0.00  0.00     0.042 H 
BRANCH  70  72
ATOM     72  CG1 VAL d   1      -9.655 -17.512 -20.870  0.00  0.00    -0.071 C 
ATOM     73  H28 VAL d   1     -10.274 -16.695 -20.473  0.00  0.00     0.028 H 
ATOM     74  H29 VAL d   1     -10.246 -18.108 -21.581  0.00  0.00     0.028 H 
ATOM     75  H30 VAL d   1      -8.778 -17.091 -21.384  0.00  0.00     0.028 H 
ENDBRANCH  70  72
BRANCH  70  76
ATOM     76  CG2 VAL d   1     -10.384 -18.939 -18.945  0.00  0.00    -0.071 C 
ATOM     77  H31 VAL d   1     -10.026 -19.578 -18.124  0.00  0.00     0.028 H 
ATOM     78  H32 VAL d   1     -11.025 -19.529 -19.616  0.00  0.00     0.028 H 
ATOM     79  H33 VAL d   1     -10.961 -18.099 -18.531  0.00  0.00     0.028 H 
ENDBRANCH  70  76
ENDBRANCH  19  70
ENDBRANCH  16  19
ENDBRANCH  13  15
BRANCH  13  80
ATOM     80  CB  TPO d   1      -5.458 -16.730 -22.061  0.00  0.00     0.076 C 
ATOM     81  H36 TPO d   1      -5.116 -17.100 -21.083  0.00  0.00     0.087 H 
BRANCH  80  82
ATOM     82  CG2 TPO d   1      -4.265 -16.146 -22.807  0.00  0.00    -0.049 C 
ATOM     83  H37 TPO d   1      -3.842 -15.312 -22.227  0.00  0.00     0.031 H 
ATOM     84  H38 TPO d   1      -4.592 -15.779 -23.791  0.00  0.00     0.031 H 
ATOM     85  H39 TPO d   1      -3.499 -16.924 -22.941  0.00  0.00     0.031 H 
ENDBRANCH  80  82
BRANCH  80  86
ATOM     86  OG1 TPO d   1      -6.417 -15.728 -21.859  0.00  0.00    -0.275 OA
BRANCH  86  87
ATOM     87  P   TPO d   1      -6.581 -15.150 -20.420  0.00  0.00     0.422 P 
ATOM     88  O1P TPO d   1      -6.878 -16.386 -19.531  0.00  0.00    -0.617 OA
ATOM     89  O2P TPO d   1      -5.180 -14.592 -20.059  0.00  0.00    -0.617 OA
ATOM     90  O3P TPO d   1      -7.657 -14.108 -20.334  0.00  0.00    -0.617 OA
ENDBRANCH  86  87
ENDBRANCH  80  86
ENDBRANCH  13  80
ENDBRANCH  10  13
ENDBRANCH   7   9
BRANCH   7  91
ATOM     91  CB  GLU d   1      -3.600 -20.233 -26.302  0.00  0.00    -0.029 C 
ATOM     92  H42 GLU d   1      -2.585 -20.557 -26.576  0.00  0.00     0.037 H 
ATOM     93  H43 GLU d   1      -3.794 -19.237 -26.727  0.00  0.00     0.037 H 
BRANCH  91  94
ATOM     94  CG  GLU d   1      -4.594 -21.213 -26.901  0.00  0.00     0.018 C 
ATOM     95  H44 GLU d   1      -5.608 -20.803 -26.782  0.00  0.00     0.049 H 
ATOM     96  H45 GLU d   1      -4.518 -22.167 -26.359  0.00  0.00     0.049 H 
BRANCH  94  97
ATOM     97  CD  GLU d   1      -4.344 -21.470 -28.375  0.00  0.00     0.172 C 
ATOM     98  OE1 GLU d   1      -4.489 -20.522 -29.174  0.00  0.00    -0.648 OA
ATOM     99  OE2 GLU d   1      -4.002 -22.618 -28.727  0.00  0.00    -0.648 OA
ENDBRANCH  94  97
ENDBRANCH  91  94
ENDBRANCH   7  91
ENDBRANCH   4   7
ENDBRANCH   1   3
BRANCH   1 100
ATOM    100  C   ALA d   1       0.751 -21.575 -23.703  0.00  0.00     0.240 C 
ATOM    101  O   ALA d   1       0.369 -22.577 -24.307  0.00  0.00    -0.271 OA
ATOM    102  N   ASP d   1       2.033 -21.324 -23.456  0.00  0.00    -0.346 N 
ATOM    103  H51 ASP d   1       2.280 -20.491 -22.961  0.00  0.00     0.163 HD
BRANCH 102 104
ATOM    104  CA  ASP d   1       3.088 -22.233 -23.889  0.00  0.00     0.098 C 
ATOM    105  H52 ASP d   1       2.625 -23.185 -24.190  0.00  0.00     0.088 H 
BRANCH 104 106
ATOM    106  C   ASP d   1       4.068 -22.509 -22.754  0.00  0.00     0.241 C 
ATOM    107  O   ASP d   1       4.057 -21.824 -21.731  0.00  0.00    -0.271 OA
ATOM    108  N   ALA d   1       4.915 -23.516 -22.942  0.00  0.00    -0.346 N 
ATOM    109  H55 ALA d   1       4.873 -24.036 -23.795  0.00  0.00     0.163 HD
BRANCH 108 110
ATOM    110  CA  ALA d   1       5.903 -23.881 -21.934  0.00  0.00     0.086 C 
ATOM    111  H56 ALA d   1       6.509 -22.992 -21.707  0.00  0.00     0.086 H 
BRANCH 110 112
ATOM    112  C   ALA d   1       6.833 -24.975 -22.447  0.00  0.00     0.240 C 
ATOM    113  O   ALA d   1       6.381 -26.027 -22.899  0.00  0.00    -0.271 OA
ATOM    114  N   THR d   1       8.135 -24.720 -22.375  0.00  0.00    -0.344 N 
ATOM    115  H60 THR d   1       8.441 -23.846 -21.998  0.00  0.00     0.163 HD
BRANCH 114 116
ATOM    116  CA  THR d   1       9.130 -25.684 -22.833  0.00  0.00     0.113 C 
ATOM    117  H61 THR d   1       8.726 -26.212 -23.709  0.00  0.00     0.091 H 
BRANCH 116 118
ATOM    118  C   THR d   1       9.434 -26.709 -21.746  0.00  0.00     0.243 C 
ATOM    119  O   THR d   1       9.426 -26.390 -20.556  0.00  0.00    -0.271 OA
ATOM    120  N   PHE d   1       9.701 -27.942 -22.161  0.00  0.00    -0.346 N 
ATOM    121  H67 PHE d   1       9.693 -28.139 -23.141  0.00  0.00     0.163 HD
BRANCH 120 122
ATOM    122  CA  PHE d   1      10.006 -29.015 -21.223  0.00  0.00     0.093 C 
ATOM    123  H68 PHE d   1       9.736 -28.680 -20.211  0.00  0.00     0.088 H 
BRANCH 122 124
ATOM    124  C   PHE d   1      11.496 -29.348 -21.241  0.00  0.00     0.241 C 
ATOM    125  O   PHE d   1      11.882 -30.513 -21.342  0.00  0.00    -0.271 OA
ATOM    126  N   VAL d   1      12.329 -28.317 -21.143  0.00  0.00    -0.346 N 
ATOM    127  H76 VAL d   1      11.954 -27.393 -21.064  0.00  0.00     0.163 HD
BRANCH 126 128
ATOM    128  CA  VAL d   1      13.775 -28.500 -21.148  0.00  0.00     0.092 C 
ATOM    129  H77 VAL d   1      13.990 -29.537 -20.852  0.00  0.00     0.088 H 
BRANCH 128 130
ATOM    130  C   VAL d   1      14.451 -27.561 -20.155  0.00  0.00     0.241 C 
ATOM    131  O   VAL d   1      14.697 -26.393 -20.457  0.00  0.00    -0.271 OA
ATOM    132  N   GLN d   1      14.750 -28.080 -18.968  0.00  0.00    -0.345 N 
ATOM    133  H85 GLN d   1      14.524 -29.037 -18.783  0.00  0.00     0.163 HD
BRANCH 132 134
ATOM    134  CA  GLN d   1      15.399 -27.289 -17.929  0.00  0.00     0.096 C 
ATOM    135  H86 GLN d   1      16.063 -26.557 -18.413  0.00  0.00     0.089 H 
BRANCH 134 136
ATOM    136  C   GLN d   1      16.239 -28.175 -17.015  0.00  0.00     0.196 C 
ATOM    137  O   GLN d   1      17.359 -27.757 -16.652  0.00  0.00    -0.646 OA
ATOM    138  OXT GLN d   1      15.770 -29.280 -16.670  0.00  0.00    -0.646 OA
ENDBRANCH 134 136
BRANCH 134 139
ATOM    139  CB  GLN d   1      14.355 -26.533 -17.106  0.00  0.00    -0.029 C 
ATOM    140  H87 GLN d   1      13.930 -25.735 -17.732  0.00  0.00     0.037 H 
ATOM    141  H88 GLN d   1      14.856 -26.088 -16.233  0.00  0.00     0.037 H 
BRANCH 139 142
ATOM    142  CG  GLN d   1      13.218 -27.412 -16.611  0.00  0.00     0.011 C 
ATOM    143  H89 GLN d   1      13.620 -28.130 -15.881  0.00  0.00     0.047 H 
ATOM    144  H90 GLN d   1      12.796 -27.957 -17.468  0.00  0.00     0.047 H 
BRANCH 142 145
ATOM    145  CD  GLN d   1      12.111 -26.615 -15.949  0.00  0.00     0.215 C 
ATOM    146  OE1 GLN d   1      11.641 -25.614 -16.489  0.00  0.00    -0.274 OA
ATOM    147  NE2 GLN d   1      11.689 -27.055 -14.769  0.00  0.00    -0.370 N 
ATOM    148  H91 GLN d   1      10.961 -26.569 -14.286  0.00  0.00     0.159 HD
ATOM    149  H92 GLN d   1      12.100 -27.872 -14.364  0.00  0.00     0.159 HD
ENDBRANCH 142 145
ENDBRANCH 139 142
ENDBRANCH 134 139
ENDBRANCH 132 134
ENDBRANCH 128 130
BRANCH 128 150
ATOM    150  CB  VAL d   1      14.367 -28.258 -22.548  0.00  0.00    -0.033 C 
ATOM    151  H78 VAL d   1      15.463 -28.219 -22.458  0.00  0.00     0.042 H 
BRANCH 150 152
ATOM    152  CG1 VAL d   1      14.007 -29.400 -23.485  0.00  0.00    -0.071 C 
ATOM    153  H79 VAL d   1      14.438 -29.209 -24.479  0.00  0.00     0.028 H 
ATOM    154  H80 VAL d   1      12.913 -29.475 -23.569  0.00  0.00     0.028 H 
ATOM    155  H81 VAL d   1      14.409 -30.343 -23.086  0.00  0.00     0.028 H 
ENDBRANCH 150 152
BRANCH 150 156
ATOM    156  CG2 VAL d   1      13.887 -26.928 -23.109  0.00  0.00    -0.071 C 
ATOM    157  H82 VAL d   1      14.158 -26.118 -22.416  0.00  0.00     0.028 H 
ATOM    158  H83 VAL d   1      12.794 -26.955 -23.232  0.00  0.00     0.028 H 
ATOM    159  H84 VAL d   1      14.362 -26.749 -24.085  0.00  0.00     0.028 H 
ENDBRANCH 150 156
ENDBRANCH 128 150
ENDBRANCH 126 128
ENDBRANCH 122 124
BRANCH 122 160
ATOM    160  CB  PHE d   1       9.187 -30.262 -21.559  0.00  0.00    -0.014 C 
ATOM    161  H69 PHE d   1       9.745 -30.856 -22.298  0.00  0.00     0.043 H 
ATOM    162  H70 PHE d   1       8.229 -29.942 -21.994  0.00  0.00     0.043 H 
BRANCH 160 163
ATOM    163  CG  PHE d   1       8.900 -31.133 -20.369  0.00  0.00    -0.056 A 
ATOM    164  CD1 PHE d   1       7.840 -30.847 -19.524  0.00  0.00    -0.077 A 
ATOM    165  CE1 PHE d   1       7.575 -31.646 -18.428  0.00  0.00    -0.082 A 
ATOM    166  H71 PHE d   1       7.212 -29.987 -19.725  0.00  0.00     0.084 H 
ATOM    167  CZ  PHE d   1       8.371 -32.744 -18.167  0.00  0.00    -0.083 A 
ATOM    168  H73 PHE d   1       6.743 -31.411 -17.774  0.00  0.00     0.083 H 
ATOM    169  CE2 PHE d   1       9.430 -33.040 -19.002  0.00  0.00    -0.082 A 
ATOM    170  H75 PHE d   1       8.165 -33.372 -17.308  0.00  0.00     0.083 H 
ATOM    171  CD2 PHE d   1       9.692 -32.238 -20.096  0.00  0.00    -0.077 A 
ATOM    172  H74 PHE d   1      10.056 -33.902 -18.799  0.00  0.00     0.083 H 
ATOM    173  H72 PHE d   1      10.525 -32.475 -20.748  0.00  0.00     0.084 H 
ENDBRANCH 160 163
ENDBRANCH 122 160
ENDBRANCH 120 122
ENDBRANCH 116 118
BRANCH 116 174
ATOM    174  CB  THR d   1      10.415 -24.963 -23.245  0.00  0.00     0.060 C 
ATOM    175  H62 THR d   1      11.153 -25.728 -23.528  0.00  0.00     0.086 H 
BRANCH 174 176
ATOM    176  OG1 THR d   1      10.933 -24.203 -22.168  0.00  0.00    -0.393 OA
ATOM    177  H63 THR d   1      11.126 -24.780 -21.438  0.00  0.00     0.210 HD
ENDBRANCH 174 176
BRANCH 174 178
ATOM    178  CG2 THR d   1      10.226 -24.027 -24.418  0.00  0.00    -0.050 C 
ATOM    179  H64 THR d   1      11.184 -23.544 -24.660  0.00  0.00     0.031 H 
ATOM    180  H65 THR d   1       9.484 -23.258 -24.158  0.00  0.00     0.031 H 
ATOM    181  H66 THR d   1       9.873 -24.598 -25.289  0.00  0.00     0.031 H 
ENDBRANCH 174 178
ENDBRANCH 116 174
ENDBRANCH 114 116
ENDBRANCH 110 112
BRANCH 110 182
ATOM    182  CB  ALA d   1       5.211 -24.331 -20.657  0.00  0.00    -0.049 C 
ATOM    183  H57 ALA d   1       5.968 -24.603 -19.906  0.00  0.00     0.030 H 
ATOM    184  H58 ALA d   1       4.577 -25.204 -20.872  0.00  0.00     0.030 H 
ATOM    185  H59 ALA d   1       4.588 -23.512 -20.269  0.00  0.00     0.030 H 
ENDBRANCH 110 182
ENDBRANCH 108 110
ENDBRANCH 104 106
BRANCH 104 186
ATOM    186  CB  ASP d   1       3.831 -21.650 -25.092  0.00  0.00     0.043 C 
ATOM    187  H53 ASP d   1       4.527 -22.409 -25.479  0.00  0.00     0.052 H 
ATOM    188  H54 ASP d   1       4.397 -20.766 -24.763  0.00  0.00     0.052 H 
BRANCH 186 189
ATOM    189  CG  ASP d   1       2.891 -21.238 -26.208  0.00  0.00     0.175 C 
ATOM    190  OD1 ASP d   1       2.472 -22.120 -26.987  0.00  0.00    -0.648 OA
ATOM    191  OD2 ASP d   1       2.575 -20.034 -26.304  0.00  0.00    -0.648 OA
ENDBRANCH 186 189
ENDBRANCH 104 186
ENDBRANCH 102 104
ENDBRANCH   1 100
BRANCH   1 192
ATOM    192  CB  ALA d   1      -0.313 -20.574 -21.675  0.00  0.00    -0.049 C 
ATOM    193  H48 ALA d   1       0.692 -20.404 -21.261  0.00  0.00     0.030 H 
ATOM    194  H49 ALA d   1      -0.685 -21.555 -21.345  0.00  0.00     0.030 H 
ATOM    195  H50 ALA d   1      -0.994 -19.786 -21.320  0.00  0.00     0.030 H 
ENDBRANCH   1 192
TORSDOF 60
