REMARK  9 active torsions:
REMARK  status: ('A' for Active; 'I' for Inactive)
REMARK    1  A    between atoms: C8_8  and  O14_14 
REMARK    2  A    between atoms: C9_9  and  C15_15 
REMARK    3  A    between atoms: C12_12  and  C20_20 
REMARK    4  A    between atoms: C15_15  and  C16_16 
REMARK    5  A    between atoms: C15_15  and  C17_17 
REMARK    6  A    between atoms: C15_15  and  C18_18 
REMARK    7  A    between atoms: C20_20  and  O21_21 
REMARK    8  A    between atoms: C20_20  and  C22_22 
REMARK    9  A    between atoms: C20_20  and  C23_23 
ROOT
ATOM      1  C1  BRZ d   1      26.460   9.693   7.810  0.00  0.00    -0.002 A 
ATOM      2  C2  BRZ d   1      27.825   9.862   7.986  0.00  0.00    -0.061 A 
ATOM      3  C3  BRZ d   1      28.122  10.825   8.956  0.00  0.00    -0.021 A 
ATOM      4  C4  BRZ d   1      27.121  11.502   9.620  0.00  0.00     0.078 A 
ATOM      5  C5  BRZ d   1      25.747  11.307   9.413  0.00  0.00    -0.017 A 
ATOM      6  C6  BRZ d   1      25.384  10.352   8.459  0.00  0.00     0.085 A 
ATOM      7  O7  BRZ d   1      24.014  10.093   8.185  0.00  0.00    -0.316 OA
ATOM      8  C8  BRZ d   1      23.504   9.144   7.260  0.00  0.00     0.158 A 
ATOM      9  C9  BRZ d   1      24.727   8.485   6.579  0.00  0.00    -0.013 A 
ATOM     10  C10 BRZ d   1      26.038   8.672   6.780  0.00  0.00    -0.062 A 
ATOM     11  O11 BRZ d   1      27.597  12.424  10.522  0.00  0.00    -0.342 OA
ATOM     12  C12 BRZ d   1      29.037  12.326  10.519  0.00  0.00     0.078 A 
ATOM     13  C13 BRZ d   1      29.466  11.292   9.428  0.00  0.00    -0.011 A 
ATOM     14  H1  BRZ d   1      28.577   9.310   7.434  0.00  0.00     0.085 H 
ATOM     15  H2  BRZ d   1      25.003  11.870   9.966  0.00  0.00     0.092 H 
ATOM     16  H3  BRZ d   1      23.440   8.380   8.049  0.00  0.00     0.137 H 
ATOM     17  H4  BRZ d   1      26.778   8.105   6.217  0.00  0.00     0.085 H 
ATOM     18  H5  BRZ d   1      29.235  11.779  11.452  0.00  0.00     0.089 H 
ATOM     19  H6  BRZ d   1      30.038  11.769   8.619  0.00  0.00     0.044 H 
ATOM     20  H7  BRZ d   1      30.055  10.468   9.858  0.00  0.00     0.044 H 
ENDROOT
BRANCH   9  21
ATOM     21  C15 BRZ d   1      24.357   7.397   5.523  0.00  0.00    -0.003 C 
BRANCH  21  22
ATOM     22  C16 BRZ d   1      25.525   6.403   5.182  0.00  0.00    -0.062 C 
ATOM     23  H9  BRZ d   1      25.180   5.674   4.434  0.00  0.00     0.029 H 
ATOM     24  H10 BRZ d   1      25.834   5.873   6.095  0.00  0.00     0.029 H 
ATOM     25  H11 BRZ d   1      26.379   6.966   4.778  0.00  0.00     0.029 H 
ENDBRANCH  21  22
BRANCH  21  26
ATOM     26  C17 BRZ d   1      24.113   8.188   4.243  0.00  0.00    -0.062 C 
ATOM     27  H12 BRZ d   1      23.300   8.911   4.408  0.00  0.00     0.029 H 
ATOM     28  H13 BRZ d   1      23.831   7.498   3.434  0.00  0.00     0.029 H 
ATOM     29  H14 BRZ d   1      25.031   8.726   3.964  0.00  0.00     0.029 H 
ENDBRANCH  21  26
BRANCH  21  30
ATOM     30  C18 BRZ d   1      23.390   6.573   6.338  0.00  0.00    -0.100 C 
ATOM     31  C19 BRZ d   1      23.080   6.346   7.607  0.00  0.00    -0.124 C 
ATOM     32  H16 BRZ d   1      22.281   5.649   7.856  0.00  0.00     0.066 H 
ATOM     33  H17 BRZ d   1      23.625   6.856   8.400  0.00  0.00     0.066 H 
ATOM     34  H15 BRZ d   1      22.750   5.984   5.682  0.00  0.00     0.077 H 
ENDBRANCH  21  30
ENDBRANCH   9  21
BRANCH   8  35
ATOM     35  O14 BRZ d   1      22.314   8.824   6.900  0.00  0.00    -0.367 OA
ATOM     36  H8  BRZ d   1      21.881   9.585   6.531  0.00  0.00     0.213 HD
ENDBRANCH   8  35
BRANCH  12  37
ATOM     37  C20 BRZ d   1      29.900  13.587  10.753  0.00  0.00     0.077 C 
BRANCH  37  38
ATOM     38  O21 BRZ d   1      29.460  14.907  10.437  0.00  0.00    -0.388 OA
ATOM     39  H18 BRZ d   1      30.143  15.529  10.660  0.00  0.00     0.210 HD
ENDBRANCH  37  38
BRANCH  37  40
ATOM     40  C22 BRZ d   1      30.394  13.695  12.208  0.00  0.00    -0.046 C 
ATOM     41  H19 BRZ d   1      31.001  14.605  12.322  0.00  0.00     0.031 H 
ATOM     42  H20 BRZ d   1      31.005  12.814  12.454  0.00  0.00     0.031 H 
ATOM     43  H21 BRZ d   1      29.529  13.743  12.886  0.00  0.00     0.031 H 
ENDBRANCH  37  40
BRANCH  37  44
ATOM     44  C23 BRZ d   1      31.144  13.252   9.887  0.00  0.00    -0.046 C 
ATOM     45  H22 BRZ d   1      31.869  14.077   9.952  0.00  0.00     0.031 H 
ATOM     46  H23 BRZ d   1      30.836  13.117   8.840  0.00  0.00     0.031 H 
ATOM     47  H24 BRZ d   1      31.608  12.325  10.255  0.00  0.00     0.031 H 
ENDBRANCH  37  44
ENDBRANCH  12  37
TORSDOF 9
