REMARK  18 active torsions:
REMARK  status: ('A' for Active; 'I' for Inactive)
REMARK    1  A    between atoms: CA_3  and  N_2 
REMARK    2  A    between atoms: N_2  and  C1_75 
REMARK    3  A    between atoms: C_4  and  CA_3 
REMARK       I    between atoms: N_9  and  C_4 
REMARK    4  A    between atoms: C_11  and  CA_10 
REMARK       I    between atoms: N_23  and  C_11 
REMARK    5  A    between atoms: C_25  and  CA_24 
REMARK       I    between atoms: N_37  and  C_25 
REMARK    6  A    between atoms: C_39  and  CA_38 
REMARK       I    between atoms: C_39  and  N_51 
REMARK    7  A    between atoms: N_51  and  CA_52 
REMARK    8  A    between atoms: CA_52  and  CB_55 
REMARK    9  A    between atoms: CA_52  and  C_53 
REMARK       I    between atoms: C_53  and  N_72 
REMARK   10  A    between atoms: CB_55  and  CG_56 
REMARK   11  A    between atoms: CZ_61  and  OH_62 
REMARK   12  A    between atoms: C1_75  and  C2_76 
REMARK   13  A    between atoms: C2_76  and  C3_77 
REMARK   14  A    between atoms: C3_77  and  C4_78 
REMARK   15  A    between atoms: C4_78  and  C5_79 
REMARK   16  A    between atoms: C5_79  and  C6_80 
REMARK   17  A    between atoms: C6_80  and  C7_81 
REMARK   18  A    between atoms: C7_81  and  C8_82 
ROOT
ATOM      1  C   PRO d   1       1.514   9.576   4.392  0.00  0.00     0.243 C 
ATOM      2  O   PRO d   1       1.336  10.744   4.672  0.00  0.00    -0.271 OA
ATOM      3  N   PRO d   1       1.297   9.073   3.199  0.00  0.00    -0.337 N 
ATOM      4  CA  PRO d   1       0.808   9.936   2.096  0.00  0.00     0.092 C 
ATOM      5  CB  PRO d   1       0.989   9.070   0.853  0.00  0.00    -0.036 C 
ATOM      6  CG  PRO d   1       0.959   7.661   1.354  0.00  0.00    -0.048 C 
ATOM      7  CD  PRO d   1       1.483   7.679   2.767  0.00  0.00    -0.001 C 
ATOM      8  H12 PRO d   1       1.401  10.860   2.023  0.00  0.00     0.087 H 
ATOM      9  H13 PRO d   1       1.952   9.287   0.368  0.00  0.00     0.036 H 
ATOM     10  H14 PRO d   1       0.171   9.244   0.139  0.00  0.00     0.036 H 
ATOM     11  H15 PRO d   1      -0.072   7.278   1.339  0.00  0.00     0.035 H 
ATOM     12  H16 PRO d   1       1.596   7.023   0.724  0.00  0.00     0.035 H 
ATOM     13  H17 PRO d   1       0.908   6.992   3.406  0.00  0.00     0.064 H 
ATOM     14  H18 PRO d   1       2.547   7.401   2.793  0.00  0.00     0.064 H 
ENDROOT
BRANCH   4  15
ATOM     15  C   PRO d   1      -0.672  10.286   2.306  0.00  0.00     0.243 C 
ATOM     16  O   PRO d   1      -1.350   9.648   3.085  0.00  0.00    -0.271 OA
ATOM     17  N   PRO d   1      -1.128  11.294   1.601  0.00  0.00    -0.337 N 
ATOM     18  CA  PRO d   1      -2.545  11.722   1.722  0.00  0.00     0.091 C 
ATOM     19  CD  PRO d   1      -0.384  12.122   0.638  0.00  0.00    -0.001 C 
ATOM     20  CB  PRO d   1      -2.579  13.064   0.998  0.00  0.00    -0.036 C 
ATOM     21  H19 PRO d   1      -2.836  11.835   2.777  0.00  0.00     0.087 H 
ATOM     22  CG  PRO d   1      -1.437  13.014   0.033  0.00  0.00    -0.048 C 
ATOM     23  H20 PRO d   1      -2.446  13.891   1.711  0.00  0.00     0.036 H 
ATOM     24  H21 PRO d   1      -3.532  13.190   0.463  0.00  0.00     0.036 H 
ATOM     25  H22 PRO d   1      -1.774  12.601  -0.929  0.00  0.00     0.035 H 
ATOM     26  H23 PRO d   1      -1.031  14.024  -0.124  0.00  0.00     0.035 H 
ATOM     27  H24 PRO d   1       0.088  11.496  -0.133  0.00  0.00     0.064 H 
ATOM     28  H25 PRO d   1       0.387  12.718   1.149  0.00  0.00     0.064 H 
BRANCH  18  29
ATOM     29  C   PRO d   1      -3.470  10.711   1.037  0.00  0.00     0.241 C 
ATOM     30  O   PRO d   1      -3.049   9.644   0.635  0.00  0.00    -0.271 OA
ATOM     31  N   TYR d   1      -4.726  11.038   0.901  0.00  0.00    -0.346 N 
ATOM     32  H26 TYR d   1      -5.052  11.920   1.240  0.00  0.00     0.163 HD
BRANCH  31  33
ATOM     33  CA  TYR d   1      -5.675  10.096   0.240  0.00  0.00     0.093 C 
ATOM     34  H27 TYR d   1      -5.171   9.152  -0.016  0.00  0.00     0.088 H 
BRANCH  33  35
ATOM     35  CB  TYR d   1      -6.780   9.856   1.271  0.00  0.00    -0.014 C 
ATOM     36  H28 TYR d   1      -7.556  10.628   1.163  0.00  0.00     0.043 H 
ATOM     37  H29 TYR d   1      -6.353   9.905   2.284  0.00  0.00     0.043 H 
BRANCH  35  38
ATOM     38  CG  TYR d   1      -7.392   8.493   1.048  0.00  0.00    -0.056 A 
ATOM     39  CD1 TYR d   1      -7.854   8.131  -0.224  0.00  0.00    -0.074 A 
ATOM     40  CE1 TYR d   1      -8.422   6.869  -0.429  0.00  0.00    -0.051 A 
ATOM     41  H30 TYR d   1      -7.771   8.829  -1.050  0.00  0.00     0.084 H 
ATOM     42  CZ  TYR d   1      -8.528   5.968   0.636  0.00  0.00     0.065 A 
ATOM     43  H32 TYR d   1      -8.780   6.589  -1.413  0.00  0.00     0.087 H 
ATOM     44  CE2 TYR d   1      -8.066   6.329   1.907  0.00  0.00    -0.051 A 
ATOM     45  CD2 TYR d   1      -7.499   7.591   2.113  0.00  0.00    -0.074 A 
ATOM     46  H33 TYR d   1      -8.148   5.630   2.732  0.00  0.00     0.087 H 
ATOM     47  H31 TYR d   1      -7.142   7.871   3.098  0.00  0.00     0.084 H 
BRANCH  42  48
ATOM     48  OH  TYR d   1      -9.088   4.723   0.434  0.00  0.00    -0.361 OA
ATOM     49  H34 TYR d   1      -8.450   4.052   0.647  0.00  0.00     0.217 HD
ENDBRANCH  42  48
ENDBRANCH  35  38
ENDBRANCH  33  35
BRANCH  33  50
ATOM     50  C   TYR d   1      -6.254  10.731  -1.028  0.00  0.00     0.238 C 
ATOM     51  N   NH2 d   1      -6.919  11.849  -0.938  0.00  0.00    -0.368 N 
ATOM     52  H35 NH2 d   1      -7.301  12.271  -1.760  0.00  0.00     0.159 HD
ATOM     53  H36 NH2 d   1      -7.047  12.284  -0.047  0.00  0.00     0.159 HD
ATOM     54  O   TYR d   1      -6.098  10.201  -2.111  0.00  0.00    -0.271 OA
ENDBRANCH  33  50
ENDBRANCH  31  33
ENDBRANCH  18  29
ENDBRANCH   4  15
BRANCH   1  55
ATOM     55  CA  PRO d   1       2.018   8.590   5.457  0.00  0.00     0.092 C 
ATOM     56  CB  PRO d   1       0.900   8.218   6.425  0.00  0.00    -0.036 C 
ATOM     57  CG  PRO d   1       1.038   9.176   7.567  0.00  0.00    -0.048 C 
ATOM     58  H6  PRO d   1       1.020   7.182   6.774  0.00  0.00     0.036 H 
ATOM     59  H7  PRO d   1      -0.082   8.331   5.943  0.00  0.00     0.036 H 
ATOM     60  CD  PRO d   1       2.496   9.547   7.660  0.00  0.00    -0.001 C 
ATOM     61  H8  PRO d   1       0.431  10.074   7.381  0.00  0.00     0.035 H 
ATOM     62  H9  PRO d   1       0.710   8.698   8.502  0.00  0.00     0.035 H 
ATOM     63  N   PRO d   1       3.030   9.242   6.324  0.00  0.00    -0.337 N 
ATOM     64  H10 PRO d   1       2.613  10.616   7.893  0.00  0.00     0.064 H 
ATOM     65  H11 PRO d   1       3.003   8.947   8.430  0.00  0.00     0.064 H 
ATOM     66  C   GLY d   1       4.240   9.482   5.875  0.00  0.00     0.246 C 
ATOM     67  O   GLY d   1       4.607   9.199   4.752  0.00  0.00    -0.272 OA
ATOM     68  H5  PRO d   1       2.431   7.695   4.968  0.00  0.00     0.087 H 
BRANCH  66  69
ATOM     69  CA  GLY d   1       5.202  10.158   6.860  0.00  0.00     0.154 C 
ATOM     70  H3  GLY d   1       5.802  10.911   6.328  0.00  0.00     0.090 H 
ATOM     71  H4  GLY d   1       4.625  10.647   7.659  0.00  0.00     0.090 H 
BRANCH  69  72
ATOM     72  N   GLY d   1       6.105   9.134   7.456  0.00  0.00    -0.067 N 
ATOM     73  H1  GLY d   1       6.622   8.688   6.714  0.00  0.00     0.277 HD
ATOM     74  H2  GLY d   1       5.543   8.447   7.935  0.00  0.00     0.277 HD
BRANCH  72  75
ATOM     75  C1  GLY d   1       7.072   9.721   8.426  0.00  0.00     0.082 C 
ATOM     76  H37 GLY d   1       6.693   9.630   9.454  0.00  0.00     0.075 H 
ATOM     77  H38 GLY d   1       7.256  10.781   8.196  0.00  0.00     0.075 H 
BRANCH  75  78
ATOM     78  C2  GLY d   1       8.352   8.901   8.249  0.00  0.00    -0.043 C 
ATOM     79  H39 GLY d   1       8.427   8.559   7.206  0.00  0.00     0.035 H 
ATOM     80  H40 GLY d   1       8.325   8.030   8.920  0.00  0.00     0.035 H 
BRANCH  78  81
ATOM     81  C3  GLY d   1       9.566   9.768   8.589  0.00  0.00    -0.064 C 
ATOM     82  H41 GLY d   1       9.488  10.116   9.629  0.00  0.00     0.033 H 
ATOM     83  H42 GLY d   1       9.598  10.635   7.913  0.00  0.00     0.033 H 
BRANCH  81  84
ATOM     84  C4  GLY d   1      10.844   8.945   8.422  0.00  0.00    -0.065 C 
ATOM     85  H43 GLY d   1      10.582   7.917   8.131  0.00  0.00     0.033 H 
ATOM     86  H44 GLY d   1      11.396   8.928   9.373  0.00  0.00     0.033 H 
BRANCH  84  87
ATOM     87  C5  GLY d   1      11.719   9.575   7.337  0.00  0.00    -0.065 C 
ATOM     88  H45 GLY d   1      11.082  10.105   6.614  0.00  0.00     0.033 H 
ATOM     89  H46 GLY d   1      12.284   8.787   6.819  0.00  0.00     0.033 H 
BRANCH  87  90
ATOM     90  C6  GLY d   1      12.695  10.565   7.978  0.00  0.00    -0.065 C 
ATOM     91  H47 GLY d   1      12.620  10.497   9.073  0.00  0.00     0.033 H 
ATOM     92  H48 GLY d   1      12.446  11.587   7.656  0.00  0.00     0.033 H 
BRANCH  90  93
ATOM     93  C7  GLY d   1      14.123  10.227   7.543  0.00  0.00    -0.069 C 
ATOM     94  H49 GLY d   1      14.323   9.163   7.737  0.00  0.00     0.032 H 
ATOM     95  H50 GLY d   1      14.835  10.844   8.111  0.00  0.00     0.032 H 
BRANCH  93  96
ATOM     96  C8  GLY d   1      14.283  10.511   6.048  0.00  0.00    -0.077 C 
ATOM     97  H51 GLY d   1      15.309  10.268   5.736  0.00  0.00     0.027 H 
ATOM     98  H52 GLY d   1      14.083  11.575   5.853  0.00  0.00     0.027 H 
ATOM     99  H53 GLY d   1      13.571   9.894   5.479  0.00  0.00     0.027 H 
ENDBRANCH  93  96
ENDBRANCH  90  93
ENDBRANCH  87  90
ENDBRANCH  84  87
ENDBRANCH  81  84
ENDBRANCH  78  81
ENDBRANCH  75  78
ENDBRANCH  72  75
ENDBRANCH  69  72
ENDBRANCH  66  69
ENDBRANCH   1  55
TORSDOF 18
