REMARK  15 active torsions:
REMARK  status: ('A' for Active; 'I' for Inactive)
REMARK    1  A    between atoms: C_1  and  CH3_3 
REMARK       I    between atoms: C_1  and  N_7 
REMARK    2  A    between atoms: CA_8  and  C_9 
REMARK       I    between atoms: C_9  and  N_21 
REMARK    3  A    between atoms: N_21  and  CA_22 
REMARK    4  A    between atoms: CA_22  and  C_23 
REMARK    5  A    between atoms: CA_22  and  CB_25 
REMARK       I    between atoms: C_23  and  N_40 
REMARK    6  A    between atoms: CB_25  and  CG_26 
REMARK    7  A    between atoms: CG_26  and  CD1_27 
REMARK    8  A    between atoms: CG_26  and  CD2_28 
REMARK    9  A    between atoms: CA_41  and  C_42 
REMARK       I    between atoms: C_42  and  N_54 
REMARK   10  A    between atoms: CA_55  and  C_56 
REMARK       I    between atoms: C_56  and  N_68 
REMARK   11  A    between atoms: N_68  and  CA_69 
REMARK   12  A    between atoms: CA_69  and  C_70 
REMARK   13  A    between atoms: CA_69  and  CB_72 
REMARK   14  A    between atoms: CB_72  and  CG_73 
REMARK   15  A    between atoms: CZ_78  and  OH_79 
ROOT
ATOM      1  N   PRO d   1       3.814  10.682  -2.147  0.00  0.00    -0.337 N 
ATOM      2  CA  PRO d   1       3.006  11.406  -3.160  0.00  0.00     0.092 C 
ATOM      3  CB  PRO d   1       2.812  10.375  -4.268  0.00  0.00    -0.036 C 
ATOM      4  CG  PRO d   1       2.940   9.049  -3.589  0.00  0.00    -0.048 C 
ATOM      5  CD  PRO d   1       3.866   9.236  -2.416  0.00  0.00    -0.001 C 
ATOM      6  H22 PRO d   1       3.538  12.294  -3.531  0.00  0.00     0.087 H 
ATOM      7  H23 PRO d   1       3.585  10.489  -5.042  0.00  0.00     0.036 H 
ATOM      8  H24 PRO d   1       1.817  10.481  -4.725  0.00  0.00     0.036 H 
ATOM      9  H25 PRO d   1       3.359   8.308  -4.285  0.00  0.00     0.035 H 
ATOM     10  H26 PRO d   1       1.954   8.708  -3.240  0.00  0.00     0.035 H 
ATOM     11  H27 PRO d   1       3.514   8.664  -1.545  0.00  0.00     0.064 H 
ATOM     12  H28 PRO d   1       4.889   8.923  -2.672  0.00  0.00     0.064 H 
ATOM     13  C   LEU d   1       4.385  11.333  -1.158  0.00  0.00     0.243 C 
ATOM     14  O   LEU d   1       4.294  12.535  -1.008  0.00  0.00    -0.271 OA
ENDROOT
BRANCH  13  15
ATOM     15  CA  LEU d   1       5.205  10.481  -0.172  0.00  0.00     0.090 C 
ATOM     16  H12 LEU d   1       5.434   9.511  -0.636  0.00  0.00     0.087 H 
BRANCH  15  17
ATOM     17  N   LEU d   1       6.472  11.187   0.207  0.00  0.00    -0.346 N 
ATOM     18  C   PRO d   1       6.440  12.347   0.818  0.00  0.00     0.241 C 
ATOM     19  O   PRO d   1       5.393  12.890   1.099  0.00  0.00    -0.271 OA
ATOM     20  H11 LEU d   1       7.354  10.768  -0.009  0.00  0.00     0.163 HD
BRANCH  18  21
ATOM     21  CA  PRO d   1       7.785  12.994   1.167  0.00  0.00     0.091 C 
ATOM     22  N   PRO d   1       7.576  14.340   1.765  0.00  0.00    -0.339 N 
ATOM     23  C   ACE d   1       6.837  15.215   1.139  0.00  0.00     0.216 C 
ATOM     24  CD  PRO d   1       7.837  14.331   3.211  0.00  0.00    -0.001 C 
ATOM     25  O   ACE d   1       5.848  15.736   1.616  0.00  0.00    -0.274 OA
ATOM     26  CG  PRO d   1       8.095  12.882   3.538  0.00  0.00    -0.048 C 
ATOM     27  H9  PRO d   1       6.964  14.706   3.766  0.00  0.00     0.064 H 
ATOM     28  H10 PRO d   1       8.716  14.947   3.451  0.00  0.00     0.064 H 
ATOM     29  CB  PRO d   1       8.492  12.209   2.266  0.00  0.00    -0.036 C 
ATOM     30  H7  PRO d   1       8.906  12.801   4.277  0.00  0.00     0.035 H 
ATOM     31  H8  PRO d   1       7.183  12.418   3.942  0.00  0.00     0.035 H 
ATOM     32  H5  PRO d   1       9.583  12.251   2.131  0.00  0.00     0.036 H 
ATOM     33  H6  PRO d   1       8.162  11.159   2.265  0.00  0.00     0.036 H 
ATOM     34  H4  PRO d   1       8.411  13.057   0.264  0.00  0.00     0.087 H 
BRANCH  23  35
ATOM     35  CH3 ACE d   1       7.295  15.560  -0.280  0.00  0.00    -0.003 C 
ATOM     36  H1  ACE d   1       8.202  14.987  -0.522  0.00  0.00     0.040 H 
ATOM     37  H2  ACE d   1       7.514  16.636  -0.343  0.00  0.00     0.040 H 
ATOM     38  H3  ACE d   1       6.498  15.305  -0.995  0.00  0.00     0.040 H 
ENDBRANCH  23  35
ENDBRANCH  18  21
ENDBRANCH  15  17
BRANCH  15  39
ATOM     39  CB  LEU d   1       4.439  10.272   1.139  0.00  0.00    -0.035 C 
ATOM     40  H13 LEU d   1       4.073  11.241   1.508  0.00  0.00     0.037 H 
ATOM     41  H14 LEU d   1       5.109   9.824   1.888  0.00  0.00     0.037 H 
BRANCH  39  42
ATOM     42  CG  LEU d   1       3.253   9.339   0.893  0.00  0.00    -0.059 C 
ATOM     43  H15 LEU d   1       2.728   9.648  -0.023  0.00  0.00     0.038 H 
BRANCH  42  44
ATOM     44  CD1 LEU d   1       3.758   7.904   0.732  0.00  0.00    -0.073 C 
ATOM     45  H16 LEU d   1       2.905   7.233   0.555  0.00  0.00     0.028 H 
ATOM     46  H17 LEU d   1       4.284   7.595   1.648  0.00  0.00     0.028 H 
ATOM     47  H18 LEU d   1       4.449   7.852  -0.122  0.00  0.00     0.028 H 
ENDBRANCH  42  44
BRANCH  42  48
ATOM     48  CD2 LEU d   1       2.291   9.412   2.080  0.00  0.00    -0.073 C 
ATOM     49  H19 LEU d   1       1.928  10.444   2.195  0.00  0.00     0.028 H 
ATOM     50  H20 LEU d   1       2.815   9.103   2.996  0.00  0.00     0.028 H 
ATOM     51  H21 LEU d   1       1.438   8.741   1.902  0.00  0.00     0.028 H 
ENDBRANCH  42  48
ENDBRANCH  39  42
ENDBRANCH  15  39
ENDBRANCH  13  15
BRANCH   2  52
ATOM     52  C   PRO d   1       1.647  11.819  -2.575  0.00  0.00     0.243 C 
ATOM     53  O   PRO d   1       0.832  10.973  -2.269  0.00  0.00    -0.271 OA
ATOM     54  N   PRO d   1       1.436  13.107  -2.444  0.00  0.00    -0.337 N 
ATOM     55  CA  PRO d   1       0.149  13.603  -1.898  0.00  0.00     0.091 C 
ATOM     56  CD  PRO d   1       2.354  14.205  -2.779  0.00  0.00    -0.001 C 
ATOM     57  CB  PRO d   1       0.427  15.073  -1.601  0.00  0.00    -0.036 C 
ATOM     58  H29 PRO d   1      -0.132  13.060  -0.983  0.00  0.00     0.087 H 
ATOM     59  CG  PRO d   1       1.545  15.452  -2.521  0.00  0.00    -0.048 C 
ATOM     60  H30 PRO d   1       0.729  15.204  -0.551  0.00  0.00     0.036 H 
ATOM     61  H31 PRO d   1      -0.465  15.684  -1.805  0.00  0.00     0.036 H 
ATOM     62  H32 PRO d   1       2.176  16.220  -2.050  0.00  0.00     0.035 H 
ATOM     63  H33 PRO d   1       1.139  15.840  -3.467  0.00  0.00     0.035 H 
ATOM     64  H34 PRO d   1       2.661  14.150  -3.834  0.00  0.00     0.064 H 
ATOM     65  H35 PRO d   1       3.246  14.178  -2.136  0.00  0.00     0.064 H 
BRANCH  55  66
ATOM     66  C   PRO d   1      -0.959  13.460  -2.948  0.00  0.00     0.241 C 
ATOM     67  O   PRO d   1      -1.028  14.216  -3.896  0.00  0.00    -0.271 OA
ATOM     68  N   TYR d   1      -1.824  12.494  -2.789  0.00  0.00    -0.344 N 
ATOM     69  H36 TYR d   1      -1.750  11.881  -2.002  0.00  0.00     0.163 HD
BRANCH  68  70
ATOM     70  CA  TYR d   1      -2.924  12.306  -3.784  0.00  0.00     0.100 C 
ATOM     71  H37 TYR d   1      -2.523  11.940  -4.741  0.00  0.00     0.090 H 
BRANCH  70  72
ATOM     72  C   TYR d   1      -3.669  13.625  -4.010  0.00  0.00     0.197 C 
ATOM     73  O   TYR d   1      -3.555  14.167  -5.096  0.00  0.00    -0.646 OA
ATOM     74  OXT TYR d   1      -4.339  14.069  -3.091  0.00  0.00    -0.646 OA
ENDBRANCH  70  72
BRANCH  70  75
ATOM     75  CB  TYR d   1      -3.857  11.266  -3.156  0.00  0.00    -0.013 C 
ATOM     76  H38 TYR d   1      -4.651  11.781  -2.595  0.00  0.00     0.043 H 
ATOM     77  H39 TYR d   1      -3.281  10.626  -2.472  0.00  0.00     0.043 H 
BRANCH  75  78
ATOM     78  CG  TYR d   1      -4.482  10.408  -4.239  0.00  0.00    -0.056 A 
ATOM     79  CD1 TYR d   1      -4.890  10.983  -5.452  0.00  0.00    -0.074 A 
ATOM     80  CE1 TYR d   1      -5.469  10.185  -6.446  0.00  0.00    -0.051 A 
ATOM     81  H40 TYR d   1      -4.757  12.046  -5.620  0.00  0.00     0.084 H 
ATOM     82  CZ  TYR d   1      -5.642   8.812  -6.230  0.00  0.00     0.065 A 
ATOM     83  H42 TYR d   1      -5.784  10.630  -7.383  0.00  0.00     0.087 H 
ATOM     84  CE2 TYR d   1      -5.236   8.238  -5.020  0.00  0.00    -0.051 A 
ATOM     85  CD2 TYR d   1      -4.656   9.036  -4.026  0.00  0.00    -0.074 A 
ATOM     86  H43 TYR d   1      -5.370   7.176  -4.852  0.00  0.00     0.087 H 
ATOM     87  H41 TYR d   1      -4.341   8.590  -3.090  0.00  0.00     0.084 H 
BRANCH  82  88
ATOM     88  OH  TYR d   1      -6.213   8.027  -7.210  0.00  0.00    -0.361 OA
ATOM     89  H44 TYR d   1      -7.003   7.624  -6.871  0.00  0.00     0.217 HD
ENDBRANCH  82  88
ENDBRANCH  75  78
ENDBRANCH  70  75
ENDBRANCH  68  70
ENDBRANCH  55  66
ENDBRANCH   2  52
TORSDOF 15
