REMARK WARNING: 32 MAX_TORS EXCEEDED!!!
REMARK  64 active torsions:
REMARK  status: ('A' for Active; 'I' for Inactive)
REMARK    1  A    between atoms: N_1  and  CA_2 
REMARK    2  A    between atoms: CA_2  and  C_3 
REMARK    3  A    between atoms: CA_2  and  CB_5 
REMARK       I    between atoms: C_3  and  N_27 
REMARK    4  A    between atoms: CB_5  and  CG_6 
REMARK    5  A    between atoms: CG_6  and  CD_7 
REMARK    6  A    between atoms: CD_7  and  NE_8 
REMARK       I    between atoms: NE_8  and  CZ_9 
REMARK       I    between atoms: CZ_9  and  NH1_10 
REMARK    7  A    between atoms: N_27  and  CA_28 
REMARK    8  A    between atoms: CA_28  and  C_29 
REMARK    9  A    between atoms: CA_28  and  CB_31 
REMARK       I    between atoms: C_29  and  N_49 
REMARK   10  A    between atoms: CB_31  and  CG_32 
REMARK   11  A    between atoms: CG_32  and  CD_33 
REMARK   12  A    between atoms: CD_33  and  CE_34 
REMARK   13  A    between atoms: CE_34  and  NZ_35 
REMARK   14  A    between atoms: N_49  and  CA_50 
REMARK   15  A    between atoms: CA_50  and  C_51 
REMARK   16  A    between atoms: CA_50  and  CB_53 
REMARK       I    between atoms: C_51  and  N_60 
REMARK   17  A    between atoms: CB_53  and  OG_54 
REMARK   18  A    between atoms: N_60  and  CA_61 
REMARK   19  A    between atoms: CA_61  and  C_62 
REMARK   20  A    between atoms: CA_61  and  CB_64 
REMARK       I    between atoms: C_62  and  N_79 
REMARK   21  A    between atoms: CB_64  and  CG_65 
REMARK   22  A    between atoms: CG_65  and  CD1_66 
REMARK   23  A    between atoms: CG_65  and  CD2_67 
REMARK   24  A    between atoms: N_79  and  CA_80 
REMARK   25  A    between atoms: CA_80  and  C_81 
REMARK   26  A    between atoms: CA_80  and  CB_83 
REMARK       I    between atoms: C_81  and  N_93 
REMARK   27  A    between atoms: CB_83  and  OG1_84 
REMARK   28  A    between atoms: CB_83  and  CG2_85 
REMARK   29  A    between atoms: N_93  and  CA_94 
REMARK   30  A    between atoms: CA_94  and  C_95 
REMARK   31  A    between atoms: CA_94  and  CB_97 
REMARK       I    between atoms: C_95  and  N_112 
REMARK   32  A    between atoms: CB_97  and  CG1_98 
REMARK   33  A    between atoms: CB_97  and  CG2_99 
REMARK   34  A    between atoms: CG1_98  and  CD1_100 
REMARK   35  A    between atoms: N_112  and  CA_113 
REMARK   36  A    between atoms: CA_113  and  C_114 
REMARK   37  A    between atoms: CA_113  and  CB_116 
REMARK       I    between atoms: C_114  and  N_133 
REMARK   38  A    between atoms: CB_116  and  CG_117 
REMARK   39  A    between atoms: CZ_122  and  OH_123 
REMARK   40  A    between atoms: N_133  and  CA_134 
REMARK   41  A    between atoms: CA_134  and  C_135 
REMARK   42  A    between atoms: CA_134  and  CB_137 
REMARK       I    between atoms: C_135  and  N_143 
REMARK   43  A    between atoms: N_143  and  CA_144 
REMARK   44  A    between atoms: CA_144  and  C_145 
REMARK   45  A    between atoms: CA_144  and  CB_147 
REMARK       I    between atoms: C_145  and  N_160 
REMARK   46  A    between atoms: CB_147  and  CG_148 
REMARK   47  A    between atoms: CG_148  and  CD_149 
REMARK       I    between atoms: CD_149  and  NE2_151 
REMARK   48  A    between atoms: N_160  and  CA_161 
REMARK   49  A    between atoms: CA_161  and  C_162 
REMARK   50  A    between atoms: CA_161  and  CB_164 
REMARK       I    between atoms: C_162  and  N_176 
REMARK   51  A    between atoms: CB_164  and  CG1_165 
REMARK   52  A    between atoms: CB_164  and  CG2_166 
REMARK   53  A    between atoms: N_176  and  CA_177 
REMARK   54  A    between atoms: CA_177  and  C_178 
REMARK   55  A    between atoms: CA_177  and  CB_180 
REMARK       I    between atoms: C_178  and  N_193 
REMARK   56  A    between atoms: CB_180  and  CG_181 
REMARK   57  A    between atoms: CG_181  and  CD_182 
REMARK       I    between atoms: CD_182  and  NE2_184 
REMARK   58  A    between atoms: N_193  and  CA_194 
REMARK   59  A    between atoms: CA_194  and  C_195 
REMARK   60  A    between atoms: CA_194  and  CB_197 
REMARK   61  A    between atoms: CB_197  and  CG_198 
REMARK   62  A    between atoms: CG_198  and  CD_199 
REMARK   63  A    between atoms: CD_199  and  CE_200 
REMARK   64  A    between atoms: CE_200  and  NZ_201 
ROOT
ATOM      1  CA  ILE d   1       6.315   9.087   5.056  0.00  0.00     0.092 C 
ATOM      2  H53 ILE d   1       6.920   9.823   5.606  0.00  0.00     0.088 H 
ENDROOT
BRANCH   1   3
ATOM      3  N   ILE d   1       7.162   7.937   4.758  0.00  0.00    -0.346 N 
ATOM      4  C   THR d   1       8.357   7.786   5.322  0.00  0.00     0.243 C 
ATOM      5  O   THR d   1       8.827   8.594   6.123  0.00  0.00    -0.271 OA
ATOM      6  H52 ILE d   1       6.836   7.245   4.114  0.00  0.00     0.163 HD
BRANCH   4   7
ATOM      7  CA  THR d   1       9.140   6.538   4.921  0.00  0.00     0.113 C 
ATOM      8  H46 THR d   1       8.710   6.137   3.992  0.00  0.00     0.091 H 
BRANCH   7   9
ATOM      9  N   THR d   1      10.542   6.856   4.672  0.00  0.00    -0.344 N 
ATOM     10  C   LEU d   1      11.286   6.131   3.839  0.00  0.00     0.241 C 
ATOM     11  O   LEU d   1      10.850   5.154   3.229  0.00  0.00    -0.271 OA
ATOM     12  H45 THR d   1      10.955   7.638   5.139  0.00  0.00     0.163 HD
BRANCH  10  13
ATOM     13  CA  LEU d   1      12.736   6.577   3.674  0.00  0.00     0.089 C 
ATOM     14  H35 LEU d   1      12.744   7.559   3.178  0.00  0.00     0.087 H 
BRANCH  13  15
ATOM     15  N   LEU d   1      13.388   6.711   4.971  0.00  0.00    -0.346 N 
ATOM     16  C   SER d   1      13.664   7.902   5.493  0.00  0.00     0.243 C 
ATOM     17  O   SER d   1      13.391   8.961   4.927  0.00  0.00    -0.271 OA
ATOM     18  H34 LEU d   1      13.634   5.886   5.481  0.00  0.00     0.163 HD
BRANCH  16  19
ATOM     19  CA  SER d   1      14.349   7.898   6.855  0.00  0.00     0.109 C 
ATOM     20  H30 SER d   1      14.214   6.907   7.312  0.00  0.00     0.090 H 
BRANCH  19  21
ATOM     21  N   SER d   1      15.778   8.152   6.717  0.00  0.00    -0.344 N 
ATOM     22  C   LYS d   1      16.639   7.851   7.685  0.00  0.00     0.241 C 
ATOM     23  O   LYS d   1      16.296   7.343   8.754  0.00  0.00    -0.271 OA
ATOM     24  H29 SER d   1      16.120   8.563   5.872  0.00  0.00     0.163 HD
BRANCH  22  25
ATOM     25  CA  LYS d   1      18.105   8.169   7.406  0.00  0.00     0.089 C 
ATOM     26  H17 LYS d   1      18.583   7.270   6.990  0.00  0.00     0.087 H 
BRANCH  25  27
ATOM     27  N   LYS d   1      18.230   9.249   6.433  0.00  0.00    -0.346 N 
ATOM     28  C   ARG d   1      17.677  10.443   6.633  0.00  0.00     0.248 C 
ATOM     29  O   ARG d   1      17.027  10.723   7.641  0.00  0.00    -0.271 OA
ATOM     30  H16 LYS d   1      18.746   9.088   5.592  0.00  0.00     0.163 HD
BRANCH  28  31
ATOM     31  CA  ARG d   1      17.887  11.476   5.530  0.00  0.00     0.176 C 
ATOM     32  H4  ARG d   1      17.987  10.950   4.569  0.00  0.00     0.099 H 
BRANCH  31  33
ATOM     33  N   ARG d   1      16.740  12.416   5.449  0.00  0.00    -0.067 N 
ATOM     34  H1  ARG d   1      16.905  13.085   4.714  0.00  0.00     0.275 HD
ATOM     35  H2  ARG d   1      16.639  12.900   6.328  0.00  0.00     0.275 HD
ATOM     36  H3  ARG d   1      15.897  11.901   5.250  0.00  0.00     0.275 HD
ENDBRANCH  31  33
BRANCH  31  37
ATOM     37  CB  ARG d   1      19.160  12.283   5.796  0.00  0.00    -0.029 C 
ATOM     38  H5  ARG d   1      20.002  11.582   5.899  0.00  0.00     0.036 H 
ATOM     39  H6  ARG d   1      19.029  12.840   6.736  0.00  0.00     0.036 H 
BRANCH  37  40
ATOM     40  CG  ARG d   1      19.491  13.273   4.692  0.00  0.00    -0.047 C 
ATOM     41  H7  ARG d   1      18.641  13.959   4.560  0.00  0.00     0.035 H 
ATOM     42  H8  ARG d   1      19.665  12.721   3.757  0.00  0.00     0.035 H 
BRANCH  40  43
ATOM     43  CD  ARG d   1      20.732  14.083   5.026  0.00  0.00     0.009 C 
ATOM     44  H9  ARG d   1      20.721  14.323   6.099  0.00  0.00     0.064 H 
ATOM     45  H10 ARG d   1      20.716  15.015   4.442  0.00  0.00     0.064 H 
BRANCH  43  46
ATOM     46  NE  ARG d   1      21.960  13.355   4.718  0.00  0.00    -0.227 N 
ATOM     47  CZ  ARG d   1      22.607  13.455   3.560  0.00  0.00     0.665 C 
ATOM     48  NH1 ARG d   1      22.146  14.251   2.604  0.00  0.00    -0.235 N 
ATOM     49  NH2 ARG d   1      23.717  12.759   3.358  0.00  0.00    -0.235 N 
ATOM     50  H12 ARG d   1      22.650  14.326   1.709  0.00  0.00     0.174 HD
ATOM     51  H13 ARG d   1      21.284  14.794   2.757  0.00  0.00     0.174 HD
ATOM     52  H14 ARG d   1      24.078  12.140   4.098  0.00  0.00     0.174 HD
ATOM     53  H15 ARG d   1      24.218  12.837   2.462  0.00  0.00     0.174 HD
ATOM     54  H11 ARG d   1      22.347  12.729   5.438  0.00  0.00     0.177 HD
ENDBRANCH  43  46
ENDBRANCH  40  43
ENDBRANCH  37  40
ENDBRANCH  31  37
ENDBRANCH  28  31
ENDBRANCH  25  27
BRANCH  25  55
ATOM     55  CB  LYS d   1      18.817   8.542   8.709  0.00  0.00    -0.038 C 
ATOM     56  H18 LYS d   1      18.331   8.005   9.537  0.00  0.00     0.036 H 
ATOM     57  H19 LYS d   1      18.713   9.626   8.864  0.00  0.00     0.036 H 
BRANCH  55  58
ATOM     58  CG  LYS d   1      20.297   8.196   8.715  0.00  0.00    -0.061 C 
ATOM     59  H20 LYS d   1      20.522   7.573   7.837  0.00  0.00     0.033 H 
ATOM     60  H21 LYS d   1      20.529   7.635   9.632  0.00  0.00     0.033 H 
BRANCH  58  61
ATOM     61  CD  LYS d   1      21.161   9.447   8.669  0.00  0.00    -0.043 C 
ATOM     62  H22 LYS d   1      20.561  10.308   8.998  0.00  0.00     0.035 H 
ATOM     63  H23 LYS d   1      21.500   9.609   7.635  0.00  0.00     0.035 H 
BRANCH  61  64
ATOM     64  CE  LYS d   1      22.377   9.319   9.573  0.00  0.00     0.080 C 
ATOM     65  H24 LYS d   1      23.285   9.461   8.969  0.00  0.00     0.075 H 
ATOM     66  H25 LYS d   1      22.385   8.313  10.017  0.00  0.00     0.075 H 
BRANCH  64  67
ATOM     67  NZ  LYS d   1      22.364  10.328  10.667  0.00  0.00    -0.079 N 
ATOM     68  H26 LYS d   1      23.183  10.211  11.242  0.00  0.00     0.274 HD
ATOM     69  H27 LYS d   1      21.538  10.202  11.230  0.00  0.00     0.274 HD
ATOM     70  H28 LYS d   1      22.362  11.254  10.270  0.00  0.00     0.274 HD
ENDBRANCH  64  67
ENDBRANCH  61  64
ENDBRANCH  58  61
ENDBRANCH  55  58
ENDBRANCH  25  55
ENDBRANCH  22  25
ENDBRANCH  19  21
BRANCH  19  71
ATOM     71  CB  SER d   1      13.706   8.947   7.764  0.00  0.00     0.044 C 
ATOM     72  H31 SER d   1      13.953   8.715   8.811  0.00  0.00     0.077 H 
ATOM     73  H32 SER d   1      12.615   8.918   7.630  0.00  0.00     0.077 H 
BRANCH  71  74
ATOM     74  OG  SER d   1      14.176  10.248   7.455  0.00  0.00    -0.398 OA
ATOM     75  H33 SER d   1      15.118  10.280   7.573  0.00  0.00     0.209 HD
ENDBRANCH  71  74
ENDBRANCH  19  71
ENDBRANCH  16  19
ENDBRANCH  13  15
BRANCH  13  76
ATOM     76  CB  LEU d   1      13.496   5.580   2.793  0.00  0.00    -0.035 C 
ATOM     77  H36 LEU d   1      13.715   6.072   1.834  0.00  0.00     0.037 H 
ATOM     78  H37 LEU d   1      12.842   4.713   2.619  0.00  0.00     0.037 H 
BRANCH  76  79
ATOM     79  CG  LEU d   1      14.816   5.067   3.374  0.00  0.00    -0.059 C 
ATOM     80  H38 LEU d   1      14.679   4.900   4.452  0.00  0.00     0.038 H 
BRANCH  79  81
ATOM     81  CD1 LEU d   1      15.204   3.745   2.729  0.00  0.00    -0.073 C 
ATOM     82  H39 LEU d   1      16.153   3.392   3.158  0.00  0.00     0.028 H 
ATOM     83  H40 LEU d   1      15.322   3.887   1.645  0.00  0.00     0.028 H 
ATOM     84  H41 LEU d   1      14.417   3.000   2.918  0.00  0.00     0.028 H 
ENDBRANCH  79  81
BRANCH  79  85
ATOM     85  CD2 LEU d   1      15.919   6.098   3.185  0.00  0.00    -0.073 C 
ATOM     86  H42 LEU d   1      15.620   7.045   3.657  0.00  0.00     0.028 H 
ATOM     87  H43 LEU d   1      16.088   6.261   2.110  0.00  0.00     0.028 H 
ATOM     88  H44 LEU d   1      16.846   5.733   3.651  0.00  0.00     0.028 H 
ENDBRANCH  79  85
ENDBRANCH  76  79
ENDBRANCH  13  76
ENDBRANCH  10  13
ENDBRANCH   7   9
BRANCH   7  89
ATOM     89  CB  THR d   1       8.992   5.478   6.027  0.00  0.00     0.060 C 
ATOM     90  H47 THR d   1       8.990   5.986   7.003  0.00  0.00     0.086 H 
BRANCH  89  91
ATOM     91  OG1 THR d   1      10.093   4.563   5.982  0.00  0.00    -0.393 OA
ATOM     92  H48 THR d   1      10.110   4.131   5.136  0.00  0.00     0.210 HD
ENDBRANCH  89  91
BRANCH  89  93
ATOM     93  CG2 THR d   1       7.686   4.712   5.872  0.00  0.00    -0.050 C 
ATOM     94  H49 THR d   1       7.604   3.962   6.672  0.00  0.00     0.031 H 
ATOM     95  H50 THR d   1       7.670   4.208   4.894  0.00  0.00     0.031 H 
ATOM     96  H51 THR d   1       6.840   5.412   5.937  0.00  0.00     0.031 H 
ENDBRANCH  89  93
ENDBRANCH   7  89
ENDBRANCH   4   7
ENDBRANCH   1   3
BRANCH   1  97
ATOM     97  C   ILE d   1       5.128   8.689   5.927  0.00  0.00     0.241 C 
ATOM     98  O   ILE d   1       4.709   9.447   6.801  0.00  0.00    -0.271 OA
ATOM     99  N   TYR d   1       4.591   7.497   5.679  0.00  0.00    -0.346 N 
ATOM    100  H63 TYR d   1       4.980   6.930   4.953  0.00  0.00     0.163 HD
BRANCH  99 101
ATOM    101  CA  TYR d   1       3.449   6.994   6.439  0.00  0.00     0.093 C 
ATOM    102  H64 TYR d   1       3.160   6.016   6.026  0.00  0.00     0.088 H 
BRANCH 101 103
ATOM    103  C   TYR d   1       2.257   7.940   6.324  0.00  0.00     0.241 C 
ATOM    104  O   TYR d   1       1.409   7.999   7.216  0.00  0.00    -0.271 OA
ATOM    105  N   ALA d   1       2.198   8.677   5.220  0.00  0.00    -0.346 N 
ATOM    106  H72 ALA d   1       2.917   8.582   4.532  0.00  0.00     0.163 HD
BRANCH 105 107
ATOM    107  CA  ALA d   1       1.111   9.620   4.987  0.00  0.00     0.086 C 
ATOM    108  H73 ALA d   1       0.966  10.213   5.902  0.00  0.00     0.086 H 
BRANCH 107 109
ATOM    109  C   ALA d   1      -0.192   8.892   4.675  0.00  0.00     0.240 C 
ATOM    110  O   ALA d   1      -0.281   7.671   4.812  0.00  0.00    -0.271 OA
ATOM    111  N   GLN d   1      -1.198   9.650   4.252  0.00  0.00    -0.346 N 
ATOM    112  H77 GLN d   1      -1.060  10.636   4.162  0.00  0.00     0.163 HD
BRANCH 111 113
ATOM    113  CA  GLN d   1      -2.497   9.081   3.916  0.00  0.00     0.090 C 
ATOM    114  H78 GLN d   1      -2.437   7.988   4.026  0.00  0.00     0.087 H 
BRANCH 113 115
ATOM    115  C   GLN d   1      -2.873   9.403   2.474  0.00  0.00     0.241 C 
ATOM    116  O   GLN d   1      -2.166  10.139   1.786  0.00  0.00    -0.271 OA
ATOM    117  N   VAL d   1      -3.993   8.846   2.023  0.00  0.00    -0.346 N 
ATOM    118  H85 VAL d   1      -4.523   8.257   2.633  0.00  0.00     0.163 HD
BRANCH 117 119
ATOM    119  CA  VAL d   1      -4.469   9.071   0.664  0.00  0.00     0.092 C 
ATOM    120  H86 VAL d   1      -3.616   8.961  -0.022  0.00  0.00     0.088 H 
BRANCH 119 121
ATOM    121  C   VAL d   1      -5.039  10.479   0.510  0.00  0.00     0.241 C 
ATOM    122  O   VAL d   1      -6.030  10.831   1.149  0.00  0.00    -0.271 OA
ATOM    123  N   GLN d   1      -4.402  11.281  -0.341  0.00  0.00    -0.346 N 
ATOM    124  H94 GLN d   1      -3.602  10.935  -0.831  0.00  0.00     0.163 HD
BRANCH 123 125
ATOM    125  CA  GLN d   1      -4.842  12.653  -0.576  0.00  0.00     0.090 C 
ATOM    126  H95 GLN d   1      -5.399  12.995   0.309  0.00  0.00     0.087 H 
BRANCH 125 127
ATOM    127  C   GLN d   1      -5.764  12.736  -1.791  0.00  0.00     0.241 C 
ATOM    128  O   GLN d   1      -5.953  13.810  -2.363  0.00  0.00    -0.271 OA
ATOM    129  N   LYS d   1      -6.334  11.600  -2.179  0.00  0.00    -0.345 N 
ATOM    130 2H10 LYS d   1      -6.141  10.759  -1.673  0.00  0.00     0.163 HD
BRANCH 129 131
ATOM    131  CA  LYS d   1      -7.235  11.552  -3.326  0.00  0.00     0.096 C 
ATOM    132 3H10 LYS d   1      -7.497  12.583  -3.605  0.00  0.00     0.089 H 
BRANCH 131 133
ATOM    133  C   LYS d   1      -8.519  10.804  -2.982  0.00  0.00     0.196 C 
ATOM    134  O   LYS d   1      -9.606  11.301  -3.343  0.00  0.00    -0.646 OA
ATOM    135  OXT LYS d   1      -8.426   9.728  -2.357  0.00  0.00    -0.646 OA
ENDBRANCH 131 133
BRANCH 131 136
ATOM    136  CB  LYS d   1      -6.544  10.885  -4.517  0.00  0.00    -0.037 C 
ATOM    137 4H10 LYS d   1      -7.178  10.058  -4.869  0.00  0.00     0.036 H 
ATOM    138 5H10 LYS d   1      -5.576  10.487  -4.179  0.00  0.00     0.036 H 
BRANCH 136 139
ATOM    139  CG  LYS d   1      -6.295  11.829  -5.683  0.00  0.00    -0.061 C 
ATOM    140 6H10 LYS d   1      -6.649  12.834  -5.411  0.00  0.00     0.033 H 
ATOM    141 7H10 LYS d   1      -6.853  11.469  -6.560  0.00  0.00     0.033 H 
BRANCH 139 142
ATOM    142  CD  LYS d   1      -4.817  11.903  -6.033  0.00  0.00    -0.043 C 
ATOM    143 8H10 LYS d   1      -4.678  11.570  -7.072  0.00  0.00     0.035 H 
ATOM    144 9H10 LYS d   1      -4.256  11.241  -5.357  0.00  0.00     0.035 H 
BRANCH 142 145
ATOM    145  CE  LYS d   1      -4.282  13.319  -5.893  0.00  0.00     0.080 C 
ATOM    146 0H11 LYS d   1      -3.185  13.294  -5.970  0.00  0.00     0.075 H 
ATOM    147 1H11 LYS d   1      -4.571  13.713  -4.907  0.00  0.00     0.075 H 
BRANCH 145 148
ATOM    148  NZ  LYS d   1      -4.818  14.222  -6.948  0.00  0.00    -0.079 N 
ATOM    149 2H11 LYS d   1      -4.441  15.148  -6.821  0.00  0.00     0.274 HD
ATOM    150 3H11 LYS d   1      -5.823  14.257  -6.882  0.00  0.00     0.274 HD
ATOM    151 4H11 LYS d   1      -4.553  13.873  -7.856  0.00  0.00     0.274 HD
ENDBRANCH 145 148
ENDBRANCH 142 145
ENDBRANCH 139 142
ENDBRANCH 136 139
ENDBRANCH 131 136
ENDBRANCH 129 131
ENDBRANCH 125 127
BRANCH 125 152
ATOM    152  CB  GLN d   1      -3.634  13.571  -0.779  0.00  0.00    -0.030 C 
ATOM    153  H96 GLN d   1      -3.984  14.614  -0.768  0.00  0.00     0.037 H 
ATOM    154  H97 GLN d   1      -3.187  13.345  -1.758  0.00  0.00     0.037 H 
BRANCH 152 155
ATOM    155  CG  GLN d   1      -2.561  13.414   0.286  0.00  0.00     0.011 C 
ATOM    156  H98 GLN d   1      -2.743  12.478   0.835  0.00  0.00     0.047 H 
ATOM    157  H99 GLN d   1      -2.626  14.265   0.980  0.00  0.00     0.047 H 
BRANCH 155 158
ATOM    158  CD  GLN d   1      -1.162  13.370  -0.298  0.00  0.00     0.215 C 
ATOM    159  OE1 GLN d   1      -0.973  13.534  -1.504  0.00  0.00    -0.274 OA
ATOM    160  NE2 GLN d   1      -0.172  13.147   0.558  0.00  0.00    -0.370 N 
ATOM    161 0H10 GLN d   1       0.772  13.107   0.231  0.00  0.00     0.159 HD
ATOM    162 1H10 GLN d   1      -0.370  13.019   1.530  0.00  0.00     0.159 HD
ENDBRANCH 155 158
ENDBRANCH 152 155
ENDBRANCH 125 152
ENDBRANCH 123 125
ENDBRANCH 119 121
BRANCH 119 163
ATOM    163  CB  VAL d   1      -5.548   8.041   0.274  0.00  0.00    -0.033 C 
ATOM    164  H87 VAL d   1      -6.417   8.187   0.933  0.00  0.00     0.042 H 
BRANCH 163 165
ATOM    165  CG1 VAL d   1      -6.001   8.251  -1.163  0.00  0.00    -0.071 C 
ATOM    166  H88 VAL d   1      -6.769   7.506  -1.418  0.00  0.00     0.028 H 
ATOM    167  H89 VAL d   1      -5.141   8.137  -1.839  0.00  0.00     0.028 H 
ATOM    168  H90 VAL d   1      -6.420   9.262  -1.271  0.00  0.00     0.028 H 
ENDBRANCH 163 165
BRANCH 163 169
ATOM    169  CG2 VAL d   1      -5.031   6.624   0.474  0.00  0.00    -0.071 C 
ATOM    170  H91 VAL d   1      -4.710   6.495   1.518  0.00  0.00     0.028 H 
ATOM    171  H92 VAL d   1      -4.178   6.447  -0.197  0.00  0.00     0.028 H 
ATOM    172  H93 VAL d   1      -5.832   5.906   0.246  0.00  0.00     0.028 H 
ENDBRANCH 163 169
ENDBRANCH 119 163
ENDBRANCH 117 119
ENDBRANCH 113 115
BRANCH 113 173
ATOM    173  CB  GLN d   1      -3.571   9.609   4.868  0.00  0.00    -0.030 C 
ATOM    174  H79 GLN d   1      -4.522   9.672   4.319  0.00  0.00     0.037 H 
ATOM    175  H80 GLN d   1      -3.275  10.614   5.205  0.00  0.00     0.037 H 
BRANCH 173 176
ATOM    176  CG  GLN d   1      -3.779   8.733   6.093  0.00  0.00     0.011 C 
ATOM    177  H81 GLN d   1      -2.863   8.149   6.268  0.00  0.00     0.047 H 
ATOM    178  H82 GLN d   1      -4.618   8.049   5.898  0.00  0.00     0.047 H 
BRANCH 176 179
ATOM    179  CD  GLN d   1      -4.088   9.538   7.341  0.00  0.00     0.215 C 
ATOM    180  OE1 GLN d   1      -3.182   9.973   8.054  0.00  0.00    -0.274 OA
ATOM    181  NE2 GLN d   1      -5.372   9.738   7.615  0.00  0.00    -0.370 N 
ATOM    182  H83 GLN d   1      -5.635  10.262   8.425  0.00  0.00     0.159 HD
ATOM    183  H84 GLN d   1      -6.076   9.365   7.011  0.00  0.00     0.159 HD
ENDBRANCH 176 179
ENDBRANCH 173 176
ENDBRANCH 113 173
ENDBRANCH 111 113
ENDBRANCH 107 109
BRANCH 107 184
ATOM    184  CB  ALA d   1       1.468  10.565   3.851  0.00  0.00    -0.049 C 
ATOM    185  H74 ALA d   1       0.640  11.270   3.687  0.00  0.00     0.030 H 
ATOM    186  H75 ALA d   1       1.643   9.985   2.933  0.00  0.00     0.030 H 
ATOM    187  H76 ALA d   1       2.379  11.124   4.112  0.00  0.00     0.030 H 
ENDBRANCH 107 184
ENDBRANCH 105 107
ENDBRANCH 101 103
BRANCH 101 188
ATOM    188  CB  TYR d   1       3.826   6.810   7.910  0.00  0.00    -0.014 C 
ATOM    189  H65 TYR d   1       3.082   7.335   8.527  0.00  0.00     0.043 H 
ATOM    190  H66 TYR d   1       4.818   7.256   8.073  0.00  0.00     0.043 H 
BRANCH 188 191
ATOM    191  CG  TYR d   1       3.875   5.363   8.348  0.00  0.00    -0.056 A 
ATOM    192  CD1 TYR d   1       2.752   4.740   8.881  0.00  0.00    -0.074 A 
ATOM    193  CE1 TYR d   1       2.795   3.420   9.285  0.00  0.00    -0.051 A 
ATOM    194  H67 TYR d   1       1.829   5.299   8.981  0.00  0.00     0.084 H 
ATOM    195  CZ  TYR d   1       3.966   2.704   9.159  0.00  0.00     0.065 A 
ATOM    196  H69 TYR d   1       1.911   2.949   9.700  0.00  0.00     0.087 H 
ATOM    197  CE2 TYR d   1       5.093   3.301   8.633  0.00  0.00    -0.051 A 
ATOM    198  CD2 TYR d   1       5.043   4.622   8.232  0.00  0.00    -0.074 A 
ATOM    199  H70 TYR d   1       6.013   2.736   8.535  0.00  0.00     0.087 H 
ATOM    200  H68 TYR d   1       5.931   5.088   7.820  0.00  0.00     0.084 H 
BRANCH 195 201
ATOM    201  OH  TYR d   1       4.011   1.389   9.560  0.00  0.00    -0.361 OA
ATOM    202  H71 TYR d   1       3.160   1.132   9.896  0.00  0.00     0.217 HD
ENDBRANCH 195 201
ENDBRANCH 188 191
ENDBRANCH 101 188
ENDBRANCH  99 101
ENDBRANCH   1  97
BRANCH   1 203
ATOM    203  CB  ILE d   1       5.792   9.750   3.764  0.00  0.00    -0.030 C 
ATOM    204  H54 ILE d   1       5.141   9.032   3.244  0.00  0.00     0.043 H 
BRANCH 203 205
ATOM    205  CG1 ILE d   1       6.957  10.106   2.833  0.00  0.00    -0.063 C 
ATOM    206  H55 ILE d   1       6.543  10.522   1.903  0.00  0.00     0.033 H 
ATOM    207  H56 ILE d   1       7.513   9.185   2.607  0.00  0.00     0.033 H 
BRANCH 205 208
ATOM    208  CD1 ILE d   1       7.923  11.115   3.418  0.00  0.00    -0.076 C 
ATOM    209  H60 ILE d   1       8.726  11.317   2.694  0.00  0.00     0.027 H 
ATOM    210  H61 ILE d   1       8.358  10.712   4.344  0.00  0.00     0.027 H 
ATOM    211  H62 ILE d   1       7.387  12.049   3.641  0.00  0.00     0.027 H 
ENDBRANCH 205 208
ENDBRANCH 203 205
BRANCH 203 212
ATOM    212  CG2 ILE d   1       4.970  10.989   4.096  0.00  0.00    -0.071 C 
ATOM    213  H57 ILE d   1       4.141  10.711   4.764  0.00  0.00     0.028 H 
ATOM    214  H58 ILE d   1       4.565  11.420   3.168  0.00  0.00     0.028 H 
ATOM    215  H59 ILE d   1       5.610  11.731   4.596  0.00  0.00     0.028 H 
ENDBRANCH 203 212
ENDBRANCH   1 203
TORSDOF 64
