REMARK  4 active torsions:
REMARK  status: ('A' for Active; 'I' for Inactive)
REMARK    1  A    between atoms: C1_1  and  P1_15 
REMARK    2  A    between atoms: C1_1  and  C8_8 
REMARK    3  A    between atoms: C2_2  and  C12_12 
REMARK    4  A    between atoms: C12_12  and  P2_21 
ROOT
ATOM      1  C2  FNP d   1      25.665  24.469  -0.901  0.00  0.00     0.028 A 
ATOM      2  C3  FNP d   1      24.995  25.362  -0.079  0.00  0.00    -0.070 A 
ATOM      3  C4  FNP d   1      24.277  24.953   1.029  0.00  0.00    -0.071 A 
ATOM      4  C5  FNP d   1      24.210  23.591   1.359  0.00  0.00    -0.026 A 
ATOM      5  C6  FNP d   1      23.486  23.155   2.480  0.00  0.00    -0.071 A 
ATOM      6  C7  FNP d   1      23.431  21.819   2.790  0.00  0.00    -0.070 A 
ATOM      7  C8  FNP d   1      24.070  20.885   2.033  0.00  0.00     0.028 A 
ATOM      8  C9  FNP d   1      24.809  21.285   0.890  0.00  0.00    -0.060 A 
ATOM      9  C10 FNP d   1      24.881  22.645   0.548  0.00  0.00    -0.025 A 
ATOM     10  C11 FNP d   1      25.600  23.098  -0.575  0.00  0.00    -0.060 A 
ATOM     11  H1  FNP d   1      25.036  26.419  -0.314  0.00  0.00     0.084 H 
ATOM     12  H2  FNP d   1      23.765  25.685   1.643  0.00  0.00     0.084 H 
ATOM     13  H3  FNP d   1      22.969  23.876   3.103  0.00  0.00     0.084 H 
ATOM     14  H4  FNP d   1      22.866  21.500   3.658  0.00  0.00     0.084 H 
ATOM     15  H5  FNP d   1      25.316  20.544   0.283  0.00  0.00     0.086 H 
ATOM     16  H6  FNP d   1      26.114  22.378  -1.202  0.00  0.00     0.086 H 
ENDROOT
BRANCH   1  17
ATOM     17  C12 FNP d   1      26.035  24.882  -2.103  0.00  0.00     0.380 C 
ATOM     18  F4  FNP d   1      26.218  23.889  -2.931  0.00  0.00    -0.185 F 
ATOM     19  F3  FNP d   1      25.057  25.829  -2.691  0.00  0.00    -0.185 F 
BRANCH  17  20
ATOM     20  P2  FNP d   1      27.309  26.206  -2.326  0.00  0.00     0.339 P 
ATOM     21  OP6 FNP d   1      28.676  25.662  -2.121  0.00  0.00    -0.635 OA
ATOM     22  OP5 FNP d   1      27.246  26.778  -3.694  0.00  0.00    -0.635 OA
ATOM     23  OP4 FNP d   1      27.081  27.311  -1.359  0.00  0.00    -0.635 OA
ENDBRANCH  17  20
ENDBRANCH   1  17
BRANCH   7  24
ATOM     24  C1  FNP d   1      24.390  19.753   2.617  0.00  0.00     0.380 C 
ATOM     25  F2  FNP d   1      25.539  19.851   3.222  0.00  0.00    -0.185 F 
ATOM     26  F1  FNP d   1      24.448  18.647   1.653  0.00  0.00    -0.185 F 
BRANCH  24  27
ATOM     27  P1  FNP d   1      23.169  18.777   3.641  0.00  0.00     0.339 P 
ATOM     28  OP3 FNP d   1      22.735  17.533   2.941  0.00  0.00    -0.635 OA
ATOM     29  OP2 FNP d   1      23.782  18.372   4.938  0.00  0.00    -0.635 OA
ATOM     30  OP1 FNP d   1      21.960  19.573   3.928  0.00  0.00    -0.635 OA
ENDBRANCH  24  27
ENDBRANCH   7  24
TORSDOF 4
