REMARK WARNING: 32 MAX_TORS EXCEEDED!!!
REMARK  61 active torsions:
REMARK  status: ('A' for Active; 'I' for Inactive)
REMARK    1  A    between atoms: N_1  and  CA_2 
REMARK    2  A    between atoms: CA_2  and  C_3 
REMARK       I    between atoms: C_3  and  N_5 
REMARK    3  A    between atoms: N_5  and  CA_6 
REMARK    4  A    between atoms: CA_6  and  C_7 
REMARK       I    between atoms: C_7  and  N_9 
REMARK    5  A    between atoms: N_9  and  CA_10 
REMARK    6  A    between atoms: CA_10  and  C_11 
REMARK    7  A    between atoms: CA_10  and  CB_13 
REMARK       I    between atoms: C_11  and  N_17 
REMARK    8  A    between atoms: CB_13  and  CG_14 
REMARK       I    between atoms: CG_14  and  ND2_16 
REMARK    9  A    between atoms: N_17  and  CA_18 
REMARK   10  A    between atoms: CA_18  and  C_19 
REMARK   11  A    between atoms: CA_18  and  CB_21 
REMARK       I    between atoms: C_19  and  N_26 
REMARK   12  A    between atoms: CB_21  and  CG_22 
REMARK   13  A    between atoms: CG_22  and  CD_23 
REMARK   14  A    between atoms: N_26  and  CA_27 
REMARK   15  A    between atoms: CA_33  and  CB_36 
REMARK   16  A    between atoms: CB_36  and  CG_37 
REMARK   17  A    between atoms: CA_41  and  CB_44 
REMARK   18  A    between atoms: CB_44  and  CG1_45 
REMARK   19  A    between atoms: CB_44  and  CG2_46 
REMARK   20  A    between atoms: CG1_45  and  CD1_47 
REMARK   21  A    between atoms: CA_49  and  CB_52 
REMARK   22  A    between atoms: CA_54  and  CB_57 
REMARK   23  A    between atoms: CB_57  and  CG_58 
REMARK   24  A    between atoms: CG_58  and  CD_59 
REMARK   25  A    between atoms: CD_59  and  NE_60 
REMARK       I    between atoms: NE_60  and  CZ_61 
REMARK       I    between atoms: CZ_61  and  NH1_62 
REMARK       I    between atoms: CZ_61  and  NH2_63 
REMARK   26  A    between atoms: CA_65  and  CB_68 
REMARK   27  A    between atoms: CB_68  and  CG_69 
REMARK   28  A    between atoms: CG_69  and  SD_70 
REMARK   29  A    between atoms: SD_70  and  CE_71 
REMARK   30  A    between atoms: CA_73  and  CB_76 
REMARK   31  A    between atoms: CB_76  and  CG_77 
REMARK   32  A    between atoms: CA_87  and  CB_90 
REMARK   33  A    between atoms: CB_90  and  CG_91 
REMARK   34  A    between atoms: CG_91  and  CD_92 
REMARK   35  A    between atoms: CA_96  and  CB_99 
REMARK   36  A    between atoms: CB_99  and  CG_100 
REMARK   37  A    between atoms: CA_110  and  CB_113 
REMARK   38  A    between atoms: CB_113  and  CG_114 
REMARK   39  A    between atoms: CG_114  and  CD_115 
REMARK   40  A    between atoms: CA_119  and  C_120 
REMARK       I    between atoms: C_120  and  N_124 
REMARK   41  A    between atoms: N_124  and  CA_125 
REMARK   42  A    between atoms: CA_125  and  C_126 
REMARK   43  A    between atoms: CA_125  and  CB_128 
REMARK       I    between atoms: C_126  and  N_135 
REMARK   44  A    between atoms: CB_128  and  CG_129 
REMARK   45  A    between atoms: N_135  and  CA_136 
REMARK   46  A    between atoms: CA_136  and  C_137 
REMARK   47  A    between atoms: CA_136  and  CB_139 
REMARK       I    between atoms: C_137  and  N_144 
REMARK   48  A    between atoms: CB_139  and  CG_140 
REMARK   49  A    between atoms: CG_140  and  CD_141 
REMARK   50  A    between atoms: N_144  and  CA_145 
REMARK   51  A    between atoms: CA_145  and  C_146 
REMARK   52  A    between atoms: CA_145  and  CB_148 
REMARK       I    between atoms: C_146  and  N_155 
REMARK   53  A    between atoms: CB_148  and  CG_149 
REMARK   54  A    between atoms: CG_149  and  CD_150 
REMARK   55  A    between atoms: CD_150  and  NE_151 
REMARK       I    between atoms: NE_151  and  CZ_152 
REMARK       I    between atoms: CZ_152  and  NH1_153 
REMARK   56  A    between atoms: N_155  and  CA_156 
REMARK   57  A    between atoms: CA_156  and  C_157 
REMARK   58  A    between atoms: CA_156  and  CB_159 
REMARK   59  A    between atoms: CB_159  and  CG_160 
REMARK   60  A    between atoms: CG_160  and  CD1_161 
REMARK   61  A    between atoms: CG_160  and  CD2_162 
ROOT
ATOM      1  N   GLU d   1     -10.915 -24.596  12.152  0.00  0.00    -0.346 N 
ATOM      2  CA  GLU d   1     -10.090 -24.974  13.303  0.00  0.00     0.090 C 
ATOM      3  C   GLU d   1      -9.024 -26.005  12.899  0.00  0.00     0.241 C 
ATOM      4  O   GLU d   1      -8.847 -26.290  11.715  0.00  0.00    -0.271 OA
ATOM      5  N   GLU d   1      -8.770 -29.416  13.378  0.00  0.00    -0.346 N 
ATOM      6  CA  GLU d   1      -9.336 -30.623  12.751  0.00  0.00     0.090 C 
ATOM      7  C   GLU d   1      -9.679 -30.414  11.271  0.00  0.00     0.241 C 
ATOM      8  O   GLU d   1      -9.443 -31.296  10.442  0.00  0.00    -0.271 OA
ATOM      9  H77 GLU d   1     -11.901 -24.762  12.183  0.00  0.00     0.163 HD
ATOM     10  H78 GLU d   1      -9.579 -24.074  13.676  0.00  0.00     0.087 H 
ATOM     11  H93 GLU d   1      -9.168 -29.086  14.234  0.00  0.00     0.163 HD
ATOM     12  H94 GLU d   1      -8.585 -31.424  12.817  0.00  0.00     0.087 H 
ATOM     13  CA  CYS d   1     -16.216 -27.850   8.630  0.00  0.00     0.098 C 
ATOM     14  C   CYS d   1     -16.721 -26.989   7.474  0.00  0.00     0.242 C 
ATOM     15  O   CYS d   1     -16.617 -27.376   6.309  0.00  0.00    -0.271 OA
ATOM     16  CB  CYS d   1     -14.958 -28.608   8.198  0.00  0.00     0.013 C 
ATOM     17  SG  CYS d   1     -14.032 -29.376   9.571  0.00  0.00    -0.095 SA
ATOM     18  N   CYS d   1     -10.241 -29.253  10.944  0.00  0.00    -0.345 N 
ATOM     19  CA  CYS d   1     -10.610 -28.946   9.564  0.00  0.00     0.098 C 
ATOM     20  CB  CYS d   1     -11.490 -27.694   9.505  0.00  0.00     0.013 C 
ATOM     21  SG  CYS d   1     -13.049 -27.824  10.441  0.00  0.00    -0.095 SA
ATOM     22  H22 CYS d   1     -15.958 -27.190   9.471  0.00  0.00     0.088 H 
ATOM     23  H23 CYS d   1     -14.289 -27.901   7.685  0.00  0.00     0.053 H 
ATOM     24  H24 CYS d   1     -15.258 -29.402   7.499  0.00  0.00     0.053 H 
ATOM     25  H99 CYS d   1     -10.415 -28.576  11.659  0.00  0.00     0.163 HD
ATOM     26 0H10 CYS d   1     -11.182 -29.794   9.160  0.00  0.00     0.088 H 
ATOM     27 1H10 CYS d   1     -11.737 -27.496   8.451  0.00  0.00     0.053 H 
ATOM     28 2H10 CYS d   1     -10.914 -26.849   9.911  0.00  0.00     0.053 H 
ATOM     29  N   ASP d   1     -17.260 -25.817   7.800  0.00  0.00    -0.345 N 
ATOM     30  CA  ASP d   1     -17.771 -24.899   6.787  0.00  0.00     0.098 C 
ATOM     31  C   ASP d   1     -16.618 -24.186   6.080  0.00  0.00     0.241 C 
ATOM     32  O   ASP d   1     -15.672 -23.731   6.723  0.00  0.00    -0.271 OA
ATOM     33  H25 ASP d   1     -17.316 -25.558   8.764  0.00  0.00     0.163 HD
ATOM     34  H26 ASP d   1     -18.334 -25.478   6.040  0.00  0.00     0.088 H 
ATOM     35  N   ILE d   1     -16.697 -24.110   4.755  0.00  0.00    -0.346 N 
ATOM     36  CA  ILE d   1     -15.652 -23.474   3.960  0.00  0.00     0.092 C 
ATOM     37  C   ILE d   1     -15.497 -21.988   4.307  0.00  0.00     0.241 C 
ATOM     38  O   ILE d   1     -14.383 -21.466   4.333  0.00  0.00    -0.271 OA
ATOM     39  H29 ILE d   1     -17.493 -24.499   4.291  0.00  0.00     0.163 HD
ATOM     40  H30 ILE d   1     -14.701 -23.976   4.193  0.00  0.00     0.088 H 
ATOM     41  N   ALA d   1     -16.615 -21.313   4.561  0.00  0.00    -0.346 N 
ATOM     42  CA  ALA d   1     -16.592 -19.888   4.891  0.00  0.00     0.086 C 
ATOM     43  C   ALA d   1     -16.660 -19.652   6.399  0.00  0.00     0.240 C 
ATOM     44  O   ALA d   1     -17.233 -18.662   6.854  0.00  0.00    -0.271 OA
ATOM     45  H40 ALA d   1     -17.492 -21.791   4.526  0.00  0.00     0.163 HD
ATOM     46  H41 ALA d   1     -15.642 -19.470   4.527  0.00  0.00     0.086 H 
ATOM     47  N   ARG d   1     -16.067 -20.561   7.167  0.00  0.00    -0.346 N 
ATOM     48  CA  ARG d   1     -16.047 -20.445   8.626  0.00  0.00     0.089 C 
ATOM     49  C   ARG d   1     -14.645 -20.722   9.159  0.00  0.00     0.241 C 
ATOM     50  O   ARG d   1     -13.819 -21.315   8.466  0.00  0.00    -0.271 OA
ATOM     51  H45 ARG d   1     -15.622 -21.346   6.736  0.00  0.00     0.163 HD
ATOM     52  H46 ARG d   1     -16.330 -19.418   8.899  0.00  0.00     0.087 H 
ATOM     53  N   MET d   1     -14.373 -20.276  10.387  0.00  0.00    -0.346 N 
ATOM     54  CA  MET d   1     -13.059 -20.465  11.013  0.00  0.00     0.090 C 
ATOM     55  C   MET d   1     -12.635 -21.936  11.033  0.00  0.00     0.241 C 
ATOM     56  O   MET d   1     -13.022 -22.698  11.921  0.00  0.00    -0.271 OA
ATOM     57  H58 MET d   1     -15.088 -19.797  10.897  0.00  0.00     0.163 HD
ATOM     58  H59 MET d   1     -12.317 -19.903  10.427  0.00  0.00     0.087 H 
ATOM     59  N   TRP d   1     -11.833 -22.323  10.043  0.00  0.00    -0.346 N 
ATOM     60  CA  TRP d   1     -11.353 -23.698   9.928  0.00  0.00     0.093 C 
ATOM     61  C   TRP d   1     -10.385 -24.036  11.064  0.00  0.00     0.241 C 
ATOM     62  O   TRP d   1      -9.184 -23.808  10.951  0.00  0.00    -0.271 OA
ATOM     63  N   TRP d   1      -8.302 -26.546  13.883  0.00  0.00    -0.346 N 
ATOM     64  CA  TRP d   1      -7.238 -27.523  13.623  0.00  0.00     0.093 C 
ATOM     65  C   TRP d   1      -7.745 -28.746  12.844  0.00  0.00     0.241 C 
ATOM     66  O   TRP d   1      -7.203 -29.085  11.791  0.00  0.00    -0.271 OA
ATOM     67  H67 TRP d   1     -11.551 -21.652   9.357  0.00  0.00     0.163 HD
ATOM     68  H68 TRP d   1     -12.216 -24.378   9.987  0.00  0.00     0.088 H 
ATOM     69  H83 TRP d   1      -8.492 -26.277  14.827  0.00  0.00     0.163 HD
ATOM     70  H84 TRP d   1      -6.463 -27.030  13.017  0.00  0.00     0.088 H 
ENDROOT
BRANCH  19  71
ATOM     71  C   CYS d   1      -9.361 -28.749   8.707  0.00  0.00     0.242 C 
ATOM     72  O   CYS d   1      -9.349 -29.099   7.527  0.00  0.00    -0.271 OA
ATOM     73  N   PHE d   1      -8.307 -28.192   9.307  0.00  0.00    -0.346 N 
ATOM     74 3H10 PHE d   1      -8.375 -27.927  10.269  0.00  0.00     0.163 HD
BRANCH  73  75
ATOM     75  CA  PHE d   1      -7.053 -27.960   8.588  0.00  0.00     0.093 C 
ATOM     76 4H10 PHE d   1      -7.283 -27.437   7.648  0.00  0.00     0.088 H 
BRANCH  75  77
ATOM     77  C   PHE d   1      -6.371 -29.286   8.262  0.00  0.00     0.241 C 
ATOM     78  O   PHE d   1      -5.779 -29.444   7.194  0.00  0.00    -0.271 OA
ATOM     79  N   GLU d   1      -6.450 -30.232   9.193  0.00  0.00    -0.346 N 
ATOM     80 2H11 GLU d   1      -6.942 -30.041  10.042  0.00  0.00     0.163 HD
BRANCH  79  81
ATOM     81  CA  GLU d   1      -5.836 -31.541   9.006  0.00  0.00     0.090 C 
ATOM     82 3H11 GLU d   1      -4.770 -31.396   8.775  0.00  0.00     0.087 H 
BRANCH  81  83
ATOM     83  C   GLU d   1      -6.487 -32.284   7.844  0.00  0.00     0.241 C 
ATOM     84  O   GLU d   1      -5.815 -32.981   7.084  0.00  0.00    -0.271 OA
ATOM     85  N   ARG d   1      -7.803 -32.125   7.713  0.00  0.00    -0.346 N 
ATOM     86 8H11 ARG d   1      -8.289 -31.545   8.367  0.00  0.00     0.163 HD
BRANCH  85  87
ATOM     87  CA  ARG d   1      -8.558 -32.773   6.641  0.00  0.00     0.089 C 
ATOM     88 9H11 ARG d   1      -7.865 -33.383   6.043  0.00  0.00     0.087 H 
BRANCH  87  89
ATOM     89  C   ARG d   1      -9.196 -31.725   5.725  0.00  0.00     0.241 C 
ATOM     90  O   ARG d   1     -10.414 -31.528   5.723  0.00  0.00    -0.271 OA
ATOM     91  N   LEU d   1      -8.355 -31.048   4.947  0.00  0.00    -0.345 N 
ATOM     92 1H13 LEU d   1      -7.377 -31.251   4.995  0.00  0.00     0.163 HD
BRANCH  91  93
ATOM     93  CA  LEU d   1      -8.821 -30.018   4.027  0.00  0.00     0.096 C 
ATOM     94 2H13 LEU d   1      -9.725 -29.555   4.450  0.00  0.00     0.089 H 
BRANCH  93  95
ATOM     95  C   LEU d   1      -9.173 -30.621   2.672  0.00  0.00     0.196 C 
ATOM     96  O   LEU d   1      -8.454 -31.541   2.231  0.00  0.00    -0.646 OA
ATOM     97  OXT LEU d   1     -10.168 -30.170   2.065  0.00  0.00    -0.646 OA
ENDBRANCH  93  95
BRANCH  93  98
ATOM     98  CB  LEU d   1      -7.752 -28.938   3.857  0.00  0.00    -0.034 C 
ATOM     99 3H13 LEU d   1      -8.061 -28.276   3.034  0.00  0.00     0.037 H 
ATOM    100 4H13 LEU d   1      -6.805 -29.431   3.595  0.00  0.00     0.037 H 
BRANCH  98 101
ATOM    101  CG  LEU d   1      -7.513 -28.077   5.097  0.00  0.00    -0.059 C 
ATOM    102 5H13 LEU d   1      -7.544 -28.729   5.982  0.00  0.00     0.038 H 
BRANCH 101 103
ATOM    103  CD1 LEU d   1      -6.146 -27.416   5.037  0.00  0.00    -0.073 C 
ATOM    104 6H13 LEU d   1      -5.996 -26.802   5.938  0.00  0.00     0.028 H 
ATOM    105 7H13 LEU d   1      -6.087 -26.777   4.144  0.00  0.00     0.028 H 
ATOM    106 8H13 LEU d   1      -5.366 -28.190   4.986  0.00  0.00     0.028 H 
ENDBRANCH 101 103
BRANCH 101 107
ATOM    107  CD2 LEU d   1      -8.604 -27.028   5.236  0.00  0.00    -0.073 C 
ATOM    108 9H13 LEU d   1      -9.585 -27.523   5.278  0.00  0.00     0.028 H 
ATOM    109 0H14 LEU d   1      -8.572 -26.349   4.371  0.00  0.00     0.028 H 
ATOM    110 1H14 LEU d   1      -8.444 -26.453   6.160  0.00  0.00     0.028 H 
ENDBRANCH 101 107
ENDBRANCH  98 101
ENDBRANCH  93  98
ENDBRANCH  91  93
ENDBRANCH  87  89
BRANCH  87 111
ATOM    111  CB  ARG d   1      -9.628 -33.694   7.237  0.00  0.00    -0.036 C 
ATOM    112 0H12 ARG d   1      -9.124 -34.517   7.765  0.00  0.00     0.036 H 
ATOM    113 1H12 ARG d   1     -10.233 -34.102   6.415  0.00  0.00     0.036 H 
BRANCH 111 114
ATOM    114  CG  ARG d   1     -10.558 -32.989   8.217  0.00  0.00    -0.048 C 
ATOM    115 2H12 ARG d   1     -10.601 -31.921   7.959  0.00  0.00     0.035 H 
ATOM    116 3H12 ARG d   1     -10.155 -33.105   9.234  0.00  0.00     0.035 H 
BRANCH 114 117
ATOM    117  CD  ARG d   1     -11.975 -33.563   8.179  0.00  0.00     0.009 C 
ATOM    118 4H12 ARG d   1     -11.945 -34.554   7.703  0.00  0.00     0.064 H 
ATOM    119 5H12 ARG d   1     -12.615 -32.892   7.588  0.00  0.00     0.064 H 
BRANCH 117 120
ATOM    120  NE  ARG d   1     -12.546 -33.700   9.529  0.00  0.00    -0.227 N 
ATOM    121  CZ  ARG d   1     -13.204 -34.778  10.005  0.00  0.00     0.665 C 
ATOM    122  NH1 ARG d   1     -13.448 -35.865   9.260  0.00  0.00    -0.235 N 
ATOM    123  NH2 ARG d   1     -13.643 -34.751  11.258  0.00  0.00    -0.235 N 
ATOM    124 7H12 ARG d   1     -13.954 -36.665   9.666  0.00  0.00     0.174 HD
ATOM    125 8H12 ARG d   1     -13.129 -35.901   8.281  0.00  0.00     0.174 HD
ATOM    126 9H12 ARG d   1     -13.466 -33.925  11.848  0.00  0.00     0.174 HD
ATOM    127 0H13 ARG d   1     -14.160 -35.556  11.640  0.00  0.00     0.174 HD
ATOM    128 6H12 ARG d   1     -12.433 -32.900  10.168  0.00  0.00     0.177 HD
ENDBRANCH 117 120
ENDBRANCH 114 117
ENDBRANCH 111 114
ENDBRANCH  87 111
ENDBRANCH  85  87
ENDBRANCH  81  83
BRANCH  81 129
ATOM    129  CB  GLU d   1      -5.950 -32.369  10.288  0.00  0.00    -0.029 C 
ATOM    130 4H11 GLU d   1      -5.615 -33.394  10.073  0.00  0.00     0.037 H 
ATOM    131 5H11 GLU d   1      -7.005 -32.386  10.601  0.00  0.00     0.037 H 
BRANCH 129 132
ATOM    132  CG  GLU d   1      -5.116 -31.819  11.433  0.00  0.00     0.018 C 
ATOM    133 6H11 GLU d   1      -5.715 -31.076  11.980  0.00  0.00     0.049 H 
ATOM    134 7H11 GLU d   1      -4.221 -31.334  11.016  0.00  0.00     0.049 H 
BRANCH 132 135
ATOM    135  CD  GLU d   1      -4.676 -32.896  12.403  0.00  0.00     0.172 C 
ATOM    136  OE1 GLU d   1      -5.505 -33.767  12.740  0.00  0.00    -0.648 OA
ATOM    137  OE2 GLU d   1      -3.501 -32.868  12.827  0.00  0.00    -0.648 OA
ENDBRANCH 132 135
ENDBRANCH 129 132
ENDBRANCH  81 129
ENDBRANCH  79  81
ENDBRANCH  75  77
BRANCH  75 138
ATOM    138  CB  PHE d   1      -6.090 -27.093   9.411  0.00  0.00    -0.014 C 
ATOM    139 5H10 PHE d   1      -5.082 -27.213   8.989  0.00  0.00     0.043 H 
ATOM    140 6H10 PHE d   1      -6.100 -27.465  10.446  0.00  0.00     0.043 H 
BRANCH 138 141
ATOM    141  CG  PHE d   1      -6.408 -25.616   9.444  0.00  0.00    -0.056 A 
ATOM    142  CD1 PHE d   1      -6.913 -24.947   8.331  0.00  0.00    -0.077 A 
ATOM    143  CE1 PHE d   1      -7.184 -23.591   8.386  0.00  0.00    -0.082 A 
ATOM    144 7H10 PHE d   1      -7.095 -25.494   7.413  0.00  0.00     0.084 H 
ATOM    145  CZ  PHE d   1      -6.949 -22.886   9.550  0.00  0.00    -0.083 A 
ATOM    146 9H10 PHE d   1      -7.581 -23.082   7.515  0.00  0.00     0.083 H 
ATOM    147  CE2 PHE d   1      -6.446 -23.536  10.658  0.00  0.00    -0.082 A 
ATOM    148 1H11 PHE d   1      -7.160 -21.823   9.593  0.00  0.00     0.083 H 
ATOM    149  CD2 PHE d   1      -6.180 -24.890  10.602  0.00  0.00    -0.077 A 
ATOM    150 0H11 PHE d   1      -6.260 -22.984  11.572  0.00  0.00     0.083 H 
ATOM    151 8H10 PHE d   1      -5.787 -25.393  11.478  0.00  0.00     0.084 H 
ENDBRANCH 138 141
ENDBRANCH  75 138
ENDBRANCH  73  75
ENDBRANCH  19  71
BRANCH   6 152
ATOM    152  CB  GLU d   1     -10.588 -31.066  13.510  0.00  0.00    -0.029 C 
ATOM    153  H95 GLU d   1     -11.170 -31.737  12.861  0.00  0.00     0.037 H 
ATOM    154  H96 GLU d   1     -11.187 -30.174  13.746  0.00  0.00     0.037 H 
BRANCH 152 155
ATOM    155  CG  GLU d   1     -10.280 -31.797  14.806  0.00  0.00     0.018 C 
ATOM    156  H97 GLU d   1      -9.360 -32.384  14.670  0.00  0.00     0.049 H 
ATOM    157  H98 GLU d   1     -11.116 -32.474  15.037  0.00  0.00     0.049 H 
BRANCH 155 158
ATOM    158  CD  GLU d   1     -10.085 -30.851  15.973  0.00  0.00     0.172 C 
ATOM    159  OE1 GLU d   1      -8.961 -30.333  16.137  0.00  0.00    -0.648 OA
ATOM    160  OE2 GLU d   1     -11.057 -30.628  16.725  0.00  0.00    -0.648 OA
ENDBRANCH 155 158
ENDBRANCH 152 155
ENDBRANCH   6 152
BRANCH  13 161
ATOM    161  N   CYS d   1     -17.250 -28.785   9.076  0.00  0.00    -0.345 N 
ATOM    162  C   GLU d   1     -18.147 -28.444  10.003  0.00  0.00     0.241 C 
ATOM    163  O   GLU d   1     -18.165 -27.332  10.534  0.00  0.00    -0.271 OA
ATOM    164  H21 CYS d   1     -17.285 -29.701   8.677  0.00  0.00     0.163 HD
BRANCH 162 165
ATOM    165  CA  GLU d   1     -19.182 -29.518  10.373  0.00  0.00     0.090 C 
ATOM    166  H16 GLU d   1     -19.950 -29.538   9.586  0.00  0.00     0.087 H 
BRANCH 165 167
ATOM    167  N   GLU d   1     -18.561 -30.837  10.448  0.00  0.00    -0.346 N 
ATOM    168  C   ASN d   1     -18.646 -31.712   9.449  0.00  0.00     0.241 C 
ATOM    169  O   ASN d   1     -19.248 -31.469   8.399  0.00  0.00    -0.271 OA
ATOM    170  H15 GLU d   1     -18.057 -31.090  11.274  0.00  0.00     0.163 HD
BRANCH 168 171
ATOM    171  CA  ASN d   1     -17.950 -33.059   9.678  0.00  0.00     0.097 C 
ATOM    172  H10 ASN d   1     -16.862 -32.898   9.648  0.00  0.00     0.088 H 
BRANCH 171 173
ATOM    173  N   ASN d   1     -18.305 -33.604  10.984  0.00  0.00    -0.346 N 
ATOM    174  C   GLY d   1     -17.530 -34.489  11.606  0.00  0.00     0.236 C 
ATOM    175  O   GLY d   1     -16.474 -34.907  11.129  0.00  0.00    -0.272 OA
ATOM    176  H9  ASN d   1     -19.152 -33.305  11.423  0.00  0.00     0.163 HD
BRANCH 174 177
ATOM    177  CA  GLY d   1     -18.019 -34.982  12.956  0.00  0.00     0.069 C 
ATOM    178  H7  GLY d   1     -19.119 -35.000  12.947  0.00  0.00     0.078 H 
ATOM    179  H8  GLY d   1     -17.637 -36.001  13.118  0.00  0.00     0.078 H 
BRANCH 177 180
ATOM    180  N   GLY d   1     -17.576 -34.138  14.056  0.00  0.00    -0.351 N 
ATOM    181  C   GLY d   1     -17.112 -34.672  15.190  0.00  0.00     0.243 C 
ATOM    182  O   GLY d   1     -17.033 -35.888  15.376  0.00  0.00    -0.272 OA
ATOM    183  H6  GLY d   1     -17.619 -33.143  13.962  0.00  0.00     0.163 HD
BRANCH 181 184
ATOM    184  CA  GLY d   1     -16.679 -33.704  16.280  0.00  0.00     0.152 C 
ATOM    185  H4  GLY d   1     -17.513 -33.576  16.986  0.00  0.00     0.090 H 
ATOM    186  H5  GLY d   1     -15.815 -34.134  16.807  0.00  0.00     0.090 H 
BRANCH 184 187
ATOM    187  N   GLY d   1     -16.295 -32.366  15.752  0.00  0.00    -0.071 N 
ATOM    188  H1  GLY d   1     -16.018 -31.770  16.516  0.00  0.00     0.274 HD
ATOM    189  H2  GLY d   1     -17.081 -31.955  15.273  0.00  0.00     0.274 HD
ATOM    190  H3  GLY d   1     -15.525 -32.467  15.109  0.00  0.00     0.274 HD
ENDBRANCH 184 187
ENDBRANCH 181 184
ENDBRANCH 177 180
ENDBRANCH 174 177
ENDBRANCH 171 173
BRANCH 171 191
ATOM    191  CB  ASN d   1     -18.328 -34.059   8.580  0.00  0.00     0.036 C 
ATOM    192  H11 ASN d   1     -19.334 -33.812   8.209  0.00  0.00     0.051 H 
ATOM    193  H12 ASN d   1     -18.334 -35.071   9.011  0.00  0.00     0.051 H 
BRANCH 191 194
ATOM    194  CG  ASN d   1     -17.360 -34.034   7.413  0.00  0.00     0.217 C 
ATOM    195  OD1 ASN d   1     -16.144 -34.095   7.600  0.00  0.00    -0.274 OA
ATOM    196  ND2 ASN d   1     -17.893 -33.943   6.198  0.00  0.00    -0.370 N 
ATOM    197  H13 ASN d   1     -17.301 -33.922   5.393  0.00  0.00     0.159 HD
ATOM    198  H14 ASN d   1     -18.886 -33.895   6.090  0.00  0.00     0.159 HD
ENDBRANCH 191 194
ENDBRANCH 171 191
ENDBRANCH 168 171
ENDBRANCH 165 167
BRANCH 165 199
ATOM    199  CB  GLU d   1     -19.869 -29.198  11.716  0.00  0.00    -0.029 C 
ATOM    200  H17 GLU d   1     -19.599 -28.173  12.010  0.00  0.00     0.037 H 
ATOM    201  H18 GLU d   1     -19.501 -29.906  12.473  0.00  0.00     0.037 H 
BRANCH 199 202
ATOM    202  CG  GLU d   1     -21.394 -29.300  11.658  0.00  0.00     0.018 C 
ATOM    203  H19 GLU d   1     -21.727 -30.000  12.438  0.00  0.00     0.049 H 
ATOM    204  H20 GLU d   1     -21.681 -29.689  10.670  0.00  0.00     0.049 H 
BRANCH 202 205
ATOM    205  CD  GLU d   1     -22.094 -27.968  11.874  0.00  0.00     0.172 C 
ATOM    206  OE1 GLU d   1     -21.972 -27.406  12.981  0.00  0.00    -0.648 OA
ATOM    207  OE2 GLU d   1     -22.765 -27.491  10.934  0.00  0.00    -0.648 OA
ENDBRANCH 202 205
ENDBRANCH 199 202
ENDBRANCH 165 199
ENDBRANCH 162 165
ENDBRANCH  13 161
BRANCH  64 208
ATOM    208  CB  TRP d   1      -6.609 -27.973  14.946  0.00  0.00    -0.012 C 
ATOM    209  H85 TRP d   1      -6.235 -29.000  14.824  0.00  0.00     0.044 H 
ATOM    210  H86 TRP d   1      -7.385 -27.956  15.726  0.00  0.00     0.044 H 
BRANCH 208 211
ATOM    211  CG  TRP d   1      -5.474 -27.102  15.385  0.00  0.00    -0.028 A 
ATOM    212  CD1 TRP d   1      -5.302 -26.534  16.616  0.00  0.00    -0.015 A 
ATOM    213  NE1 TRP d   1      -4.139 -25.803  16.640  0.00  0.00    -0.365 N 
ATOM    214  H87 TRP d   1      -5.987 -26.645  17.455  0.00  0.00     0.112 H 
ATOM    215  CE2 TRP d   1      -3.536 -25.890  15.412  0.00  0.00     0.042 A 
ATOM    216  H88 TRP d   1      -3.779 -25.276  17.448  0.00  0.00     0.165 HD
ATOM    217  CD2 TRP d   1      -4.348 -26.701  14.598  0.00  0.00    -0.002 A 
ATOM    218  CZ2 TRP d   1      -2.349 -25.326  14.952  0.00  0.00    -0.056 A 
ATOM    219  CE3 TRP d   1      -3.948 -26.949  13.281  0.00  0.00    -0.070 A 
ATOM    220  CZ3 TRP d   1      -2.769 -26.387  12.826  0.00  0.00    -0.082 A 
ATOM    221  H89 TRP d   1      -4.551 -27.570  12.629  0.00  0.00     0.084 H 
ATOM    222  CH2 TRP d   1      -1.981 -25.585  13.659  0.00  0.00    -0.081 A 
ATOM    223  H91 TRP d   1      -2.450 -26.571  11.806  0.00  0.00     0.083 H 
ATOM    224  H92 TRP d   1      -1.061 -25.160  13.273  0.00  0.00     0.083 H 
ATOM    225  H90 TRP d   1      -1.738 -24.703  15.595  0.00  0.00     0.086 H 
ENDBRANCH 208 211
ENDBRANCH  64 208
BRANCH  30 226
ATOM    226  CB  ASP d   1     -18.717 -23.882   7.431  0.00  0.00     0.043 C 
ATOM    227  H27 ASP d   1     -18.610 -22.920   6.909  0.00  0.00     0.052 H 
ATOM    228  H28 ASP d   1     -18.437 -23.759   8.488  0.00  0.00     0.052 H 
BRANCH 226 229
ATOM    229  CG  ASP d   1     -20.170 -24.315   7.360  0.00  0.00     0.175 C 
ATOM    230  OD1 ASP d   1     -20.521 -25.067   6.426  0.00  0.00    -0.648 OA
ATOM    231  OD2 ASP d   1     -20.958 -23.904   8.236  0.00  0.00    -0.648 OA
ENDBRANCH 226 229
ENDBRANCH  30 226
BRANCH   2 232
ATOM    232  CB  GLU d   1     -10.977 -25.530  14.421  0.00  0.00    -0.029 C 
ATOM    233  H79 GLU d   1     -11.701 -24.754  14.710  0.00  0.00     0.037 H 
ATOM    234  H80 GLU d   1     -10.339 -25.775  15.283  0.00  0.00     0.037 H 
BRANCH 232 235
ATOM    235  CG  GLU d   1     -11.743 -26.778  14.019  0.00  0.00     0.018 C 
ATOM    236  H81 GLU d   1     -11.044 -27.627  13.992  0.00  0.00     0.049 H 
ATOM    237  H82 GLU d   1     -12.170 -26.622  13.017  0.00  0.00     0.049 H 
BRANCH 235 238
ATOM    238  CD  GLU d   1     -12.868 -27.105  14.981  0.00  0.00     0.172 C 
ATOM    239  OE1 GLU d   1     -12.583 -27.303  16.181  0.00  0.00    -0.648 OA
ATOM    240  OE2 GLU d   1     -14.032 -27.163  14.534  0.00  0.00    -0.648 OA
ENDBRANCH 235 238
ENDBRANCH 232 235
ENDBRANCH   2 232
BRANCH  36 241
ATOM    241  CB  ILE d   1     -15.927 -23.646   2.441  0.00  0.00    -0.030 C 
ATOM    242  H31 ILE d   1     -16.062 -24.719   2.240  0.00  0.00     0.043 H 
BRANCH 241 243
ATOM    243  CG1 ILE d   1     -14.733 -23.154   1.620  0.00  0.00    -0.063 C 
ATOM    244  H32 ILE d   1     -13.810 -23.393   2.169  0.00  0.00     0.033 H 
ATOM    245  H33 ILE d   1     -14.817 -22.064   1.501  0.00  0.00     0.033 H 
BRANCH 243 246
ATOM    246  CD1 ILE d   1     -14.649 -23.781   0.246  0.00  0.00    -0.076 C 
ATOM    247  H37 ILE d   1     -13.772 -23.383  -0.285  0.00  0.00     0.027 H 
ATOM    248  H38 ILE d   1     -15.560 -23.543  -0.322  0.00  0.00     0.027 H 
ATOM    249  H39 ILE d   1     -14.553 -24.872   0.346  0.00  0.00     0.027 H 
ENDBRANCH 243 246
ENDBRANCH 241 243
BRANCH 241 250
ATOM    250  CG2 ILE d   1     -17.203 -22.923   2.016  0.00  0.00    -0.071 C 
ATOM    251  H34 ILE d   1     -18.049 -23.289   2.616  0.00  0.00     0.028 H 
ATOM    252  H35 ILE d   1     -17.397 -23.118   0.951  0.00  0.00     0.028 H 
ATOM    253  H36 ILE d   1     -17.082 -21.841   2.175  0.00  0.00     0.028 H 
ENDBRANCH 241 250
ENDBRANCH  36 241
BRANCH  60 254
ATOM    254  CB  TRP d   1     -10.654 -23.898   8.573  0.00  0.00    -0.012 C 
ATOM    255  H69 TRP d   1      -9.902 -24.692   8.688  0.00  0.00     0.044 H 
ATOM    256  H70 TRP d   1     -10.155 -22.956   8.302  0.00  0.00     0.044 H 
BRANCH 254 257
ATOM    257  CG  TRP d   1     -11.577 -24.284   7.445  0.00  0.00    -0.028 A 
ATOM    258  CD1 TRP d   1     -12.898 -24.645   7.526  0.00  0.00    -0.015 A 
ATOM    259  NE1 TRP d   1     -13.386 -24.931   6.273  0.00  0.00    -0.365 N 
ATOM    260  H71 TRP d   1     -13.476 -24.697   8.448  0.00  0.00     0.112 H 
ATOM    261  CE2 TRP d   1     -12.382 -24.759   5.356  0.00  0.00     0.042 A 
ATOM    262  H72 TRP d   1     -14.349 -25.226   6.058  0.00  0.00     0.165 HD
ATOM    263  CD2 TRP d   1     -11.231 -24.354   6.057  0.00  0.00    -0.002 A 
ATOM    264  CZ2 TRP d   1     -12.391 -24.925   3.973  0.00  0.00    -0.056 A 
ATOM    265  CE3 TRP d   1     -10.058 -24.110   5.339  0.00  0.00    -0.070 A 
ATOM    266  CZ3 TRP d   1     -10.067 -24.276   3.967  0.00  0.00    -0.082 A 
ATOM    267  H73 TRP d   1      -9.155 -23.796   5.850  0.00  0.00     0.084 H 
ATOM    268  CH2 TRP d   1     -11.228 -24.681   3.296  0.00  0.00    -0.081 A 
ATOM    269  H75 TRP d   1      -9.161 -24.090   3.401  0.00  0.00     0.083 H 
ATOM    270  H76 TRP d   1     -11.204 -24.803   2.219  0.00  0.00     0.083 H 
ATOM    271  H74 TRP d   1     -13.289 -25.237   3.451  0.00  0.00     0.086 H 
ENDBRANCH 254 257
ENDBRANCH  60 254
BRANCH  42 272
ATOM    272  CB  ALA d   1     -17.732 -19.168   4.182  0.00  0.00    -0.049 C 
ATOM    273  H42 ALA d   1     -17.705 -18.098   4.437  0.00  0.00     0.030 H 
ATOM    274  H43 ALA d   1     -18.693 -19.597   4.503  0.00  0.00     0.030 H 
ATOM    275  H44 ALA d   1     -17.622 -19.288   3.094  0.00  0.00     0.030 H 
ENDBRANCH  42 272
BRANCH  54 276
ATOM    276  CB  MET d   1     -13.074 -19.912  12.438  0.00  0.00    -0.030 C 
ATOM    277  H60 MET d   1     -13.496 -20.679  13.104  0.00  0.00     0.037 H 
ATOM    278  H61 MET d   1     -13.714 -19.017  12.457  0.00  0.00     0.037 H 
BRANCH 276 279
ATOM    279  CG  MET d   1     -11.697 -19.530  12.955  0.00  0.00    -0.021 C 
ATOM    280  H62 MET d   1     -11.102 -19.140  12.116  0.00  0.00     0.049 H 
ATOM    281  H63 MET d   1     -11.212 -20.429  13.362  0.00  0.00     0.049 H 
BRANCH 279 282
ATOM    282  SD  MET d   1     -11.763 -18.275  14.247  0.00  0.00    -0.173 SA
BRANCH 282 283
ATOM    283  CE  MET d   1     -11.084 -16.862  13.381  0.00  0.00    -0.035 C 
ATOM    284  H64 MET d   1     -11.059 -15.995  14.057  0.00  0.00     0.041 H 
ATOM    285  H65 MET d   1     -11.713 -16.629  12.509  0.00  0.00     0.041 H 
ATOM    286  H66 MET d   1     -10.063 -17.094  13.045  0.00  0.00     0.041 H 
ENDBRANCH 282 283
ENDBRANCH 279 282
ENDBRANCH 276 279
ENDBRANCH  54 276
BRANCH  48 287
ATOM    287  CB  ARG d   1     -17.055 -21.412   9.256  0.00  0.00    -0.036 C 
ATOM    288  H47 ARG d   1     -16.748 -21.610  10.293  0.00  0.00     0.036 H 
ATOM    289  H48 ARG d   1     -17.042 -22.352   8.684  0.00  0.00     0.036 H 
BRANCH 287 290
ATOM    290  CG  ARG d   1     -18.484 -20.870   9.268  0.00  0.00    -0.048 C 
ATOM    291  H49 ARG d   1     -19.061 -21.380   8.483  0.00  0.00     0.035 H 
ATOM    292  H50 ARG d   1     -18.453 -19.791   9.058  0.00  0.00     0.035 H 
BRANCH 290 293
ATOM    293  CD  ARG d   1     -19.182 -21.088  10.608  0.00  0.00     0.009 C 
ATOM    294  H51 ARG d   1     -20.168 -20.601  10.578  0.00  0.00     0.064 H 
ATOM    295  H52 ARG d   1     -18.573 -20.634  11.403  0.00  0.00     0.064 H 
BRANCH 293 296
ATOM    296  NE  ARG d   1     -19.367 -22.509  10.907  0.00  0.00    -0.227 N 
ATOM    297  CZ  ARG d   1     -19.580 -23.008  12.133  0.00  0.00     0.665 C 
ATOM    298  NH1 ARG d   1     -19.670 -22.210  13.194  0.00  0.00    -0.235 N 
ATOM    299  NH2 ARG d   1     -19.715 -24.318  12.290  0.00  0.00    -0.235 N 
ATOM    300  H54 ARG d   1     -19.834 -22.612  14.128  0.00  0.00     0.174 HD
ATOM    301  H55 ARG d   1     -19.576 -21.191  13.081  0.00  0.00     0.174 HD
ATOM    302  H56 ARG d   1     -19.647 -24.944  11.475  0.00  0.00     0.174 HD
ATOM    303  H57 ARG d   1     -19.888 -24.709  13.227  0.00  0.00     0.174 HD
ATOM    304  H53 ARG d   1     -19.331 -23.172  10.120  0.00  0.00     0.177 HD
ENDBRANCH 293 296
ENDBRANCH 290 293
ENDBRANCH 287 290
ENDBRANCH  48 287
TORSDOF 61
