REMARK  29 active torsions:
REMARK  status: ('A' for Active; 'I' for Inactive)
REMARK    1  A    between atoms: N_1  and  CA_2 
REMARK    2  A    between atoms: CA_2  and  C_3 
REMARK    3  A    between atoms: CA_2  and  CB_5 
REMARK       I    between atoms: C_3  and  N_11 
REMARK    4  A    between atoms: CB_5  and  CG_6 
REMARK    5  A    between atoms: N_11  and  CA_12 
REMARK    6  A    between atoms: CA_12  and  C_13 
REMARK    7  A    between atoms: CA_12  and  CB_15 
REMARK       I    between atoms: C_13  and  N_20 
REMARK    8  A    between atoms: CB_15  and  CG_16 
REMARK    9  A    between atoms: CG_16  and  CD_17 
REMARK       I    between atoms: CD_17  and  NE2_19 
REMARK   10  A    between atoms: N_20  and  CA_21 
REMARK   11  A    between atoms: CA_21  and  C_22 
REMARK   12  A    between atoms: CA_21  and  CB_24 
REMARK       I    between atoms: C_22  and  N_28 
REMARK   13  A    between atoms: CB_24  and  CG_25 
REMARK   14  A    between atoms: CG_25  and  CD1_26 
REMARK   15  A    between atoms: CG_25  and  CD2_27 
REMARK   16  A    between atoms: N_28  and  CA_29 
REMARK   17  A    between atoms: CA_29  and  C_30 
REMARK   18  A    between atoms: CA_29  and  CB_32 
REMARK       I    between atoms: C_30  and  N_36 
REMARK   19  A    between atoms: CB_32  and  CG_33 
REMARK   20  A    between atoms: CA_37  and  C_38 
REMARK       I    between atoms: C_38  and  N_43 
REMARK   21  A    between atoms: N_43  and  CA_44 
REMARK   22  A    between atoms: CA_44  and  C_45 
REMARK   23  A    between atoms: CA_44  and  CB_47 
REMARK       I    between atoms: C_45  and  N_48 
REMARK   24  A    between atoms: N_48  and  CA_49 
REMARK   25  A    between atoms: CA_49  and  C_50 
REMARK   26  A    between atoms: CA_49  and  CB_52 
REMARK       I    between atoms: C_50  and  N_59 
REMARK   27  A    between atoms: CB_52  and  CG_53 
REMARK   28  A    between atoms: N_59  and  CA_60 
REMARK   29  A    between atoms: CA_60  and  C_61 
ROOT
ATOM      1  CA  ASP d   1     -23.501   0.380   3.002  0.00  0.00     0.099 C 
ATOM      2  H30 ASP d   1     -24.002  -0.404   2.415  0.00  0.00     0.088 H 
ENDROOT
BRANCH   1   3
ATOM      3  N   ASP d   1     -22.639   1.143   2.114  0.00  0.00    -0.346 N 
ATOM      4  C   LEU d   1     -23.102   1.622   0.969  0.00  0.00     0.241 C 
ATOM      5  O   LEU d   1     -24.260   1.452   0.589  0.00  0.00    -0.271 OA
ATOM      6  H29 ASP d   1     -21.687   1.308   2.370  0.00  0.00     0.163 HD
BRANCH   4   7
ATOM      7  CA  LEU d   1     -22.112   2.386   0.115  0.00  0.00     0.089 C 
ATOM      8  H19 LEU d   1     -21.095   2.019   0.317  0.00  0.00     0.087 H 
BRANCH   7   9
ATOM      9  N   LEU d   1     -22.445   2.153  -1.279  0.00  0.00    -0.346 N 
ATOM     10  C   GLN d   1     -21.720   1.358  -2.053  0.00  0.00     0.241 C 
ATOM     11  O   GLN d   1     -20.709   0.774  -1.664  0.00  0.00    -0.271 OA
ATOM     12  H18 LEU d   1     -23.247   2.607  -1.667  0.00  0.00     0.163 HD
BRANCH  10  13
ATOM     13  CA  GLN d   1     -22.209   1.219  -3.482  0.00  0.00     0.090 C 
ATOM     14  H11 GLN d   1     -23.203   1.684  -3.564  0.00  0.00     0.087 H 
BRANCH  13  15
ATOM     15  N   GLN d   1     -21.303   1.901  -4.395  0.00  0.00    -0.346 N 
ATOM     16  C   HIS d   1     -21.479   3.167  -4.762  0.00  0.00     0.249 C 
ATOM     17  O   HIS d   1     -22.423   3.862  -4.380  0.00  0.00    -0.271 OA
ATOM     18  H10 GLN d   1     -20.519   1.399  -4.760  0.00  0.00     0.163 HD
BRANCH  16  19
ATOM     19  CA  HIS d   1     -20.419   3.719  -5.708  0.00  0.00     0.181 C 
ATOM     20  H4  HIS d   1     -19.452   3.672  -5.186  0.00  0.00     0.099 H 
BRANCH  19  21
ATOM     21  N   HIS d   1     -20.296   2.921  -6.960  0.00  0.00    -0.066 N 
ATOM     22  H1  HIS d   1     -19.585   3.326  -7.548  0.00  0.00     0.275 HD
ATOM     23  H2  HIS d   1     -21.178   2.924  -7.448  0.00  0.00     0.275 HD
ATOM     24  H3  HIS d   1     -20.042   1.973  -6.731  0.00  0.00     0.275 HD
ENDBRANCH  19  21
BRANCH  19  25
ATOM     25  CB  HIS d   1     -20.708   5.190  -6.042  0.00  0.00     0.011 C 
ATOM     26  H5  HIS d   1     -19.749   5.699  -6.218  0.00  0.00     0.046 H 
ATOM     27  H6  HIS d   1     -21.213   5.647  -5.178  0.00  0.00     0.046 H 
BRANCH  25  28
ATOM     28  CG  HIS d   1     -21.573   5.387  -7.250  0.00  0.00     0.053 A 
ATOM     29  ND1 HIS d   1     -21.727   6.618  -7.853  0.00  0.00    -0.247 NA
ATOM     30  CE1 HIS d   1     -22.533   6.498  -8.891  0.00  0.00     0.064 A 
ATOM     31  NE2 HIS d   1     -22.910   5.236  -8.985  0.00  0.00    -0.359 N 
ATOM     32  H8  HIS d   1     -22.836   7.304  -9.558  0.00  0.00     0.143 H 
ATOM     33  CD2 HIS d   1     -22.323   4.520  -7.967  0.00  0.00     0.002 A 
ATOM     34  H9  HIS d   1     -23.540   4.851  -9.703  0.00  0.00     0.166 HD
ATOM     35  H7  HIS d   1     -22.441   3.454  -7.775  0.00  0.00     0.114 H 
ENDBRANCH  25  28
ENDBRANCH  19  25
ENDBRANCH  16  19
ENDBRANCH  13  15
BRANCH  13  36
ATOM     36  CB  GLN d   1     -22.331  -0.265  -3.839  0.00  0.00    -0.030 C 
ATOM     37  H12 GLN d   1     -23.166  -0.379  -4.546  0.00  0.00     0.037 H 
ATOM     38  H13 GLN d   1     -22.554  -0.821  -2.917  0.00  0.00     0.037 H 
BRANCH  36  39
ATOM     39  CG  GLN d   1     -21.091  -0.875  -4.470  0.00  0.00     0.011 C 
ATOM     40  H14 GLN d   1     -20.814  -1.778  -3.907  0.00  0.00     0.047 H 
ATOM     41  H15 GLN d   1     -20.270  -0.144  -4.419  0.00  0.00     0.047 H 
BRANCH  39  42
ATOM     42  CD  GLN d   1     -21.321  -1.254  -5.924  0.00  0.00     0.215 C 
ATOM     43  OE1 GLN d   1     -21.125  -0.444  -6.831  0.00  0.00    -0.274 OA
ATOM     44  NE2 GLN d   1     -21.762  -2.489  -6.148  0.00  0.00    -0.370 N 
ATOM     45  H16 GLN d   1     -21.932  -2.797  -7.084  0.00  0.00     0.159 HD
ATOM     46  H17 GLN d   1     -21.923  -3.109  -5.380  0.00  0.00     0.159 HD
ENDBRANCH  39  42
ENDBRANCH  36  39
ENDBRANCH  13  36
ENDBRANCH  10  13
ENDBRANCH   7   9
BRANCH   7  47
ATOM     47  CB  LEU d   1     -22.173   3.880   0.425  0.00  0.00    -0.035 C 
ATOM     48  H20 LEU d   1     -22.272   3.997   1.514  0.00  0.00     0.037 H 
ATOM     49  H21 LEU d   1     -23.064   4.293  -0.071  0.00  0.00     0.037 H 
BRANCH  47  50
ATOM     50  CG  LEU d   1     -20.959   4.694  -0.029  0.00  0.00    -0.059 C 
ATOM     51  H22 LEU d   1     -20.149   4.561   0.703  0.00  0.00     0.038 H 
BRANCH  50  52
ATOM     52  CD1 LEU d   1     -20.462   4.234  -1.379  0.00  0.00    -0.073 C 
ATOM     53  H23 LEU d   1     -19.591   4.838  -1.675  0.00  0.00     0.028 H 
ATOM     54  H24 LEU d   1     -21.262   4.354  -2.125  0.00  0.00     0.028 H 
ATOM     55  H25 LEU d   1     -20.171   3.175  -1.321  0.00  0.00     0.028 H 
ENDBRANCH  50  52
BRANCH  50  56
ATOM     56  CD2 LEU d   1     -21.346   6.157  -0.074  0.00  0.00    -0.073 C 
ATOM     57  H26 LEU d   1     -21.705   6.472   0.917  0.00  0.00     0.028 H 
ATOM     58  H27 LEU d   1     -22.145   6.302  -0.816  0.00  0.00     0.028 H 
ATOM     59  H28 LEU d   1     -20.470   6.760  -0.355  0.00  0.00     0.028 H 
ENDBRANCH  50  56
ENDBRANCH  47  50
ENDBRANCH   7  47
ENDBRANCH   4   7
ENDBRANCH   1   3
BRANCH   1  60
ATOM     60  C   ASP d   1     -24.572   1.275   3.616  0.00  0.00     0.243 C 
ATOM     61  O   ASP d   1     -24.433   2.493   3.645  0.00  0.00    -0.271 OA
ATOM     62  N   PRO d   1     -25.664   0.679   4.107  0.00  0.00    -0.337 N 
ATOM     63  CA  PRO d   1     -26.752   1.453   4.712  0.00  0.00     0.091 C 
ATOM     64  CD  PRO d   1     -25.954  -0.764   4.174  0.00  0.00    -0.001 C 
ATOM     65  CB  PRO d   1     -27.553   0.380   5.457  0.00  0.00    -0.036 C 
ATOM     66  H33 PRO d   1     -27.371   1.880   3.909  0.00  0.00     0.087 H 
ATOM     67  CG  PRO d   1     -27.431  -0.783   4.549  0.00  0.00    -0.048 C 
ATOM     68  H34 PRO d   1     -28.604   0.681   5.582  0.00  0.00     0.036 H 
ATOM     69  H35 PRO d   1     -27.113   0.165   6.442  0.00  0.00     0.036 H 
ATOM     70  H36 PRO d   1     -28.067  -0.660   3.660  0.00  0.00     0.035 H 
ATOM     71  H37 PRO d   1     -27.697  -1.718   5.064  0.00  0.00     0.035 H 
ATOM     72  H38 PRO d   1     -25.342  -1.258   4.943  0.00  0.00     0.064 H 
ATOM     73  H39 PRO d   1     -25.784  -1.250   3.202  0.00  0.00     0.064 H 
BRANCH  63  74
ATOM     74  C   PRO d   1     -26.334   2.620   5.617  0.00  0.00     0.241 C 
ATOM     75  O   PRO d   1     -26.820   3.732   5.442  0.00  0.00    -0.271 OA
ATOM     76  N   ALA d   1     -25.434   2.371   6.567  0.00  0.00    -0.346 N 
ATOM     77  H40 ALA d   1     -25.052   1.450   6.641  0.00  0.00     0.163 HD
BRANCH  76  78
ATOM     78  CA  ALA d   1     -24.985   3.401   7.507  0.00  0.00     0.086 C 
ATOM     79  H41 ALA d   1     -25.878   3.763   8.038  0.00  0.00     0.086 H 
BRANCH  78  80
ATOM     80  C   ALA d   1     -24.326   4.612   6.862  0.00  0.00     0.240 C 
ATOM     81  O   ALA d   1     -24.332   5.705   7.438  0.00  0.00    -0.271 OA
ATOM     82  N   PHE d   1     -23.760   4.422   5.674  0.00  0.00    -0.346 N 
ATOM     83  H45 PHE d   1     -23.799   3.514   5.258  0.00  0.00     0.163 HD
BRANCH  82  84
ATOM     84  CA  PHE d   1     -23.083   5.499   4.959  0.00  0.00     0.093 C 
ATOM     85  H46 PHE d   1     -22.751   6.238   5.703  0.00  0.00     0.088 H 
BRANCH  84  86
ATOM     86  C   PHE d   1     -23.977   6.216   3.958  0.00  0.00     0.241 C 
ATOM     87  O   PHE d   1     -24.530   5.598   3.053  0.00  0.00    -0.271 OA
ATOM     88  N   GLY d   1     -24.110   7.527   4.127  0.00  0.00    -0.349 N 
ATOM     89  H54 GLY d   1     -23.643   7.976   4.889  0.00  0.00     0.163 HD
BRANCH  88  90
ATOM     90  CA  GLY d   1     -24.924   8.318   3.221  0.00  0.00     0.075 C 
ATOM     91  H55 GLY d   1     -24.505   8.210   2.210  0.00  0.00     0.080 H 
ATOM     92  H56 GLY d   1     -24.854   9.370   3.536  0.00  0.00     0.080 H 
BRANCH  90  93
ATOM     93  C   GLY d   1     -26.394   7.951   3.155  0.00  0.00     0.191 C 
ATOM     94  O   GLY d   1     -26.771   6.797   3.353  0.00  0.00    -0.647 OA
ATOM     95  O1  GLY d   1     -27.244   8.844   2.893  0.00  0.00    -0.647 OA
ENDBRANCH  90  93
ENDBRANCH  88  90
ENDBRANCH  84  86
BRANCH  84  96
ATOM     96  CB  PHE d   1     -21.848   4.946   4.238  0.00  0.00    -0.014 C 
ATOM     97  H47 PHE d   1     -21.433   5.741   3.601  0.00  0.00     0.043 H 
ATOM     98  H48 PHE d   1     -22.162   4.099   3.610  0.00  0.00     0.043 H 
BRANCH  96  99
ATOM     99  CG  PHE d   1     -20.772   4.473   5.167  0.00  0.00    -0.056 A 
ATOM    100  CD1 PHE d   1     -20.091   3.288   4.917  0.00  0.00    -0.077 A 
ATOM    101  CE1 PHE d   1     -19.114   2.838   5.798  0.00  0.00    -0.082 A 
ATOM    102  H49 PHE d   1     -20.323   2.711   4.029  0.00  0.00     0.084 H 
ATOM    103  CZ  PHE d   1     -18.814   3.579   6.941  0.00  0.00    -0.083 A 
ATOM    104  H51 PHE d   1     -18.586   1.913   5.597  0.00  0.00     0.083 H 
ATOM    105  CE2 PHE d   1     -19.483   4.757   7.194  0.00  0.00    -0.082 A 
ATOM    106  H53 PHE d   1     -18.055   3.228   7.630  0.00  0.00     0.083 H 
ATOM    107  CD2 PHE d   1     -20.454   5.201   6.314  0.00  0.00    -0.077 A 
ATOM    108  H52 PHE d   1     -19.249   5.335   8.081  0.00  0.00     0.083 H 
ATOM    109  H50 PHE d   1     -20.976   6.129   6.519  0.00  0.00     0.084 H 
ENDBRANCH  96  99
ENDBRANCH  84  96
ENDBRANCH  82  84
ENDBRANCH  78  80
BRANCH  78 110
ATOM    110  CB  ALA d   1     -24.034   2.792   8.539  0.00  0.00    -0.049 C 
ATOM    111  H42 ALA d   1     -23.703   3.574   9.239  0.00  0.00     0.030 H 
ATOM    112  H43 ALA d   1     -23.160   2.366   8.025  0.00  0.00     0.030 H 
ATOM    113  H44 ALA d   1     -24.555   1.999   9.095  0.00  0.00     0.030 H 
ENDBRANCH  78 110
ENDBRANCH  76  78
ENDBRANCH  63  74
ENDBRANCH   1  60
BRANCH   1 114
ATOM    114  CB  ASP d   1     -22.661  -0.290   4.087  0.00  0.00     0.043 C 
ATOM    115  H31 ASP d   1     -23.326  -0.879   4.736  0.00  0.00     0.052 H 
ATOM    116  H32 ASP d   1     -22.164   0.490   4.682  0.00  0.00     0.052 H 
BRANCH 114 117
ATOM    117  CG  ASP d   1     -21.606  -1.208   3.511  0.00  0.00     0.175 C 
ATOM    118  OD1 ASP d   1     -21.660  -1.460   2.292  0.00  0.00    -0.648 OA
ATOM    119  OD2 ASP d   1     -20.734  -1.681   4.269  0.00  0.00    -0.648 OA
ENDBRANCH 114 117
ENDBRANCH   1 114
TORSDOF 29
