REMARK  7 active torsions:
REMARK  status: ('A' for Active; 'I' for Inactive)
REMARK    1  A    between atoms: B1_1  and  OB1_2 
REMARK    2  A    between atoms: B1_1  and  OB2_3 
REMARK    3  A    between atoms: B1_1  and  CP1_4 
REMARK    4  A    between atoms: CP4_7  and  CB1_10 
REMARK    5  A    between atoms: CB4_13  and  B2_16 
REMARK    6  A    between atoms: B2_16  and  OH1_17 
REMARK    7  A    between atoms: B2_16  and  OH2_18 
ROOT
ATOM      1  CP1 BDB d   1      25.793   5.776  15.166  0.00  0.00    -0.032 A 
ATOM      2  CP2 BDB d   1      25.489   5.045  14.044  0.00  0.00    -0.081 A 
ATOM      3  CP3 BDB d   1      24.935   5.627  12.961  0.00  0.00    -0.072 A 
ATOM      4  CP4 BDB d   1      24.651   7.019  12.965  0.00  0.00    -0.026 A 
ATOM      5  CP5 BDB d   1      25.001   7.777  14.128  0.00  0.00    -0.072 A 
ATOM      6  CP6 BDB d   1      25.562   7.143  15.203  0.00  0.00    -0.081 A 
ATOM      7  H3  BDB d   1      25.698   3.981  14.029  0.00  0.00     0.083 H 
ATOM      8  H4  BDB d   1      24.706   5.031  12.085  0.00  0.00     0.084 H 
ATOM      9  H5  BDB d   1      24.823   8.846  14.157  0.00  0.00     0.084 H 
ATOM     10  H6  BDB d   1      25.827   7.712  16.087  0.00  0.00     0.083 H 
ENDROOT
BRANCH   4  11
ATOM     11  CB1 BDB d   1      23.935   7.619  11.803  0.00  0.00    -0.026 A 
ATOM     12  CB2 BDB d   1      24.226   7.223  10.512  0.00  0.00    -0.072 A 
ATOM     13  CB3 BDB d   1      23.517   7.705   9.455  0.00  0.00    -0.081 A 
ATOM     14  H7  BDB d   1      25.031   6.518  10.338  0.00  0.00     0.084 H 
ATOM     15  CB4 BDB d   1      22.461   8.629   9.673  0.00  0.00    -0.032 A 
ATOM     16  H8  BDB d   1      23.758   7.384   8.448  0.00  0.00     0.083 H 
ATOM     17  CB5 BDB d   1      22.185   9.044  10.995  0.00  0.00    -0.081 A 
ATOM     18  CB6 BDB d   1      22.918   8.538  12.024  0.00  0.00    -0.072 A 
ATOM     19  H9  BDB d   1      21.395   9.761  11.188  0.00  0.00     0.083 H 
ATOM     20  H10 BDB d   1      22.703   8.859  13.037  0.00  0.00     0.084 H 
BRANCH  15  21
ATOM     21  B2  BDB d   1      21.648   9.132   8.542  0.00  0.00     0.529 B 
BRANCH  21  22
ATOM     22  OH1 BDB d   1      22.071  10.195   7.638  0.00  0.00    -0.433 OA
ATOM     23  H11 BDB d   1      22.099   9.861   6.749  0.00  0.00     0.185 HD
ENDBRANCH  21  22
BRANCH  21  24
ATOM     24  OH2 BDB d   1      20.313   8.622   8.197  0.00  0.00    -0.433 OA
ATOM     25  H12 BDB d   1      20.072   7.933   8.805  0.00  0.00     0.185 HD
ENDBRANCH  21  24
ENDBRANCH  15  21
ENDBRANCH   4  11
BRANCH   1  26
ATOM     26  B1  BDB d   1      26.297   5.009  16.401  0.00  0.00     0.529 B 
BRANCH  26  27
ATOM     27  OB1 BDB d   1      25.308   3.933  16.716  0.00  0.00    -0.433 OA
ATOM     28  H1  BDB d   1      25.226   3.351  15.969  0.00  0.00     0.185 HD
ENDBRANCH  26  27
BRANCH  26  29
ATOM     29  OB2 BDB d   1      26.428   5.911  17.551  0.00  0.00    -0.433 OA
ATOM     30  H2  BDB d   1      25.584   6.304  17.742  0.00  0.00     0.185 HD
ENDBRANCH  26  29
ENDBRANCH   1  26
TORSDOF 7
