REMARK  5 active torsions:
REMARK  status: ('A' for Active; 'I' for Inactive)
REMARK    1  A    between atoms: C3_3  and  C12_11 
REMARK    2  A    between atoms: C12_11  and  N17_12 
REMARK    3  A    between atoms: C23_16  and  S30_19 
REMARK    4  A    between atoms: S30_19  and  N33_22 
REMARK    5  A    between atoms: N33_22  and  C35_23 
ROOT
ATOM      1  N17 LS1 d   1     -10.229  49.451  37.961  0.00  0.00    -0.365 N 
ATOM      2  C20 LS1 d   1     -10.248  48.425  37.084  0.00  0.00     0.032 A 
ATOM      3  C21 LS1 d   1      -9.160  47.397  36.939  0.00  0.00    -0.056 A 
ATOM      4  C22 LS1 d   1      -9.292  46.332  35.969  0.00  0.00    -0.058 A 
ATOM      5  C23 LS1 d   1     -10.496  46.257  35.134  0.00  0.00     0.079 A 
ATOM      6  C24 LS1 d   1     -11.572  47.277  35.240  0.00  0.00    -0.058 A 
ATOM      7  C25 LS1 d   1     -11.448  48.362  36.222  0.00  0.00    -0.056 A 
ATOM      8  H7  LS1 d   1     -10.776  50.289  37.719  0.00  0.00     0.165 HD
ATOM      9  H8  LS1 d   1      -8.275  47.454  37.563  0.00  0.00     0.087 H 
ATOM     10  H9  LS1 d   1      -8.506  45.594  35.860  0.00  0.00     0.086 H 
ATOM     11  H10 LS1 d   1     -12.443  47.220  34.597  0.00  0.00     0.086 H 
ATOM     12  H11 LS1 d   1     -12.228  49.109  36.314  0.00  0.00     0.087 H 
ENDROOT
BRANCH   1  13
ATOM     13  C12 LS1 d   1      -9.492  49.472  39.234  0.00  0.00    -0.006 C 
ATOM     14  H6  LS1 d   1      -9.046  48.543  39.585  0.00  0.00     0.112 H 
BRANCH  13  15
ATOM     15  C3  LS1 d   1      -9.339  50.569  39.984  0.00  0.00     0.060 A 
ATOM     16  C2  LS1 d   1      -9.969  51.910  39.744  0.00  0.00     0.258 A 
ATOM     17  N1  LS1 d   1      -9.533  52.773  40.696  0.00  0.00    -0.322 N 
ATOM     18  O11 LS1 d   1     -10.711  52.155  38.783  0.00  0.00    -0.267 OA
ATOM     19  C8  LS1 d   1      -8.635  52.142  41.526  0.00  0.00     0.046 A 
ATOM     20  H1  LS1 d   1      -9.822  53.727  40.782  0.00  0.00     0.169 HD
ATOM     21  C9  LS1 d   1      -8.488  50.753  41.126  0.00  0.00     0.008 A 
ATOM     22  C7  LS1 d   1      -7.864  52.669  42.668  0.00  0.00    -0.056 A 
ATOM     23  C4  LS1 d   1      -7.573  49.818  41.853  0.00  0.00    -0.070 A 
ATOM     24  C5  LS1 d   1      -6.805  50.338  43.018  0.00  0.00    -0.082 A 
ATOM     25  H2  LS1 d   1      -7.472  48.786  41.539  0.00  0.00     0.084 H 
ATOM     26  C6  LS1 d   1      -6.972  51.751  43.438  0.00  0.00    -0.081 A 
ATOM     27  H3  LS1 d   1      -6.127  49.687  43.557  0.00  0.00     0.083 H 
ATOM     28  H4  LS1 d   1      -6.443  52.120  44.309  0.00  0.00     0.083 H 
ATOM     29  H5  LS1 d   1      -7.944  53.714  42.946  0.00  0.00     0.086 H 
ENDBRANCH  13  15
ENDBRANCH   1  13
BRANCH   5  30
ATOM     30  S30 LS1 d   1     -10.497  45.102  33.813  0.00  0.00     0.258 S 
ATOM     31  O32 LS1 d   1     -11.837  44.979  33.322  0.00  0.00    -0.201 OA
ATOM     32  O31 LS1 d   1      -9.493  45.515  32.890  0.00  0.00    -0.201 OA
BRANCH  30  33
ATOM     33  N33 LS1 d   1     -10.144  43.598  34.393  0.00  0.00    -0.320 N 
ATOM     34  H12 LS1 d   1     -10.854  42.907  34.258  0.00  0.00     0.171 HD
BRANCH  33  35
ATOM     35  C35 LS1 d   1      -8.943  43.136  35.074  0.00  0.00    -0.011 C 
ATOM     36  H13 LS1 d   1      -9.049  42.069  35.321  0.00  0.00     0.057 H 
ATOM     37  H14 LS1 d   1      -8.800  43.714  35.999  0.00  0.00     0.057 H 
ATOM     38  H15 LS1 d   1      -8.072  43.275  34.416  0.00  0.00     0.057 H 
ENDBRANCH  33  35
ENDBRANCH  30  33
ENDBRANCH   5  30
TORSDOF 5
