REMARK  6 active torsions:
REMARK  status: ('A' for Active; 'I' for Inactive)
REMARK    1  A    between atoms: C3_3  and  N12_11 
REMARK    2  A    between atoms: N12_11  and  N19_15 
REMARK    3  A    between atoms: C24_19  and  C29_22 
REMARK    4  A    between atoms: C29_22  and  S34_23 
REMARK    5  A    between atoms: S34_23  and  N37_26 
REMARK    6  A    between atoms: N37_26  and  C39_27 
ROOT
ATOM      1  N19 LS2 d   1      26.190  12.220  10.624  0.00  0.00    -0.278 N 
ATOM      2  C21 LS2 d   1      25.942  11.117   9.867  0.00  0.00     0.050 C 
ATOM      3  C22 LS2 d   1      24.670  11.085   9.106  0.00  0.00    -0.055 C 
ATOM      4  C23 LS2 d   1      24.274   9.851   8.395  0.00  0.00    -0.074 C 
ATOM      5  C24 LS2 d   1      25.170   8.665   8.412  0.00  0.00    -0.043 C 
ATOM      6  C25 LS2 d   1      26.427   8.691   9.190  0.00  0.00    -0.074 C 
ATOM      7  C26 LS2 d   1      26.864   9.929   9.823  0.00  0.00    -0.055 C 
ATOM      8  H5  LS2 d   1      26.038  13.140  10.186  0.00  0.00     0.189 HD
ATOM      9  H6  LS2 d   1      24.034  11.962   9.071  0.00  0.00     0.087 H 
ATOM     10  H7  LS2 d   1      23.331   9.811   7.862  0.00  0.00     0.084 H 
ATOM     11  H8  LS2 d   1      27.023   7.791   9.290  0.00  0.00     0.084 H 
ATOM     12  H9  LS2 d   1      27.853   9.994  10.262  0.00  0.00     0.087 H 
ENDROOT
BRANCH   1  13
ATOM     13  N12 LS2 d   1      26.588  12.205  11.811  0.00  0.00    -0.168 NA
BRANCH  13  14
ATOM     14  C3  LS2 d   1      26.791  13.385  12.628  0.00  0.00     0.158 A 
ATOM     15  C2  LS2 d   1      26.096  14.694  12.460  0.00  0.00     0.277 A 
ATOM     16  N1  LS2 d   1      26.550  15.569  13.408  0.00  0.00    -0.321 N 
ATOM     17  O11 LS2 d   1      25.261  14.873  11.572  0.00  0.00    -0.266 OA
ATOM     18  C8  LS2 d   1      27.445  14.938  14.228  0.00  0.00     0.049 A 
ATOM     19  H1  LS2 d   1      26.270  16.526  13.489  0.00  0.00     0.169 HD
ATOM     20  C9  LS2 d   1      27.655  13.573  13.764  0.00  0.00     0.046 A 
ATOM     21  C7  LS2 d   1      28.173  15.435  15.419  0.00  0.00    -0.054 A 
ATOM     22  C4  LS2 d   1      28.582  12.657  14.433  0.00  0.00     0.050 A 
ATOM     23  S13 LS2 d   1      29.034  11.061  14.064  0.00  0.00    -0.080 SA
ATOM     24  C5  LS2 d   1      29.293  13.143  15.676  0.00  0.00     0.075 A 
ATOM     25  C14 LS2 d   1      30.034  10.952  15.446  0.00  0.00     0.041 A 
ATOM     26  N15 LS2 d   1      30.064  12.093  16.186  0.00  0.00    -0.253 NA
ATOM     27  H4  LS2 d   1      30.593  10.055  15.709  0.00  0.00     0.126 H 
ATOM     28  C6  LS2 d   1      29.087  14.513  16.156  0.00  0.00    -0.052 A 
ATOM     29  H2  LS2 d   1      29.599  14.857  17.047  0.00  0.00     0.087 H 
ATOM     30  H3  LS2 d   1      28.043  16.458  15.752  0.00  0.00     0.087 H 
ENDBRANCH  13  14
ENDBRANCH   1  13
BRANCH   5  31
ATOM     31  C29 LS2 d   1      24.891   7.467   7.550  0.00  0.00     0.070 C 
ATOM     32  H10 LS2 d   1      23.877   7.581   7.138  0.00  0.00     0.066 H 
ATOM     33  H11 LS2 d   1      24.927   6.576   8.194  0.00  0.00     0.066 H 
BRANCH  31  34
ATOM     34  S34 LS2 d   1      26.010   7.189   6.174  0.00  0.00     0.230 S 
ATOM     35  O36 LS2 d   1      25.488   6.138   5.339  0.00  0.00    -0.206 OA
ATOM     36  O35 LS2 d   1      26.331   8.456   5.564  0.00  0.00    -0.206 OA
BRANCH  34  37
ATOM     37  N37 LS2 d   1      27.428   6.577   6.750  0.00  0.00    -0.324 N 
ATOM     38  H12 LS2 d   1      28.280   7.054   6.532  0.00  0.00     0.171 HD
BRANCH  37  39
ATOM     39  C39 LS2 d   1      27.491   5.373   7.561  0.00  0.00    -0.011 C 
ATOM     40  H13 LS2 d   1      28.538   5.163   7.825  0.00  0.00     0.057 H 
ATOM     41  H14 LS2 d   1      27.079   4.526   6.993  0.00  0.00     0.057 H 
ATOM     42  H15 LS2 d   1      26.904   5.518   8.479  0.00  0.00     0.057 H 
ENDBRANCH  37  39
ENDBRANCH  34  37
ENDBRANCH  31  34
ENDBRANCH   5  31
TORSDOF 6
