REMARK  3 active torsions:
REMARK  status: ('A' for Active; 'I' for Inactive)
REMARK    1  A    between atoms: C11_7  and  C12_8 
REMARK    2  A    between atoms: C20_16  and  N21_17 
REMARK    3  A    between atoms: N21_17  and  C22_18 
ROOT
ATOM      1  O5  LS3 d   1     -10.910  52.353  11.763  0.00  0.00    -0.267 OA
ATOM      2  C6  LS3 d   1     -10.187  51.869  12.620  0.00  0.00     0.258 C 
ATOM      3  N7  LS3 d   1      -9.642  52.527  13.699  0.00  0.00    -0.322 N 
ATOM      4  C8  LS3 d   1      -8.813  51.686  14.393  0.00  0.00     0.046 A 
ATOM      5  C9  LS3 d   1      -7.997  51.908  15.613  0.00  0.00    -0.055 A 
ATOM      6  C10 LS3 d   1      -7.134  50.793  16.109  0.00  0.00    -0.068 A 
ATOM      7  C11 LS3 d   1      -7.015  49.494  15.355  0.00  0.00     0.000 A 
ATOM      8  C17 LS3 d   1      -7.873  49.331  14.139  0.00  0.00    -0.057 A 
ATOM      9  C18 LS3 d   1      -8.792  50.406  13.706  0.00  0.00     0.009 A 
ATOM     10  C19 LS3 d   1      -9.753  50.438  12.623  0.00  0.00     0.060 C 
ATOM     11  C20 LS3 d   1     -10.173  49.412  11.846  0.00  0.00    -0.006 C 
ATOM     12  H1  LS3 d   1      -9.825  53.480  13.941  0.00  0.00     0.169 HD
ATOM     13  H2  LS3 d   1      -8.026  52.859  16.133  0.00  0.00     0.087 H 
ATOM     14  H3  LS3 d   1      -6.581  50.922  17.032  0.00  0.00     0.085 H 
ATOM     15  H6  LS3 d   1      -7.820  48.411  13.567  0.00  0.00     0.086 H 
ATOM     16  H7  LS3 d   1      -9.894  48.428  12.220  0.00  0.00     0.112 H 
ENDROOT
BRANCH  11  17
ATOM     17  N21 LS3 d   1     -10.942  49.382  10.582  0.00  0.00    -0.365 N 
ATOM     18  H8  LS3 d   1     -11.385  50.262  10.281  0.00  0.00     0.165 HD
BRANCH  17  19
ATOM     19  C22 LS3 d   1     -11.117  48.283   9.773  0.00  0.00     0.032 A 
ATOM     20  C32 LS3 d   1     -12.488  48.036   9.241  0.00  0.00    -0.057 A 
ATOM     21  C31 LS3 d   1     -12.762  46.882   8.351  0.00  0.00    -0.073 A 
ATOM     22  H15 LS3 d   1     -13.295  48.709   9.508  0.00  0.00     0.086 H 
ATOM     23  C30 LS3 d   1     -11.638  45.995   7.968  0.00  0.00    -0.037 A 
ATOM     24  H14 LS3 d   1     -13.765  46.691   7.987  0.00  0.00     0.084 H 
ATOM     25  C24 LS3 d   1     -10.297  46.197   8.533  0.00  0.00    -0.035 A 
ATOM     26  C29 LS3 d   1     -11.631  44.871   6.985  0.00  0.00     0.053 C 
ATOM     27  C23 LS3 d   1     -10.010  47.344   9.394  0.00  0.00    -0.050 A 
ATOM     28  C25 LS3 d   1      -9.336  45.163   8.091  0.00  0.00     0.053 C 
ATOM     29  H9  LS3 d   1      -9.003  47.515   9.756  0.00  0.00     0.087 H 
ATOM     30  S26 LS3 d   1      -9.921  44.450   6.562  0.00  0.00     0.152 S 
ATOM     31  H10 LS3 d   1      -9.258  44.379   8.858  0.00  0.00     0.063 H 
ATOM     32  H11 LS3 d   1      -8.348  45.620   7.932  0.00  0.00     0.063 H 
ATOM     33  O28 LS3 d   1      -9.457  45.308   5.509  0.00  0.00    -0.227 OA
ATOM     34  O27 LS3 d   1      -9.684  43.032   6.511  0.00  0.00    -0.227 OA
ATOM     35  H12 LS3 d   1     -12.126  43.994   7.427  0.00  0.00     0.063 H 
ATOM     36  H13 LS3 d   1     -12.169  45.176   6.075  0.00  0.00     0.063 H 
ENDBRANCH  17  19
ENDBRANCH  11  17
BRANCH   7  37
ATOM     37  C12 LS3 d   1      -6.139  48.427  15.820  0.00  0.00     0.104 C 
ATOM     38  C16 LS3 d   1      -5.464  47.414  15.061  0.00  0.00     0.037 C 
ATOM     39  N15 LS3 d   1      -4.876  46.575  15.941  0.00  0.00    -0.246 NA
ATOM     40  H5  LS3 d   1      -5.432  47.336  13.975  0.00  0.00     0.119 H 
ATOM     41  C14 LS3 d   1      -5.182  47.017  17.181  0.00  0.00     0.103 C 
ATOM     42  O13 LS3 d   1      -5.834  48.223  17.142  0.00  0.00    -0.302 OA
ATOM     43  H4  LS3 d   1      -4.941  46.482  18.098  0.00  0.00     0.155 H 
ENDBRANCH   7  37
TORSDOF 3
