REMARK  5 active torsions:
REMARK  status: ('A' for Active; 'I' for Inactive)
REMARK    1  A    between atoms: C14_10  and  C15_11 
REMARK    2  A    between atoms: C15_11  and  N16_12 
REMARK    3  A    between atoms: C20_16  and  S23_19 
REMARK    4  A    between atoms: S23_19  and  N26_22 
REMARK    5  A    between atoms: N26_22  and  C27_23 
ROOT
ATOM      1  N16 LS4 d   1     -10.311  49.457  10.882  0.00  0.00    -0.365 N 
ATOM      2  C17 LS4 d   1     -10.296  48.474   9.955  0.00  0.00     0.032 A 
ATOM      3  C18 LS4 d   1      -9.187  47.467   9.774  0.00  0.00    -0.056 A 
ATOM      4  C19 LS4 d   1      -9.296  46.441   8.754  0.00  0.00    -0.058 A 
ATOM      5  C20 LS4 d   1     -10.476  46.425   7.857  0.00  0.00     0.080 A 
ATOM      6  C21 LS4 d   1     -11.579  47.397   8.028  0.00  0.00    -0.058 A 
ATOM      7  C22 LS4 d   1     -11.485  48.426   9.079  0.00  0.00    -0.056 A 
ATOM      8  H7  LS4 d   1     -10.875  50.291  10.667  0.00  0.00     0.165 HD
ATOM      9  H8  LS4 d   1      -8.308  47.510  10.407  0.00  0.00     0.087 H 
ATOM     10  H9  LS4 d   1      -8.520  45.691   8.649  0.00  0.00     0.086 H 
ATOM     11  H10 LS4 d   1     -12.450  47.352   7.385  0.00  0.00     0.086 H 
ATOM     12  H11 LS4 d   1     -12.286  49.145   9.209  0.00  0.00     0.087 H 
ENDROOT
BRANCH   1  13
ATOM     13  C15 LS4 d   1      -9.592  49.449  12.180  0.00  0.00    -0.006 C 
ATOM     14  H6  LS4 d   1      -9.211  48.497  12.546  0.00  0.00     0.112 H 
BRANCH  13  15
ATOM     15  C14 LS4 d   1      -9.381  50.543  12.932  0.00  0.00     0.060 A 
ATOM     16  C6  LS4 d   1     -10.007  51.912  12.719  0.00  0.00     0.258 A 
ATOM     17  O5  LS4 d   1     -10.819  52.155  11.823  0.00  0.00    -0.267 OA
ATOM     18  N7  LS4 d   1      -9.501  52.781  13.629  0.00  0.00    -0.322 N 
ATOM     19  C8  LS4 d   1      -8.606  52.133  14.447  0.00  0.00     0.046 A 
ATOM     20  H1  LS4 d   1      -9.743  53.749  13.695  0.00  0.00     0.169 HD
ATOM     21  C13 LS4 d   1      -8.524  50.721  14.079  0.00  0.00     0.008 A 
ATOM     22  C9  LS4 d   1      -7.812  52.660  15.575  0.00  0.00    -0.056 A 
ATOM     23  C12 LS4 d   1      -7.676  49.761  14.849  0.00  0.00    -0.070 A 
ATOM     24  C11 LS4 d   1      -6.904  50.277  16.015  0.00  0.00    -0.082 A 
ATOM     25  H5  LS4 d   1      -7.624  48.716  14.567  0.00  0.00     0.084 H 
ATOM     26  C10 LS4 d   1      -6.968  51.723  16.370  0.00  0.00    -0.081 A 
ATOM     27  H4  LS4 d   1      -6.296  49.600  16.605  0.00  0.00     0.083 H 
ATOM     28  H3  LS4 d   1      -6.397  52.096  17.212  0.00  0.00     0.083 H 
ATOM     29  H2  LS4 d   1      -7.843  53.715  15.822  0.00  0.00     0.086 H 
ENDBRANCH  13  15
ENDBRANCH   1  13
BRANCH   5  30
ATOM     30  S23 LS4 d   1     -10.560  45.159   6.618  0.00  0.00     0.264 S 
ATOM     31  O25 LS4 d   1      -9.244  45.091   6.068  0.00  0.00    -0.200 OA
ATOM     32  O24 LS4 d   1     -11.648  45.394   5.712  0.00  0.00    -0.200 OA
BRANCH  30  33
ATOM     33  N26 LS4 d   1     -10.884  43.717   7.404  0.00  0.00    -0.258 N 
ATOM     34  H12 LS4 d   1     -10.172  43.015   7.417  0.00  0.00     0.181 HD
BRANCH  33  35
ATOM     35  C27 LS4 d   1     -12.188  43.420   8.091  0.00  0.00     0.179 A 
ATOM     36  N31 LS4 d   1     -13.430  43.856   7.722  0.00  0.00    -0.236 NA
ATOM     37  C30 LS4 d   1     -14.451  43.444   8.547  0.00  0.00     0.011 A 
ATOM     38  C29 LS4 d   1     -13.977  42.684   9.630  0.00  0.00    -0.025 A 
ATOM     39  H14 LS4 d   1     -15.501  43.679   8.381  0.00  0.00     0.115 H 
ATOM     40  S28 LS4 d   1     -12.305  42.442   9.476  0.00  0.00    -0.062 SA
ATOM     41  H13 LS4 d   1     -14.591  42.307  10.446  0.00  0.00     0.097 H 
ENDBRANCH  33  35
ENDBRANCH  30  33
ENDBRANCH   5  30
TORSDOF 5
