REMARK  5 active torsions:
REMARK  status: ('A' for Active; 'I' for Inactive)
REMARK    1  A    between atoms: C3_3  and  C12_11 
REMARK    2  A    between atoms: C12_11  and  N17_12 
REMARK    3  A    between atoms: N17_12  and  C20_13 
REMARK    4  A    between atoms: C23_16  and  S30_19 
REMARK    5  A    between atoms: S30_19  and  N33_22 
REMARK       I    between atoms: N33_22  and  C35_23 
REMARK       I    between atoms: C35_23  and  N36_24 
ROOT
ATOM      1  C20 LS5 d   1     -10.334  48.446  10.088  0.00  0.00     0.032 A 
ATOM      2  C21 LS5 d   1     -11.395  48.469   9.176  0.00  0.00    -0.056 A 
ATOM      3  C22 LS5 d   1     -11.509  47.479   8.194  0.00  0.00    -0.058 A 
ATOM      4  C23 LS5 d   1     -10.567  46.443   8.146  0.00  0.00     0.080 A 
ATOM      5  C24 LS5 d   1      -9.548  46.376   9.099  0.00  0.00    -0.058 A 
ATOM      6  C25 LS5 d   1      -9.423  47.375  10.059  0.00  0.00    -0.056 A 
ATOM      7  H8  LS5 d   1     -12.134  49.260   9.231  0.00  0.00     0.087 H 
ATOM      8  H9  LS5 d   1     -12.320  47.513   7.476  0.00  0.00     0.086 H 
ATOM      9  H10 LS5 d   1      -8.853  45.544   9.091  0.00  0.00     0.086 H 
ATOM     10  H11 LS5 d   1      -8.621  47.328  10.787  0.00  0.00     0.087 H 
ENDROOT
BRANCH   1  11
ATOM     11  N17 LS5 d   1     -10.249  49.485  10.950  0.00  0.00    -0.365 N 
ATOM     12  H7  LS5 d   1     -10.810  50.326  10.753  0.00  0.00     0.165 HD
BRANCH  11  13
ATOM     13  C12 LS5 d   1      -9.398  49.483  12.158  0.00  0.00    -0.006 C 
ATOM     14  H6  LS5 d   1      -8.842  48.588  12.434  0.00  0.00     0.112 H 
BRANCH  13  15
ATOM     15  C3  LS5 d   1      -9.312  50.591  12.916  0.00  0.00     0.060 A 
ATOM     16  C2  LS5 d   1     -10.019  51.865  12.686  0.00  0.00     0.258 A 
ATOM     17  N1  LS5 d   1      -9.570  52.764  13.593  0.00  0.00    -0.322 N 
ATOM     18  O11 LS5 d   1     -10.866  52.025  11.818  0.00  0.00    -0.267 OA
ATOM     19  C8  LS5 d   1      -8.682  52.155  14.454  0.00  0.00     0.046 A 
ATOM     20  H1  LS5 d   1      -9.842  53.726  13.633  0.00  0.00     0.169 HD
ATOM     21  C9  LS5 d   1      -8.515  50.840  14.096  0.00  0.00     0.008 A 
ATOM     22  C7  LS5 d   1      -7.997  52.663  15.572  0.00  0.00    -0.056 A 
ATOM     23  C4  LS5 d   1      -7.700  49.950  14.840  0.00  0.00    -0.070 A 
ATOM     24  C5  LS5 d   1      -7.059  50.443  16.005  0.00  0.00    -0.082 A 
ATOM     25  H2  LS5 d   1      -7.570  48.920  14.527  0.00  0.00     0.084 H 
ATOM     26  C6  LS5 d   1      -7.209  51.797  16.355  0.00  0.00    -0.081 A 
ATOM     27  H3  LS5 d   1      -6.459  49.782  16.620  0.00  0.00     0.083 H 
ATOM     28  H4  LS5 d   1      -6.712  52.179  17.239  0.00  0.00     0.083 H 
ATOM     29  H5  LS5 d   1      -8.075  53.713  15.829  0.00  0.00     0.086 H 
ENDBRANCH  13  15
ENDBRANCH  11  13
ENDBRANCH   1  11
BRANCH   4  30
ATOM     30  S30 LS5 d   1     -10.704  45.256   6.826  0.00  0.00     0.276 S 
ATOM     31  O32 LS5 d   1     -10.226  45.949   5.688  0.00  0.00    -0.200 OA
ATOM     32  O31 LS5 d   1     -10.200  43.953   7.176  0.00  0.00    -0.200 OA
BRANCH  30  33
ATOM     33  N33 LS5 d   1     -12.331  45.051   6.705  0.00  0.00    -0.113 N 
ATOM     34  C35 LS5 d   1     -13.029  44.314   7.664  0.00  0.00     0.679 C 
ATOM     35  N37 LS5 d   1     -14.334  44.547   7.866  0.00  0.00    -0.234 N 
ATOM     36  N36 LS5 d   1     -12.457  43.353   8.419  0.00  0.00    -0.234 N 
ATOM     37  H15 LS5 d   1     -14.819  45.270   7.316  0.00  0.00     0.174 HD
ATOM     38  H16 LS5 d   1     -14.851  44.003   8.571  0.00  0.00     0.174 HD
ATOM     39  H13 LS5 d   1     -13.020  42.840   9.112  0.00  0.00     0.174 HD
ATOM     40  H14 LS5 d   1     -11.458  43.133   8.302  0.00  0.00     0.174 HD
ATOM     41  H12 LS5 d   1     -12.825  45.458   5.937  0.00  0.00     0.197 HD
ENDBRANCH  30  33
ENDBRANCH   4  30
TORSDOF 5
