REMARK  11 active torsions:
REMARK  status: ('A' for Active; 'I' for Inactive)
REMARK    1  A    between atoms: C3B_8  and  PG_1 
REMARK    2  A    between atoms: PB_5  and  C3B_8 
REMARK    3  A    between atoms: O3A_12  and  PB_5 
REMARK    4  A    between atoms: PA_9  and  O3A_12 
REMARK    5  A    between atoms: PA_9  and  O5_13 
REMARK    6  A    between atoms: O5_13  and  C5_14 
REMARK    7  A    between atoms: C5_14  and  C4_15 
REMARK    8  A    between atoms: C3_17  and  O3_18 
REMARK    9  A    between atoms: C2_19  and  O2_20 
REMARK   10  A    between atoms: C1_21  and  N9_22 
REMARK   11  A    between atoms: C6_26  and  N6_27 
ROOT
ATOM      1  C4  ACP d   1       6.038   2.865  23.582  0.00  0.00     0.089 C 
ATOM      2  O4  ACP d   1       6.196   3.995  24.460  0.00  0.00    -0.353 OA
ATOM      3  C3  ACP d   1       4.559   2.768  23.298  0.00  0.00     0.091 C 
ATOM      4  C2  ACP d   1       3.921   3.781  24.232  0.00  0.00     0.105 C 
ATOM      5  C1  ACP d   1       5.027   4.122  25.254  0.00  0.00     0.139 C 
ATOM      6  H5  ACP d   1       6.378   1.937  24.065  0.00  0.00     0.090 H 
ATOM      7  H6  ACP d   1       4.347   3.040  22.253  0.00  0.00     0.091 H 
ATOM      8  H8  ACP d   1       3.606   4.670  23.666  0.00  0.00     0.093 H 
ATOM      9  H10 ACP d   1       5.018   3.411  26.094  0.00  0.00     0.122 H 
ENDROOT
BRANCH   1  10
ATOM     10  C5  ACP d   1       6.895   3.142  22.385  0.00  0.00     0.058 C 
ATOM     11  H3  ACP d   1       6.772   2.335  21.648  0.00  0.00     0.079 H 
ATOM     12  H4  ACP d   1       6.600   4.100  21.932  0.00  0.00     0.079 H 
BRANCH  10  13
ATOM     13  O5  ACP d   1       8.272   3.209  22.806  0.00  0.00    -0.287 OA
BRANCH  13  14
ATOM     14  PA  ACP d   1       9.459   2.669  21.950  0.00  0.00     0.416 P 
ATOM     15  O1A ACP d   1      10.704   2.902  22.689  0.00  0.00    -0.624 OA
ATOM     16  O2A ACP d   1       9.313   3.158  20.572  0.00  0.00    -0.624 OA
BRANCH  14  17
ATOM     17  O3A ACP d   1       9.131   1.116  21.979  0.00  0.00    -0.203 OA
BRANCH  17  18
ATOM     18  PB  ACP d   1       9.739  -0.194  21.412  0.00  0.00     0.272 P 
ATOM     19  O1B ACP d   1       8.658  -0.862  20.620  0.00  0.00    -0.646 OA
ATOM     20  O2B ACP d   1      11.043   0.163  20.753  0.00  0.00    -0.646 OA
BRANCH  18  21
ATOM     21  C3B ACP d   1      10.132  -1.288  22.841  0.00  0.00     0.134 C 
ATOM     22  H1  ACP d   1       9.670  -2.267  22.648  0.00  0.00     0.073 H 
ATOM     23  H2  ACP d   1      11.225  -1.401  22.883  0.00  0.00     0.073 H 
BRANCH  21  24
ATOM     24  PG  ACP d   1       9.565  -0.721  24.499  0.00  0.00     0.271 P 
ATOM     25  O1G ACP d   1       9.558  -1.943  25.331  0.00  0.00    -0.639 OA
ATOM     26  O2G ACP d   1       8.219  -0.153  24.276  0.00  0.00    -0.639 OA
ATOM     27  O3G ACP d   1      10.568   0.277  24.922  0.00  0.00    -0.639 OA
ENDBRANCH  21  24
ENDBRANCH  18  21
ENDBRANCH  17  18
ENDBRANCH  14  17
ENDBRANCH  13  14
ENDBRANCH  10  13
ENDBRANCH   1  10
BRANCH   3  28
ATOM     28  O3  ACP d   1       4.112   1.418  23.526  0.00  0.00    -0.390 OA
ATOM     29  H7  ACP d   1       3.181   1.359  23.347  0.00  0.00     0.210 HD
ENDBRANCH   3  28
BRANCH   5  30
ATOM     30  N9  ACP d   1       4.960   5.518  25.780  0.00  0.00    -0.294 N 
ATOM     31  C8  ACP d   1       4.844   6.706  25.093  0.00  0.00     0.071 A 
ATOM     32  N7  ACP d   1       4.811   7.771  25.834  0.00  0.00    -0.236 NA
ATOM     33  H11 ACP d   1       4.784   6.749  24.006  0.00  0.00     0.144 H 
ATOM     34  C5  ACP d   1       4.912   7.254  27.112  0.00  0.00     0.149 A 
ATOM     35  C6  ACP d   1       4.937   7.866  28.401  0.00  0.00     0.155 A 
ATOM     36  C4  ACP d   1       5.006   5.880  27.098  0.00  0.00     0.167 A 
ATOM     37  N1  ACP d   1       5.048   7.074  29.501  0.00  0.00    -0.222 NA
ATOM     38  C2  ACP d   1       5.132   5.746  29.351  0.00  0.00     0.091 A 
ATOM     39  N3  ACP d   1       5.120   5.043  28.200  0.00  0.00    -0.222 NA
ATOM     40  H14 ACP d   1       5.220   5.167  30.263  0.00  0.00     0.146 H 
BRANCH  35  41
ATOM     41  N6  ACP d   1       4.853   9.181  28.534  0.00  0.00    -0.382 N 
ATOM     42  H12 ACP d   1       4.873   9.606  29.472  0.00  0.00     0.157 HD
ATOM     43  H13 ACP d   1       4.768   9.779  27.699  0.00  0.00     0.157 HD
ENDBRANCH  35  41
ENDBRANCH   5  30
BRANCH   4  44
ATOM     44  O2  ACP d   1       2.820   3.269  24.972  0.00  0.00    -0.388 OA
ATOM     45  H9  ACP d   1       2.145   2.976  24.371  0.00  0.00     0.210 HD
ENDBRANCH   4  44
TORSDOF 11
