REMARK  7 active torsions:
REMARK  status: ('A' for Active; 'I' for Inactive)
REMARK    1  A    between atoms: C3_4  and  C11_13 
REMARK    2  A    between atoms: C11_13  and  C13_15 
REMARK    3  A    between atoms: C13_15  and  C12_14 
REMARK    4  A    between atoms: C12_14  and  C14_16 
REMARK    5  A    between atoms: C14_16  and  C15_17 
REMARK    6  A    between atoms: C15_17  and  C16_18 
REMARK    7  A    between atoms: C16_18  and  C17_19 
ROOT
ATOM      1  C11 HQO d   1      27.627  17.607 -52.344  0.00  0.00    -0.024 C 
ATOM      2  H6  HQO d   1      28.231  17.079 -51.591  0.00  0.00     0.042 H 
ATOM      3  H7  HQO d   1      26.998  18.361 -51.847  0.00  0.00     0.042 H 
ENDROOT
BRANCH   1   4
ATOM      4  C3  HQO d   1      26.789  16.671 -52.997  0.00  0.00     0.047 A 
ATOM      5  C2  HQO d   1      25.934  17.106 -54.053  0.00  0.00    -0.009 A 
ATOM      6  C1  HQO d   1      25.095  16.183 -54.711  0.00  0.00     0.186 A 
ATOM      7  H1  HQO d   1      25.929  18.153 -54.352  0.00  0.00     0.092 H 
ATOM      8  O1  HQO d   1      24.346  16.586 -55.642  0.00  0.00    -0.287 OA
ATOM      9  C10 HQO d   1      25.106  14.814 -54.325  0.00  0.00     0.043 A 
ATOM     10  C5  HQO d   1      25.989  14.401 -53.244  0.00  0.00     0.080 A 
ATOM     11  C9  HQO d   1      24.276  13.854 -54.977  0.00  0.00    -0.067 A 
ATOM     12  N1  HQO d   1      26.800  15.339 -52.614  0.00  0.00    -0.192 N 
ATOM     13  C6  HQO d   1      26.007  13.016 -52.850  0.00  0.00    -0.054 A 
ATOM     14  O4  HQO d   1      27.544  14.984 -51.699  0.00  0.00    -0.080 OA
ATOM     15  C7  HQO d   1      25.175  12.074 -53.510  0.00  0.00    -0.081 A 
ATOM     16  H2  HQO d   1      26.658  12.692 -52.047  0.00  0.00     0.087 H 
ATOM     17  C8  HQO d   1      24.312  12.497 -54.573  0.00  0.00    -0.082 A 
ATOM     18  H3  HQO d   1      25.192  11.033 -53.209  0.00  0.00     0.083 H 
ATOM     19  H4  HQO d   1      23.681  11.771 -55.073  0.00  0.00     0.083 H 
ATOM     20  H5  HQO d   1      23.618  14.163 -55.781  0.00  0.00     0.085 H 
ENDBRANCH   1   4
BRANCH   1  21
ATOM     21  C13 HQO d   1      28.576  18.322 -53.333  0.00  0.00    -0.060 C 
ATOM     22  H10 HQO d   1      28.627  19.392 -53.081  0.00  0.00     0.033 H 
ATOM     23  H11 HQO d   1      28.192  18.204 -54.357  0.00  0.00     0.033 H 
BRANCH  21  24
ATOM     24  C12 HQO d   1      29.985  17.709 -53.242  0.00  0.00    -0.065 C 
ATOM     25  H8  HQO d   1      30.325  17.421 -54.248  0.00  0.00     0.033 H 
ATOM     26  H9  HQO d   1      29.956  16.819 -52.596  0.00  0.00     0.033 H 
BRANCH  24  27
ATOM     27  C14 HQO d   1      30.947  18.729 -52.656  0.00  0.00    -0.065 C 
ATOM     28  H12 HQO d   1      30.456  19.285 -51.844  0.00  0.00     0.033 H 
ATOM     29  H13 HQO d   1      31.271  19.431 -53.438  0.00  0.00     0.033 H 
BRANCH  27  30
ATOM     30  C15 HQO d   1      32.148  17.968 -52.111  0.00  0.00    -0.065 C 
ATOM     31  H14 HQO d   1      32.293  17.037 -52.679  0.00  0.00     0.033 H 
ATOM     32  H15 HQO d   1      31.991  17.729 -51.049  0.00  0.00     0.033 H 
BRANCH  30  33
ATOM     33  C16 HQO d   1      33.380  18.879 -52.270  0.00  0.00    -0.069 C 
ATOM     34  H16 HQO d   1      33.097  19.919 -52.048  0.00  0.00     0.032 H 
ATOM     35  H17 HQO d   1      33.753  18.813 -53.303  0.00  0.00     0.032 H 
BRANCH  33  36
ATOM     36  C17 HQO d   1      34.487  18.430 -51.295  0.00  0.00    -0.077 C 
ATOM     37  H18 HQO d   1      35.365  19.083 -51.411  0.00  0.00     0.027 H 
ATOM     38  H19 HQO d   1      34.771  17.391 -51.516  0.00  0.00     0.027 H 
ATOM     39  H20 HQO d   1      34.115  18.497 -50.262  0.00  0.00     0.027 H 
ENDBRANCH  33  36
ENDBRANCH  30  33
ENDBRANCH  27  30
ENDBRANCH  24  27
ENDBRANCH  21  24
ENDBRANCH   1  21
TORSDOF 7
