REMARK  6 active torsions:
REMARK  status: ('A' for Active; 'I' for Inactive)
REMARK    1  A    between atoms: C12_12  and  N1_1 
REMARK    2  A    between atoms: C8_8  and  N4_4 
REMARK    3  A    between atoms: C21_21  and  C10_10 
REMARK    4  A    between atoms: C11_11  and  O13_13 
REMARK    5  A    between atoms: C15_15  and  C21_21 
REMARK    6  A    between atoms: C21_21  and  C22_22 
ROOT
ATOM      1  C21 BRS d   1      29.461  17.026 -50.632  0.00  0.00    -0.004 C 
ATOM      2  H   BRS d   1      29.534  16.054 -50.121  0.00  0.00     0.054 H 
ENDROOT
BRANCH   1   3
ATOM      3  C10 BRS d   1      28.262  17.010 -51.558  0.00  0.00    -0.012 A 
ATOM      4  C9  BRS d   1      27.991  18.117 -52.395  0.00  0.00    -0.041 A 
ATOM      5  C8  BRS d   1      26.897  18.115 -53.259  0.00  0.00     0.106 A 
ATOM      6  H   BRS d   1      28.645  18.981 -52.364  0.00  0.00     0.088 H 
ATOM      7  C7  BRS d   1      26.069  16.997 -53.297  0.00  0.00    -0.016 A 
ATOM      8  C12 BRS d   1      26.315  15.877 -52.474  0.00  0.00     0.138 A 
ATOM      9  H   BRS d   1      25.220  16.986 -53.971  0.00  0.00     0.091 H 
ATOM     10  C11 BRS d   1      27.452  15.886 -51.578  0.00  0.00     0.105 A 
BRANCH   5  11
ATOM     11  N4  BRS d   1      26.616  19.330 -54.166  0.00  0.00    -0.116 N 
ATOM     12  O5  BRS d   1      27.336  20.343 -54.161  0.00  0.00    -0.532 OA
ATOM     13  O6  BRS d   1      25.662  19.336 -54.931  0.00  0.00    -0.532 OA
ENDBRANCH   5  11
BRANCH   8  14
ATOM     14  N1  BRS d   1      25.335  14.702 -52.631  0.00  0.00    -0.113 N 
ATOM     15  O2  BRS d   1      25.416  13.636 -51.996  0.00  0.00    -0.532 OA
ATOM     16  O3  BRS d   1      24.405  14.785 -53.436  0.00  0.00    -0.532 OA
ENDBRANCH   8  14
BRANCH  10  17
ATOM     17  O13 BRS d   1      27.767  14.818 -50.724  0.00  0.00    -0.358 OA
ATOM     18  H   BRS d   1      28.547  15.031 -50.226  0.00  0.00     0.217 HD
ENDBRANCH  10  17
ENDBRANCH   1   3
BRANCH   1  19
ATOM     19  C15 BRS d   1      30.794  17.253 -51.456  0.00  0.00    -0.050 A 
ATOM     20  C14 BRS d   1      31.163  16.318 -52.458  0.00  0.00    -0.075 A 
ATOM     21  C19 BRS d   1      32.356  16.448 -53.233  0.00  0.00    -0.061 A 
ATOM     22  H   BRS d   1      30.513  15.470 -52.643  0.00  0.00     0.084 H 
ATOM     23  C18 BRS d   1      33.236  17.508 -53.057  0.00  0.00     0.034 A 
ATOM     24  H   BRS d   1      32.581  15.697 -53.981  0.00  0.00     0.086 H 
ATOM     25  C17 BRS d   1      32.904  18.494 -52.054  0.00  0.00    -0.061 A 
ATOM     26 CL20 BRS d   1      34.726  17.566 -54.089  0.00  0.00    -0.084 Cl
ATOM     27  C16 BRS d   1      31.676  18.356 -51.257  0.00  0.00    -0.075 A 
ATOM     28  H   BRS d   1      33.563  19.339 -51.889  0.00  0.00     0.086 H 
ATOM     29  H   BRS d   1      31.438  19.103 -50.508  0.00  0.00     0.084 H 
ENDBRANCH   1  19
BRANCH   1  30
ATOM     30  C22 BRS d   1      29.231  18.105 -49.592  0.00  0.00    -0.065 C 
ATOM     31  H   BRS d   1      28.296  17.899 -49.051  0.00  0.00     0.028 H 
ATOM     32  H   BRS d   1      29.160  19.084 -50.089  0.00  0.00     0.028 H 
ATOM     33  H   BRS d   1      30.071  18.115 -48.882  0.00  0.00     0.028 H 
ENDBRANCH   1  30
TORSDOF 6
