REMARK  18 active torsions:
REMARK  status: ('A' for Active; 'I' for Inactive)
REMARK    1  A    between atoms: CA_2  and  N_1 
REMARK    2  A    between atoms: N_1  and  C1A_11 
REMARK    3  A    between atoms: CB_3  and  CA_2 
REMARK    4  A    between atoms: CA_2  and  C4A_40 
REMARK    5  A    between atoms: CG_4  and  CB_3 
REMARK    6  A    between atoms: OH_10  and  CZ_9 
REMARK    7  A    between atoms: C3A_38  and  OH_10 
REMARK    8  A    between atoms: C1A_11  and  C1B_13 
REMARK    9  A    between atoms: C1F_12  and  C1G_24 
REMARK   10  A    between atoms: C1G_24  and  C1H_14 
REMARK   11  A    between atoms: C1K_17  and  C1N_18 
REMARK   12  A    between atoms: C3G_27  and  C3I_32 
REMARK   13  A    between atoms: C3B_39  and  C3C_29 
REMARK   14  A    between atoms: C3D_30  and  C3E_31 
REMARK   15  A    between atoms: C3A_38  and  C3B_39 
REMARK   16  A    between atoms: C4A_40  and  N4B_41 
REMARK       I    between atoms: N4B_41  and  C4C_42 
REMARK   17  A    between atoms: C4C_42  and  C4D_44 
REMARK   18  A    between atoms: C4D_44  and  C4E_45 
ROOT
ATOM      1  CA  471 d   1      72.748  29.063  27.719  0.00  0.00     0.028 C 
ATOM      2  H2  471 d   1      72.186  28.119  27.675  0.00  0.00     0.075 H 
ENDROOT
BRANCH   1   3
ATOM      3  N   471 d   1      73.301  29.338  26.395  0.00  0.00    -0.387 N 
ATOM      4  H1  471 d   1      74.039  30.056  26.376  0.00  0.00     0.159 HD
BRANCH   3   5
ATOM      5  C1A 471 d   1      72.991  28.786  25.155  0.00  0.00     0.005 C 
ATOM      6  C1F 471 d   1      73.652  29.194  24.074  0.00  0.00    -0.013 C 
ATOM      7  H9  471 d   1      73.351  28.712  23.145  0.00  0.00     0.092 H 
BRANCH   6   8
ATOM      8  C1G 471 d   1      74.745  30.212  23.930  0.00  0.00     0.183 C 
ATOM      9  O1G 471 d   1      75.121  30.806  24.939  0.00  0.00    -0.288 OA
BRANCH   8  10
ATOM     10  C1H 471 d   1      75.375  30.541  22.722  0.00  0.00     0.014 A 
ATOM     11  C1I 471 d   1      74.737  30.714  21.555  0.00  0.00    -0.068 A 
ATOM     12  C1J 471 d   1      75.415  31.031  20.442  0.00  0.00    -0.067 A 
ATOM     13  H13 471 d   1      73.660  30.596  21.511  0.00  0.00     0.085 H 
ATOM     14  C1K 471 d   1      76.748  31.186  20.449  0.00  0.00     0.048 A 
ATOM     15  H14 471 d   1      74.872  31.165  19.513  0.00  0.00     0.084 H 
ATOM     16  C1L 471 d   1      77.383  31.010  21.617  0.00  0.00    -0.067 A 
ATOM     17  C1M 471 d   1      76.707  30.693  22.732  0.00  0.00    -0.068 A 
ATOM     18  H15 471 d   1      78.460  31.126  21.661  0.00  0.00     0.084 H 
ATOM     19  H16 471 d   1      77.249  30.557  23.661  0.00  0.00     0.085 H 
BRANCH  14  20
ATOM     20  C1N 471 d   1      77.539  31.545  19.212  0.00  0.00     0.417 C 
ATOM     21  F1Q 471 d   1      76.787  31.567  18.075  0.00  0.00    -0.166 F 
ATOM     22  F1P 471 d   1      78.085  32.787  19.341  0.00  0.00    -0.166 F 
ATOM     23  F1O 471 d   1      78.564  30.676  18.985  0.00  0.00    -0.166 F 
ENDBRANCH  14  20
ENDBRANCH   8  10
ENDBRANCH   6   8
BRANCH   5  24
ATOM     24  C1B 471 d   1      71.944  27.731  24.948  0.00  0.00    -0.038 C 
ATOM     25  H10 471 d   1      71.895  27.467  23.881  0.00  0.00     0.035 H 
ATOM     26  H11 471 d   1      70.967  28.115  25.276  0.00  0.00     0.035 H 
ATOM     27  H12 471 d   1      72.203  26.838  25.535  0.00  0.00     0.035 H 
ENDBRANCH   5  24
ENDBRANCH   3   5
ENDBRANCH   1   3
BRANCH   1  28
ATOM     28  CB  471 d   1      73.859  28.918  28.758  0.00  0.00    -0.021 C 
ATOM     29  H3  471 d   1      73.452  28.304  29.575  0.00  0.00     0.043 H 
ATOM     30  H4  471 d   1      74.079  29.929  29.133  0.00  0.00     0.043 H 
BRANCH  28  31
ATOM     31  CG  471 d   1      75.181  28.301  28.364  0.00  0.00    -0.056 A 
ATOM     32  CD1 471 d   1      76.116  29.033  27.740  0.00  0.00    -0.074 A 
ATOM     33  CE1 471 d   1      77.291  28.499  27.375  0.00  0.00    -0.050 A 
ATOM     34  H5  471 d   1      75.918  30.077  27.526  0.00  0.00     0.084 H 
ATOM     35  CZ  471 d   1      77.564  27.210  27.625  0.00  0.00     0.068 A 
ATOM     36  H7  471 d   1      78.028  29.116  26.873  0.00  0.00     0.087 H 
ATOM     37  CE2 471 d   1      76.631  26.479  28.255  0.00  0.00    -0.050 A 
ATOM     38  CD2 471 d   1      75.456  27.013  28.619  0.00  0.00    -0.074 A 
ATOM     39  H8  471 d   1      76.831  25.436  28.474  0.00  0.00     0.087 H 
ATOM     40  H6  471 d   1      74.721  26.398  29.125  0.00  0.00     0.084 H 
BRANCH  35  41
ATOM     41  OH  471 d   1      78.766  26.674  27.241  0.00  0.00    -0.351 OA
BRANCH  41  42
ATOM     42  C3A 471 d   1      78.784  26.010  25.979  0.00  0.00     0.031 C 
ATOM     43  H25 471 d   1      78.255  26.640  25.249  0.00  0.00     0.075 H 
ATOM     44  H26 471 d   1      78.257  25.050  26.085  0.00  0.00     0.075 H 
BRANCH  42  45
ATOM     45  C3B 471 d   1      80.187  25.731  25.445  0.00  0.00    -0.002 C 
ATOM     46  H27 471 d   1      80.809  26.613  25.657  0.00  0.00     0.045 H 
ATOM     47  H28 471 d   1      80.587  24.861  25.987  0.00  0.00     0.045 H 
BRANCH  45  48
ATOM     48  C3C 471 d   1      80.286  25.440  23.966  0.00  0.00     0.068 A 
ATOM     49  N3H 471 d   1      80.249  24.164  23.441  0.00  0.00    -0.226 NA
ATOM     50  C3G 471 d   1      80.368  24.281  22.070  0.00  0.00     0.180 A 
ATOM     51  O3F 471 d   1      80.476  25.608  21.745  0.00  0.00    -0.294 OA
ATOM     52  C3D 471 d   1      80.428  26.332  22.907  0.00  0.00     0.076 A 
BRANCH  50  53
ATOM     53  C3I 471 d   1      80.382  23.300  21.156  0.00  0.00     0.017 A 
ATOM     54  C3N 471 d   1      80.279  22.001  21.477  0.00  0.00    -0.069 A 
ATOM     55  C3M 471 d   1      80.299  21.043  20.537  0.00  0.00    -0.082 A 
ATOM     56  H20 471 d   1      80.177  21.719  22.519  0.00  0.00     0.085 H 
ATOM     57  C3L 471 d   1      80.424  21.373  19.244  0.00  0.00    -0.083 A 
ATOM     58  H21 471 d   1      80.214  20.001  20.824  0.00  0.00     0.083 H 
ATOM     59  C3K 471 d   1      80.527  22.666  18.903  0.00  0.00    -0.082 A 
ATOM     60  H22 471 d   1      80.442  20.603  18.482  0.00  0.00     0.083 H 
ATOM     61  C3J 471 d   1      80.506  23.609  19.856  0.00  0.00    -0.069 A 
ATOM     62  H23 471 d   1      80.627  22.948  17.861  0.00  0.00     0.083 H 
ATOM     63  H24 471 d   1      80.592  24.651  19.568  0.00  0.00     0.085 H 
ENDBRANCH  50  53
BRANCH  52  64
ATOM     64  C3E 471 d   1      80.522  27.839  22.919  0.00  0.00    -0.029 C 
ATOM     65  H17 471 d   1      80.461  28.202  23.956  0.00  0.00     0.036 H 
ATOM     66  H18 471 d   1      79.693  28.263  22.333  0.00  0.00     0.036 H 
ATOM     67  H19 471 d   1      81.480  28.150  22.477  0.00  0.00     0.036 H 
ENDBRANCH  52  64
ENDBRANCH  45  48
ENDBRANCH  42  45
ENDBRANCH  41  42
ENDBRANCH  35  41
ENDBRANCH  28  31
ENDBRANCH   1  28
BRANCH   1  68
ATOM     68  C4A 471 d   1      71.793  30.184  28.121  0.00  0.00     0.014 C 
ATOM     69  H29 471 d   1      72.063  31.089  27.557  0.00  0.00     0.067 H 
ATOM     70  H30 471 d   1      71.915  30.373  29.198  0.00  0.00     0.067 H 
BRANCH  68  71
ATOM     71  N4B 471 d   1      70.387  29.884  27.863  0.00  0.00    -0.359 N 
ATOM     72  C4C 471 d   1      69.647  30.498  26.957  0.00  0.00     0.217 C 
ATOM     73  O4C 471 d   1      70.064  31.396  26.227  0.00  0.00    -0.274 OA
ATOM     74  H31 471 d   1      69.956  29.166  28.409  0.00  0.00     0.162 HD
BRANCH  72  75
ATOM     75  C4D 471 d   1      68.201  30.044  26.841  0.00  0.00     0.006 C 
ATOM     76  H32 471 d   1      67.609  30.877  26.433  0.00  0.00     0.046 H 
ATOM     77  H33 471 d   1      67.836  29.793  27.848  0.00  0.00     0.046 H 
BRANCH  75  78
ATOM     78  C4E 471 d   1      67.999  28.827  25.941  0.00  0.00    -0.068 C 
ATOM     79  H34 471 d   1      66.931  28.566  25.912  0.00  0.00     0.028 H 
ATOM     80  H35 471 d   1      68.574  27.977  26.339  0.00  0.00     0.028 H 
ATOM     81  H36 471 d   1      68.347  29.061  24.924  0.00  0.00     0.028 H 
ENDBRANCH  75  78
ENDBRANCH  72  75
ENDBRANCH  68  71
ENDBRANCH   1  68
TORSDOF 18
