REMARK  23 active torsions:
REMARK  status: ('A' for Active; 'I' for Inactive)
REMARK    1  A    between atoms: N_1  and  CA_2 
REMARK    2  A    between atoms: CA_2  and  C_3 
REMARK    3  A    between atoms: CA_2  and  CB_5 
REMARK       I    between atoms: C_3  and  N_7 
REMARK    4  A    between atoms: CB_5  and  OG_6 
REMARK    5  A    between atoms: N_7  and  CA_8 
REMARK    6  A    between atoms: CA_8  and  C_9 
REMARK    7  A    between atoms: CA_8  and  CB_11 
REMARK       I    between atoms: C_9  and  N_17 
REMARK    8  A    between atoms: CB_11  and  CG_12 
REMARK    9  A    between atoms: CA_18  and  C_19 
REMARK       I    between atoms: C_19  and  N_24 
REMARK   10  A    between atoms: N_24  and  CA_25 
REMARK   11  A    between atoms: CA_25  and  C_26 
REMARK   12  A    between atoms: CA_25  and  CB_28 
REMARK       I    between atoms: C_26  and  N_33 
REMARK   13  A    between atoms: CB_28  and  CG_29 
REMARK   14  A    between atoms: CG_29  and  CD_30 
REMARK       I    between atoms: CD_30  and  NE2_32 
REMARK   15  A    between atoms: N_33  and  CA_34 
REMARK   16  A    between atoms: CA_34  and  C_35 
REMARK   17  A    between atoms: CA_34  and  CB_37 
REMARK       I    between atoms: C_35  and  N_44 
REMARK   18  A    between atoms: CB_37  and  CG_38 
REMARK   19  A    between atoms: N_44  and  CA_45 
REMARK   20  A    between atoms: CA_45  and  C_46 
REMARK   21  A    between atoms: CA_45  and  CB_48 
REMARK   22  A    between atoms: CB_48  and  CG_49 
REMARK   23  A    between atoms: CG_49  and  CD_50 
ROOT
ATOM      1  CA  GLN d   1      13.368   7.568  28.255  0.00  0.00     0.090 C 
ATOM      2  H23 GLN d   1      13.840   8.554  28.137  0.00  0.00     0.087 H 
ENDROOT
BRANCH   1   3
ATOM      3  N   GLN d   1      14.033   6.851  29.353  0.00  0.00    -0.346 N 
ATOM      4  C   PRO d   1      13.909   7.389  30.563  0.00  0.00     0.241 C 
ATOM      5  O   PRO d   1      13.160   8.351  30.729  0.00  0.00    -0.271 OA
ATOM      6  H22 GLN d   1      14.548   6.008  29.199  0.00  0.00     0.163 HD
BRANCH   4   7
ATOM      7  CA  PRO d   1      14.636   6.794  31.752  0.00  0.00     0.091 C 
ATOM      8  N   PRO d   1      14.730   5.341  31.674  0.00  0.00    -0.337 N 
ATOM      9  C   HIS d   1      13.627   4.608  31.529  0.00  0.00     0.243 C 
ATOM     10  CD  PRO d   1      16.128   4.880  31.704  0.00  0.00    -0.001 C 
ATOM     11  O   HIS d   1      12.506   5.118  31.412  0.00  0.00    -0.271 OA
ATOM     12  CG  PRO d   1      16.933   6.075  31.853  0.00  0.00    -0.048 C 
ATOM     13  H20 PRO d   1      16.381   4.362  30.767  0.00  0.00     0.064 H 
ATOM     14  H21 PRO d   1      16.290   4.201  32.554  0.00  0.00     0.064 H 
ATOM     15  CB  PRO d   1      16.097   7.257  31.737  0.00  0.00    -0.036 C 
ATOM     16  H18 PRO d   1      17.417   6.067  32.841  0.00  0.00     0.035 H 
ATOM     17  H19 PRO d   1      17.703   6.095  31.068  0.00  0.00     0.035 H 
ATOM     18  H16 PRO d   1      16.285   7.934  32.584  0.00  0.00     0.036 H 
ATOM     19  H17 PRO d   1      16.315   7.780  30.794  0.00  0.00     0.036 H 
ATOM     20  H15 PRO d   1      14.132   7.099  32.681  0.00  0.00     0.087 H 
BRANCH   9  21
ATOM     21  CA  HIS d   1      13.799   3.094  31.467  0.00  0.00     0.094 C 
ATOM     22  H9  HIS d   1      14.738   2.821  31.971  0.00  0.00     0.088 H 
BRANCH  21  23
ATOM     23  N   HIS d   1      12.665   2.431  32.106  0.00  0.00    -0.346 N 
ATOM     24  C   SER d   1      12.795   2.152  33.388  0.00  0.00     0.251 C 
ATOM     25  O   SER d   1      13.841   2.419  33.946  0.00  0.00    -0.271 OA
ATOM     26  H8  HIS d   1      11.835   2.201  31.598  0.00  0.00     0.163 HD
BRANCH  24  27
ATOM     27  CA  SER d   1      11.639   1.492  34.136  0.00  0.00     0.195 C 
ATOM     28  H4  SER d   1      10.695   1.791  33.656  0.00  0.00     0.102 H 
BRANCH  27  29
ATOM     29  N   SER d   1      11.748  -0.002  34.053  0.00  0.00    -0.064 N 
ATOM     30  H1  SER d   1      10.979  -0.423  34.551  0.00  0.00     0.275 HD
ATOM     31  H2  SER d   1      12.618  -0.299  34.466  0.00  0.00     0.275 HD
ATOM     32  H3  SER d   1      11.720  -0.288  33.087  0.00  0.00     0.275 HD
ENDBRANCH  27  29
BRANCH  27  33
ATOM     33  CB  SER d   1      11.619   1.993  35.586  0.00  0.00     0.051 C 
ATOM     34  H5  SER d   1      10.906   1.375  36.152  0.00  0.00     0.077 H 
ATOM     35  H6  SER d   1      11.277   3.038  35.583  0.00  0.00     0.077 H 
BRANCH  33  36
ATOM     36  OG  SER d   1      12.882   1.940  36.252  0.00  0.00    -0.398 OA
ATOM     37  H7  SER d   1      13.509   2.478  35.783  0.00  0.00     0.209 HD
ENDBRANCH  33  36
ENDBRANCH  27  33
ENDBRANCH  24  27
ENDBRANCH  21  23
BRANCH  21  38
ATOM     38  CB  HIS d   1      13.802   2.563  30.038  0.00  0.00     0.002 C 
ATOM     39  H10 HIS d   1      12.912   2.949  29.518  0.00  0.00     0.046 H 
ATOM     40  H11 HIS d   1      13.759   1.464  30.072  0.00  0.00     0.046 H 
BRANCH  38  41
ATOM     41  CG  HIS d   1      15.012   2.968  29.272  0.00  0.00     0.030 A 
ATOM     42  ND1 HIS d   1      15.142   4.243  28.761  0.00  0.00    -0.353 N 
ATOM     43  CE1 HIS d   1      16.324   4.325  28.171  0.00  0.00     0.063 A 
ATOM     44  H12 HIS d   1      14.443   4.997  28.827  0.00  0.00     0.166 HD
ATOM     45  NE2 HIS d   1      16.947   3.154  28.263  0.00  0.00    -0.254 NA
ATOM     46  H14 HIS d   1      16.724   5.214  27.686  0.00  0.00     0.143 H 
ATOM     47  CD2 HIS d   1      16.138   2.285  28.946  0.00  0.00     0.025 A 
ATOM     48  H13 HIS d   1      16.357   1.245  29.182  0.00  0.00     0.117 H 
ENDBRANCH  38  41
ENDBRANCH  21  38
ENDBRANCH   9  21
ENDBRANCH   4   7
ENDBRANCH   1   3
BRANCH   1  49
ATOM     49  C   GLN d   1      11.861   7.747  28.471  0.00  0.00     0.241 C 
ATOM     50  O   GLN d   1      11.248   8.704  27.982  0.00  0.00    -0.271 OA
ATOM     51  N   PHE d   1      11.261   6.870  29.263  0.00  0.00    -0.346 N 
ATOM     52  H30 PHE d   1      11.805   6.213  29.785  0.00  0.00     0.163 HD
BRANCH  51  53
ATOM     53  CA  PHE d   1       9.807   6.863  29.374  0.00  0.00     0.093 C 
ATOM     54  H31 PHE d   1       9.402   7.633  28.700  0.00  0.00     0.088 H 
BRANCH  53  55
ATOM     55  C   PHE d   1       9.291   7.103  30.781  0.00  0.00     0.241 C 
ATOM     56  O   PHE d   1       8.130   6.816  31.045  0.00  0.00    -0.271 OA
ATOM     57  N   GLU d   1      10.133   7.658  31.627  0.00  0.00    -0.348 N 
ATOM     58  H39 GLU d   1      11.014   7.996  31.296  0.00  0.00     0.163 HD
BRANCH  57  59
ATOM     59  CA  GLU d   1       9.796   7.787  33.047  0.00  0.00     0.063 C 
ATOM     60  H40 GLU d   1       9.253   6.885  33.367  0.00  0.00     0.083 H 
BRANCH  59  61
ATOM     61  C   GLU d   1       8.891   8.996  33.288  0.00  0.00     0.109 C 
ATOM     62  O   GLU d   1       8.786   9.814  32.374  0.00  0.00    -0.305 OA
ATOM     63  H41 GLU d   1       8.361   9.128  34.230  0.00  0.00     0.146 H 
ENDBRANCH  59  61
BRANCH  59  64
ATOM     64  CB  GLU d   1      11.093   7.878  33.835  0.00  0.00    -0.031 C 
ATOM     65  H42 GLU d   1      11.806   7.171  33.387  0.00  0.00     0.037 H 
ATOM     66  H43 GLU d   1      10.877   7.574  34.870  0.00  0.00     0.037 H 
BRANCH  64  67
ATOM     67  CG  GLU d   1      11.762   9.236  33.885  0.00  0.00     0.018 C 
ATOM     68  H44 GLU d   1      11.121   9.941  34.435  0.00  0.00     0.049 H 
ATOM     69  H45 GLU d   1      11.920   9.606  32.861  0.00  0.00     0.049 H 
BRANCH  67  70
ATOM     70  CD  GLU d   1      13.103   9.109  34.593  0.00  0.00     0.172 C 
ATOM     71  OE1 GLU d   1      13.925  10.050  34.468  0.00  0.00    -0.648 OA
ATOM     72  OE2 GLU d   1      13.335   8.038  35.233  0.00  0.00    -0.648 OA
ENDBRANCH  67  70
ENDBRANCH  64  67
ENDBRANCH  59  64
ENDBRANCH  57  59
ENDBRANCH  53  55
BRANCH  53  73
ATOM     73  CB  PHE d   1       9.274   5.498  28.993  0.00  0.00    -0.014 C 
ATOM     74  H32 PHE d   1       8.185   5.571  28.853  0.00  0.00     0.043 H 
ATOM     75  H33 PHE d   1       9.492   4.794  29.810  0.00  0.00     0.043 H 
BRANCH  73  76
ATOM     76  CG  PHE d   1       9.892   4.966  27.716  0.00  0.00    -0.056 A 
ATOM     77  CD1 PHE d   1       9.637   5.623  26.524  0.00  0.00    -0.077 A 
ATOM     78  CE1 PHE d   1      10.193   5.194  25.324  0.00  0.00    -0.082 A 
ATOM     79  H34 PHE d   1       8.989   6.492  26.526  0.00  0.00     0.084 H 
ATOM     80  CZ  PHE d   1      11.021   4.122  25.321  0.00  0.00    -0.083 A 
ATOM     81  H36 PHE d   1       9.966   5.713  24.399  0.00  0.00     0.083 H 
ATOM     82  CE2 PHE d   1      11.294   3.442  26.498  0.00  0.00    -0.082 A 
ATOM     83  H38 PHE d   1      11.473   3.794  24.392  0.00  0.00     0.083 H 
ATOM     84  CD2 PHE d   1      10.720   3.879  27.724  0.00  0.00    -0.077 A 
ATOM     85  H37 PHE d   1      11.946   2.576  26.484  0.00  0.00     0.083 H 
ATOM     86  H35 PHE d   1      10.936   3.358  28.650  0.00  0.00     0.084 H 
ENDBRANCH  73  76
ENDBRANCH  53  73
ENDBRANCH  51  53
ENDBRANCH   1  49
BRANCH   1  87
ATOM     87  CB  GLN d   1      13.516   6.747  26.966  0.00  0.00    -0.030 C 
ATOM     88  H24 GLN d   1      12.858   5.869  27.046  0.00  0.00     0.037 H 
ATOM     89  H25 GLN d   1      14.562   6.416  26.894  0.00  0.00     0.037 H 
BRANCH  87  90
ATOM     90  CG  GLN d   1      13.182   7.445  25.736  0.00  0.00     0.011 C 
ATOM     91  H26 GLN d   1      13.717   8.406  25.730  0.00  0.00     0.047 H 
ATOM     92  H27 GLN d   1      12.098   7.629  25.729  0.00  0.00     0.047 H 
BRANCH  90  93
ATOM     93  CD  GLN d   1      13.550   6.679  24.447  0.00  0.00     0.215 C 
ATOM     94  OE1 GLN d   1      12.946   6.825  23.377  0.00  0.00    -0.274 OA
ATOM     95  NE2 GLN d   1      14.575   5.916  24.566  0.00  0.00    -0.370 N 
ATOM     96  H28 GLN d   1      14.891   5.378  23.785  0.00  0.00     0.159 HD
ATOM     97  H29 GLN d   1      15.057   5.859  25.440  0.00  0.00     0.159 HD
ENDBRANCH  90  93
ENDBRANCH  87  90
ENDBRANCH   1  87
TORSDOF 23
