REMARK  18 active torsions:
REMARK  status: ('A' for Active; 'I' for Inactive)
REMARK    1  A    between atoms: N_1  and  CA_2 
REMARK    2  A    between atoms: CA_2  and  C_3 
REMARK    3  A    between atoms: CA_2  and  CB_5 
REMARK       I    between atoms: C_3  and  N_7 
REMARK    4  A    between atoms: CB_5  and  OG_6 
REMARK    5  A    between atoms: N_7  and  CA_8 
REMARK    6  A    between atoms: CA_8  and  C_9 
REMARK    7  A    between atoms: CA_8  and  CB_11 
REMARK       I    between atoms: C_9  and  N_17 
REMARK    8  A    between atoms: CB_11  and  CG_12 
REMARK    9  A    between atoms: CA_18  and  C_19 
REMARK       I    between atoms: C_19  and  N_24 
REMARK   10  A    between atoms: N_24  and  CA_25 
REMARK   11  A    between atoms: CA_25  and  C_26 
REMARK   12  A    between atoms: CA_25  and  CB_28 
REMARK       I    between atoms: C_26  and  N_33 
REMARK   13  A    between atoms: CB_28  and  CG_29 
REMARK   14  A    between atoms: CG_29  and  CD_30 
REMARK       I    between atoms: CD_30  and  NE2_32 
REMARK   15  A    between atoms: N_33  and  CA_34 
REMARK   16  A    between atoms: CA_34  and  C_35 
REMARK   17  A    between atoms: CA_34  and  CB_37 
REMARK   18  A    between atoms: CB_37  and  CG_38 
ROOT
ATOM      1  C   HIS d   1      13.546   4.975  31.411  0.00  0.00     0.243 C 
ATOM      2  O   HIS d   1      12.453   5.546  31.294  0.00  0.00    -0.271 OA
ATOM      3  N   PRO d   1      14.679   5.672  31.500  0.00  0.00    -0.337 N 
ATOM      4  CA  PRO d   1      14.657   7.140  31.542  0.00  0.00     0.091 C 
ATOM      5  CB  PRO d   1      16.121   7.552  31.507  0.00  0.00    -0.036 C 
ATOM      6  CG  PRO d   1      16.887   6.337  31.688  0.00  0.00    -0.048 C 
ATOM      7  CD  PRO d   1      16.053   5.136  31.534  0.00  0.00    -0.001 C 
ATOM      8  H15 PRO d   1      14.154   7.483  32.458  0.00  0.00     0.087 H 
ATOM      9  H16 PRO d   1      16.337   8.263  32.318  0.00  0.00     0.036 H 
ATOM     10  H17 PRO d   1      16.364   8.015  30.539  0.00  0.00     0.036 H 
ATOM     11  H18 PRO d   1      17.325   6.339  32.697  0.00  0.00     0.035 H 
ATOM     12  H19 PRO d   1      17.692   6.309  30.939  0.00  0.00     0.035 H 
ATOM     13  H20 PRO d   1      16.292   4.609  30.599  0.00  0.00     0.064 H 
ATOM     14  H21 PRO d   1      16.187   4.452  32.385  0.00  0.00     0.064 H 
ENDROOT
BRANCH   4  15
ATOM     15  C   PRO d   1      14.030   7.802  30.325  0.00  0.00     0.241 C 
ATOM     16  O   PRO d   1      13.574   8.922  30.482  0.00  0.00    -0.271 OA
ATOM     17  N   GLN d   1      14.015   7.207  29.143  0.00  0.00    -0.346 N 
ATOM     18  H22 GLN d   1      14.470   6.327  29.010  0.00  0.00     0.163 HD
BRANCH  17  19
ATOM     19  CA  GLN d   1      13.319   7.862  28.033  0.00  0.00     0.090 C 
ATOM     20  H23 GLN d   1      13.775   8.849  27.866  0.00  0.00     0.087 H 
BRANCH  19  21
ATOM     21  C   GLN d   1      11.820   8.035  28.327  0.00  0.00     0.241 C 
ATOM     22  O   GLN d   1      11.194   8.955  27.775  0.00  0.00    -0.271 OA
ATOM     23  N   PHE d   1      11.261   7.180  29.194  0.00  0.00    -0.348 N 
ATOM     24  H30 PHE d   1      11.838   6.499  29.645  0.00  0.00     0.163 HD
BRANCH  23  25
ATOM     25  CA  PHE d   1       9.829   7.214  29.500  0.00  0.00     0.066 C 
ATOM     26  H31 PHE d   1       9.379   8.030  28.915  0.00  0.00     0.084 H 
BRANCH  25  27
ATOM     27  C   PHE d   1       9.529   7.470  30.977  0.00  0.00     0.110 C 
ATOM     28  O   PHE d   1       8.429   7.109  31.388  0.00  0.00    -0.305 OA
ATOM     29  H32 PHE d   1      10.255   7.949  31.633  0.00  0.00     0.146 H 
ENDBRANCH  25  27
BRANCH  25  30
ATOM     30  CB  PHE d   1       9.177   5.892  29.084  0.00  0.00    -0.016 C 
ATOM     31  H33 PHE d   1       8.090   6.043  29.007  0.00  0.00     0.043 H 
ATOM     32  H34 PHE d   1       9.389   5.135  29.854  0.00  0.00     0.043 H 
BRANCH  30  33
ATOM     33  CG  PHE d   1       9.688   5.396  27.769  0.00  0.00    -0.056 A 
ATOM     34  CD1 PHE d   1       9.404   6.120  26.629  0.00  0.00    -0.077 A 
ATOM     35  CE1 PHE d   1       9.876   5.690  25.407  0.00  0.00    -0.082 A 
ATOM     36  H35 PHE d   1       8.811   7.025  26.694  0.00  0.00     0.084 H 
ATOM     37  CZ  PHE d   1      10.640   4.535  25.310  0.00  0.00    -0.083 A 
ATOM     38  H37 PHE d   1       9.648   6.259  24.513  0.00  0.00     0.083 H 
ATOM     39  CE2 PHE d   1      10.922   3.815  26.454  0.00  0.00    -0.082 A 
ATOM     40  H39 PHE d   1      11.011   4.202  24.347  0.00  0.00     0.083 H 
ATOM     41  CD2 PHE d   1      10.451   4.245  27.677  0.00  0.00    -0.077 A 
ATOM     42  H38 PHE d   1      11.515   2.910  26.391  0.00  0.00     0.083 H 
ATOM     43  H36 PHE d   1      10.680   3.678  28.572  0.00  0.00     0.084 H 
ENDBRANCH  30  33
ENDBRANCH  25  30
ENDBRANCH  23  25
ENDBRANCH  19  21
BRANCH  19  44
ATOM     44  CB  GLN d   1      13.428   7.022  26.754  0.00  0.00    -0.030 C 
ATOM     45  H24 GLN d   1      12.819   6.116  26.888  0.00  0.00     0.037 H 
ATOM     46  H25 GLN d   1      14.482   6.739  26.621  0.00  0.00     0.037 H 
BRANCH  44  47
ATOM     47  CG  GLN d   1      12.967   7.714  25.496  0.00  0.00     0.011 C 
ATOM     48  H26 GLN d   1      13.467   8.691  25.419  0.00  0.00     0.047 H 
ATOM     49  H27 GLN d   1      11.878   7.862  25.545  0.00  0.00     0.047 H 
BRANCH  47  50
ATOM     50  CD  GLN d   1      13.306   6.875  24.252  0.00  0.00     0.215 C 
ATOM     51  OE1 GLN d   1      12.621   6.881  23.218  0.00  0.00    -0.274 OA
ATOM     52  NE2 GLN d   1      14.338   6.131  24.383  0.00  0.00    -0.370 N 
ATOM     53  H28 GLN d   1      14.635   5.550  23.625  0.00  0.00     0.159 HD
ATOM     54  H29 GLN d   1      14.848   6.131  25.243  0.00  0.00     0.159 HD
ENDBRANCH  47  50
ENDBRANCH  44  47
ENDBRANCH  19  44
ENDBRANCH  17  19
ENDBRANCH   4  15
BRANCH   1  55
ATOM     55  CA  HIS d   1      13.659   3.445  31.415  0.00  0.00     0.094 C 
ATOM     56  H9  HIS d   1      14.621   3.174  31.874  0.00  0.00     0.088 H 
BRANCH  55  57
ATOM     57  N   HIS d   1      12.581   2.767  32.127  0.00  0.00    -0.346 N 
ATOM     58  C   SER d   1      12.732   2.426  33.392  0.00  0.00     0.251 C 
ATOM     59  O   SER d   1      13.822   2.550  33.928  0.00  0.00    -0.271 OA
ATOM     60  H8  HIS d   1      11.725   2.560  31.654  0.00  0.00     0.163 HD
BRANCH  58  61
ATOM     61  CA  SER d   1      11.537   1.824  34.138  0.00  0.00     0.195 C 
ATOM     62  H4  SER d   1      10.607   2.188  33.677  0.00  0.00     0.102 H 
BRANCH  61  63
ATOM     63  N   SER d   1      11.533   0.325  34.067  0.00  0.00    -0.064 N 
ATOM     64  H1  SER d   1      10.735  -0.033  34.568  0.00  0.00     0.275 HD
ATOM     65  H2  SER d   1      12.379  -0.033  34.483  0.00  0.00     0.275 HD
ATOM     66  H3  SER d   1      11.483   0.034  33.103  0.00  0.00     0.275 HD
ENDBRANCH  61  63
BRANCH  61  67
ATOM     67  CB  SER d   1      11.610   2.336  35.578  0.00  0.00     0.051 C 
ATOM     68  H5  SER d   1      10.931   1.750  36.214  0.00  0.00     0.077 H 
ATOM     69  H6  SER d   1      11.318   3.396  35.609  0.00  0.00     0.077 H 
BRANCH  67  70
ATOM     70  OG  SER d   1      12.943   2.194  36.045  0.00  0.00    -0.398 OA
ATOM     71  H7  SER d   1      13.527   2.700  35.492  0.00  0.00     0.209 HD
ENDBRANCH  67  70
ENDBRANCH  61  67
ENDBRANCH  58  61
ENDBRANCH  55  57
BRANCH  55  72
ATOM     72  CB  HIS d   1      13.593   2.910  30.004  0.00  0.00     0.002 C 
ATOM     73  H10 HIS d   1      12.706   3.335  29.512  0.00  0.00     0.046 H 
ATOM     74  H11 HIS d   1      13.497   1.815  30.051  0.00  0.00     0.046 H 
BRANCH  72  75
ATOM     75  CG  HIS d   1      14.796   3.245  29.183  0.00  0.00     0.030 A 
ATOM     76  ND1 HIS d   1      14.963   4.483  28.602  0.00  0.00    -0.353 N 
ATOM     77  CE1 HIS d   1      16.107   4.487  27.945  0.00  0.00     0.063 A 
ATOM     78  H12 HIS d   1      14.305   5.273  28.669  0.00  0.00     0.166 HD
ATOM     79  NE2 HIS d   1      16.682   3.300  28.072  0.00  0.00    -0.254 NA
ATOM     80  H14 HIS d   1      16.513   5.330  27.388  0.00  0.00     0.143 H 
ATOM     81  CD2 HIS d   1      15.871   2.496  28.833  0.00  0.00     0.025 A 
ATOM     82  H13 HIS d   1      16.055   1.457  29.104  0.00  0.00     0.117 H 
ENDBRANCH  72  75
ENDBRANCH  55  72
ENDBRANCH   1  55
TORSDOF 18
