REMARK WARNING: 32 MAX_TORS EXCEEDED!!!
REMARK  63 active torsions:
REMARK  status: ('A' for Active; 'I' for Inactive)
REMARK    1  A    between atoms: N_1  and  CA_2 
REMARK    2  A    between atoms: CA_2  and  C_3 
REMARK       I    between atoms: C_3  and  N_5 
REMARK    3  A    between atoms: N_5  and  CA_6 
REMARK    4  A    between atoms: CA_6  and  C_7 
REMARK    5  A    between atoms: CA_6  and  CB_9 
REMARK       I    between atoms: C_7  and  N_14 
REMARK    6  A    between atoms: CB_9  and  CG_10 
REMARK    7  A    between atoms: CG_10  and  CD_11 
REMARK    8  A    between atoms: N_14  and  CA_15 
REMARK    9  A    between atoms: CA_15  and  C_16 
REMARK   10  A    between atoms: CA_15  and  CB_18 
REMARK       I    between atoms: C_16  and  N_22 
REMARK   11  A    between atoms: CB_18  and  CG_19 
REMARK   12  A    between atoms: CG_19  and  CD1_20 
REMARK   13  A    between atoms: CG_19  and  CD2_21 
REMARK   14  A    between atoms: N_22  and  CA_23 
REMARK   15  A    between atoms: CA_23  and  C_24 
REMARK   16  A    between atoms: CA_23  and  CB_26 
REMARK       I    between atoms: C_24  and  N_30 
REMARK   17  A    between atoms: CB_26  and  CG1_27 
REMARK   18  A    between atoms: CB_26  and  CG2_28 
REMARK   19  A    between atoms: CG1_27  and  CD1_29 
REMARK   20  A    between atoms: N_30  and  CA_31 
REMARK   21  A    between atoms: CA_31  and  C_32 
REMARK       I    between atoms: C_32  and  N_34 
REMARK   22  A    between atoms: N_34  and  CA_35 
REMARK   23  A    between atoms: CA_35  and  C_36 
REMARK   24  A    between atoms: CA_35  and  CB_38 
REMARK       I    between atoms: C_36  and  N_42 
REMARK   25  A    between atoms: CB_38  and  CG1_39 
REMARK   26  A    between atoms: CB_38  and  CG2_40 
REMARK   27  A    between atoms: CG1_39  and  CD1_41 
REMARK   28  A    between atoms: N_42  and  CA_43 
REMARK   29  A    between atoms: CA_43  and  C_44 
REMARK   30  A    between atoms: CA_43  and  CB_46 
REMARK       I    between atoms: C_44  and  N_50 
REMARK   31  A    between atoms: CB_46  and  CG_47 
REMARK   32  A    between atoms: CG_47  and  CD1_48 
REMARK   33  A    between atoms: CG_47  and  CD2_49 
REMARK   34  A    between atoms: N_50  and  CA_51 
REMARK   35  A    between atoms: CA_51  and  C_52 
REMARK   36  A    between atoms: CA_51  and  CB_54 
REMARK       I    between atoms: C_52  and  N_58 
REMARK   37  A    between atoms: CB_54  and  CG_55 
REMARK       I    between atoms: CG_55  and  ND2_57 
REMARK   38  A    between atoms: N_58  and  CA_59 
REMARK   39  A    between atoms: CA_59  and  C_60 
REMARK   40  A    between atoms: CA_59  and  CB_62 
REMARK       I    between atoms: C_60  and  N_63 
REMARK   41  A    between atoms: N_63  and  CA_64 
REMARK   42  A    between atoms: CA_64  and  C_65 
REMARK   43  A    between atoms: CA_64  and  CB_67 
REMARK       I    between atoms: C_65  and  N_68 
REMARK   44  A    between atoms: N_68  and  CA_69 
REMARK   45  A    between atoms: CA_69  and  C_70 
REMARK   46  A    between atoms: CA_69  and  CB_72 
REMARK       I    between atoms: C_70  and  N_77 
REMARK   47  A    between atoms: CB_72  and  CG_73 
REMARK   48  A    between atoms: CG_73  and  CD_74 
REMARK   49  A    between atoms: CD_74  and  CE_75 
REMARK   50  A    between atoms: CE_75  and  NZ_76 
REMARK   51  A    between atoms: N_77  and  CA_78 
REMARK   52  A    between atoms: CA_78  and  C_79 
REMARK   53  A    between atoms: CA_78  and  CB_81 
REMARK       I    between atoms: C_79  and  N_84 
REMARK   54  A    between atoms: CB_81  and  CG1_82 
REMARK   55  A    between atoms: CB_81  and  CG2_83 
REMARK   56  A    between atoms: CA_85  and  C_86 
REMARK       I    between atoms: C_86  and  N_91 
REMARK   57  A    between atoms: N_91  and  CA_92 
REMARK   58  A    between atoms: CA_92  and  C_93 
REMARK   59  A    between atoms: CA_92  and  CB_95 
REMARK       I    between atoms: C_93  and  N_96 
REMARK   60  A    between atoms: N_96  and  CA_97 
REMARK   61  A    between atoms: CA_97  and  C_98 
REMARK   62  A    between atoms: CA_97  and  CB_100 
REMARK   63  A    between atoms: CB_100  and  CG_101 
ROOT
ATOM      1  C   LEU d   1     142.055  50.912  -9.505  0.00  0.00     0.241 C 
ATOM      2  O   LEU d   1     141.551  51.114  -8.404  0.00  0.00    -0.271 OA
ATOM      3  N   ASN d   1     142.834  49.868  -9.748  0.00  0.00    -0.346 N 
ATOM      4  H59 ASN d   1     143.227  49.747 -10.659  0.00  0.00     0.163 HD
ENDROOT
BRANCH   3   5
ATOM      5  CA  ASN d   1     143.126  48.891  -8.702  0.00  0.00     0.097 C 
ATOM      6  H60 ASN d   1     142.177  48.668  -8.193  0.00  0.00     0.088 H 
BRANCH   5   7
ATOM      7  C   ASN d   1     144.103  49.371  -7.646  0.00  0.00     0.241 C 
ATOM      8  O   ASN d   1     145.105  50.005  -7.960  0.00  0.00    -0.271 OA
ATOM      9  N   ALA d   1     143.802  49.063  -6.388  0.00  0.00    -0.346 N 
ATOM     10  H65 ALA d   1     142.965  48.550  -6.197  0.00  0.00     0.163 HD
BRANCH   9  11
ATOM     11  CA  ALA d   1     144.669  49.458  -5.277  0.00  0.00     0.086 C 
ATOM     12  H66 ALA d   1     144.851  50.541  -5.332  0.00  0.00     0.086 H 
BRANCH  11  13
ATOM     13  C   ALA d   1     145.999  48.722  -5.390  0.00  0.00     0.240 C 
ATOM     14  O   ALA d   1     146.035  47.544  -5.756  0.00  0.00    -0.271 OA
ATOM     15  N   ALA d   1     147.091  49.411  -5.080  0.00  0.00    -0.346 N 
ATOM     16  H70 ALA d   1     147.004  50.365  -4.792  0.00  0.00     0.163 HD
BRANCH  15  17
ATOM     17  CA  ALA d   1     148.417  48.803  -5.152  0.00  0.00     0.086 C 
ATOM     18  H71 ALA d   1     148.393  47.980  -5.881  0.00  0.00     0.086 H 
BRANCH  17  19
ATOM     19  C   ALA d   1     148.813  48.247  -3.789  0.00  0.00     0.240 C 
ATOM     20  O   ALA d   1     148.703  48.941  -2.785  0.00  0.00    -0.271 OA
ATOM     21  N   LYS d   1     149.271  47.000  -3.756  0.00  0.00    -0.346 N 
ATOM     22  H75 LYS d   1     149.327  46.478  -4.607  0.00  0.00     0.163 HD
BRANCH  21  23
ATOM     23  CA  LYS d   1     149.695  46.374  -2.507  0.00  0.00     0.089 C 
ATOM     24  H76 LYS d   1     148.942  46.562  -1.728  0.00  0.00     0.087 H 
BRANCH  23  25
ATOM     25  C   LYS d   1     151.040  46.976  -2.081  0.00  0.00     0.241 C 
ATOM     26  O   LYS d   1     151.955  47.057  -2.904  0.00  0.00    -0.271 OA
ATOM     27  N   VAL d   1     151.175  47.408  -0.822  0.00  0.00    -0.346 N 
ATOM     28  H88 VAL d   1     150.406  47.349  -0.185  0.00  0.00     0.163 HD
BRANCH  27  29
ATOM     29  CA  VAL d   1     152.457  47.968  -0.382  0.00  0.00     0.092 C 
ATOM     30  H89 VAL d   1     152.871  48.593  -1.187  0.00  0.00     0.088 H 
BRANCH  29  31
ATOM     31  C   VAL d   1     153.397  46.789  -0.098  0.00  0.00     0.243 C 
ATOM     32  O   VAL d   1     152.937  45.659   0.100  0.00  0.00    -0.271 OA
ATOM     33  N   PRO d   1     154.718  47.033  -0.069  0.00  0.00    -0.337 N 
ATOM     34  CA  PRO d   1     155.682  45.956   0.195  0.00  0.00     0.091 C 
ATOM     35  CD  PRO d   1     155.387  48.346  -0.131  0.00  0.00    -0.001 C 
ATOM     36  CB  PRO d   1     157.024  46.679   0.141  0.00  0.00    -0.036 C 
ATOM     37  H97 PRO d   1     155.630  45.202  -0.605  0.00  0.00     0.087 H 
ATOM     38  CG  PRO d   1     156.688  48.073   0.596  0.00  0.00    -0.048 C 
ATOM     39  H98 PRO d   1     157.427  46.685  -0.883  0.00  0.00     0.036 H 
ATOM     40  H99 PRO d   1     157.752  46.209   0.818  0.00  0.00     0.036 H 
ATOM     41 0H10 PRO d   1     157.469  48.788   0.298  0.00  0.00     0.035 H 
ATOM     42 1H10 PRO d   1     156.551  48.114   1.687  0.00  0.00     0.035 H 
ATOM     43 2H10 PRO d   1     154.797  49.120   0.383  0.00  0.00     0.064 H 
ATOM     44 3H10 PRO d   1     155.568  48.653  -1.172  0.00  0.00     0.064 H 
BRANCH  34  45
ATOM     45  C   PRO d   1     155.439  45.245   1.531  0.00  0.00     0.241 C 
ATOM     46  O   PRO d   1     155.171  45.886   2.537  0.00  0.00    -0.271 OA
ATOM     47  N   ALA d   1     155.549  43.919   1.518  0.00  0.00    -0.346 N 
ATOM     48 4H10 ALA d   1     155.796  43.471   0.658  0.00  0.00     0.163 HD
BRANCH  47  49
ATOM     49  CA  ALA d   1     155.327  43.082   2.700  0.00  0.00     0.086 C 
ATOM     50 5H10 ALA d   1     154.323  43.318   3.083  0.00  0.00     0.086 H 
BRANCH  49  51
ATOM     51  C   ALA d   1     156.317  43.323   3.832  0.00  0.00     0.240 C 
ATOM     52  O   ALA d   1     157.404  43.841   3.609  0.00  0.00    -0.271 OA
ATOM     53  N   ASP d   1     155.956  42.930   5.055  0.00  0.00    -0.344 N 
ATOM     54 9H10 ASP d   1     155.060  42.504   5.178  0.00  0.00     0.163 HD
BRANCH  53  55
ATOM     55  CA  ASP d   1     156.834  43.101   6.240  0.00  0.00     0.105 C 
ATOM     56 0H11 ASP d   1     157.182  44.144   6.262  0.00  0.00     0.090 H 
BRANCH  55  57
ATOM     57  C   ASP d   1     158.047  42.173   6.182  0.00  0.00     0.197 C 
ATOM     58  O   ASP d   1     159.156  42.665   6.458  0.00  0.00    -0.646 OA
ATOM     59  OXT ASP d   1     157.855  40.968   5.901  0.00  0.00    -0.646 OA
ENDBRANCH  55  57
BRANCH  55  60
ATOM     60  CB  ASP d   1     156.079  42.793   7.552  0.00  0.00     0.044 C 
ATOM     61 1H11 ASP d   1     156.808  42.759   8.375  0.00  0.00     0.053 H 
ATOM     62 2H11 ASP d   1     155.592  41.812   7.452  0.00  0.00     0.053 H 
BRANCH  60  63
ATOM     63  CG  ASP d   1     155.021  43.823   7.890  0.00  0.00     0.175 C 
ATOM     64  OD1 ASP d   1     155.239  45.023   7.626  0.00  0.00    -0.648 OA
ATOM     65  OD2 ASP d   1     153.974  43.419   8.433  0.00  0.00    -0.648 OA
ENDBRANCH  60  63
ENDBRANCH  55  60
ENDBRANCH  53  55
ENDBRANCH  49  51
BRANCH  49  66
ATOM     66  CB  ALA d   1     155.356  41.606   2.313  0.00  0.00    -0.049 C 
ATOM     67 6H10 ALA d   1     155.188  40.989   3.208  0.00  0.00     0.030 H 
ATOM     68 7H10 ALA d   1     156.335  41.361   1.877  0.00  0.00     0.030 H 
ATOM     69 8H10 ALA d   1     154.565  41.405   1.575  0.00  0.00     0.030 H 
ENDBRANCH  49  66
ENDBRANCH  47  49
ENDBRANCH  34  45
ENDBRANCH  29  31
BRANCH  29  70
ATOM     70  CB  VAL d   1     152.332  48.832   0.913  0.00  0.00    -0.033 C 
ATOM     71  H90 VAL d   1     153.230  49.463   0.994  0.00  0.00     0.042 H 
BRANCH  70  72
ATOM     72  CG1 VAL d   1     151.122  49.741   0.832  0.00  0.00    -0.071 C 
ATOM     73  H91 VAL d   1     151.051  50.340   1.752  0.00  0.00     0.028 H 
ATOM     74  H92 VAL d   1     150.213  49.132   0.721  0.00  0.00     0.028 H 
ATOM     75  H93 VAL d   1     151.224  50.410  -0.035  0.00  0.00     0.028 H 
ENDBRANCH  70  72
BRANCH  70  76
ATOM     76  CG2 VAL d   1     152.265  47.947   2.140  0.00  0.00    -0.071 C 
ATOM     77  H94 VAL d   1     153.153  47.299   2.174  0.00  0.00     0.028 H 
ATOM     78  H95 VAL d   1     151.359  47.325   2.094  0.00  0.00     0.028 H 
ATOM     79  H96 VAL d   1     152.234  48.574   3.043  0.00  0.00     0.028 H 
ENDBRANCH  70  76
ENDBRANCH  29  70
ENDBRANCH  27  29
ENDBRANCH  23  25
BRANCH  23  80
ATOM     80  CB  LYS d   1     149.858  44.856  -2.705  0.00  0.00    -0.038 C 
ATOM     81  H77 LYS d   1     150.114  44.412  -1.732  0.00  0.00     0.036 H 
ATOM     82  H78 LYS d   1     150.685  44.692  -3.412  0.00  0.00     0.036 H 
BRANCH  80  83
ATOM     83  CG  LYS d   1     148.620  44.128  -3.247  0.00  0.00    -0.061 C 
ATOM     84  H79 LYS d   1     148.438  44.462  -4.279  0.00  0.00     0.033 H 
ATOM     85  H80 LYS d   1     147.755  44.388  -2.620  0.00  0.00     0.033 H 
BRANCH  83  86
ATOM     86  CD  LYS d   1     148.788  42.605  -3.245  0.00  0.00    -0.043 C 
ATOM     87  H81 LYS d   1     149.608  42.340  -3.929  0.00  0.00     0.035 H 
ATOM     88  H82 LYS d   1     147.853  42.146  -3.598  0.00  0.00     0.035 H 
BRANCH  86  89
ATOM     89  CE  LYS d   1     149.113  42.049  -1.844  0.00  0.00     0.080 C 
ATOM     90  H83 LYS d   1     150.067  42.489  -1.516  0.00  0.00     0.075 H 
ATOM     91  H84 LYS d   1     149.222  40.958  -1.928  0.00  0.00     0.075 H 
BRANCH  89  92
ATOM     92  NZ  LYS d   1     148.085  42.332  -0.788  0.00  0.00    -0.079 N 
ATOM     93  H85 LYS d   1     148.384  41.932   0.088  0.00  0.00     0.274 HD
ATOM     94  H86 LYS d   1     147.203  41.926  -1.060  0.00  0.00     0.274 HD
ATOM     95  H87 LYS d   1     147.977  43.329  -0.682  0.00  0.00     0.274 HD
ENDBRANCH  89  92
ENDBRANCH  86  89
ENDBRANCH  83  86
ENDBRANCH  80  83
ENDBRANCH  23  80
ENDBRANCH  21  23
ENDBRANCH  17  19
BRANCH  17  96
ATOM     96  CB  ALA d   1     149.443  49.838  -5.604  0.00  0.00    -0.049 C 
ATOM     97  H72 ALA d   1     150.437  49.370  -5.655  0.00  0.00     0.030 H 
ATOM     98  H73 ALA d   1     149.465  50.670  -4.885  0.00  0.00     0.030 H 
ATOM     99  H74 ALA d   1     149.166  50.219  -6.598  0.00  0.00     0.030 H 
ENDBRANCH  17  96
ENDBRANCH  15  17
ENDBRANCH  11  13
BRANCH  11 100
ATOM    100  CB  ALA d   1     143.998  49.134  -3.933  0.00  0.00    -0.049 C 
ATOM    101  H67 ALA d   1     144.662  49.437  -3.110  0.00  0.00     0.030 H 
ATOM    102  H68 ALA d   1     143.806  48.053  -3.870  0.00  0.00     0.030 H 
ATOM    103  H69 ALA d   1     143.047  49.681  -3.857  0.00  0.00     0.030 H 
ENDBRANCH  11 100
ENDBRANCH   9  11
ENDBRANCH   5   7
BRANCH   5 104
ATOM    104  CB  ASN d   1     143.652  47.595  -9.322  0.00  0.00     0.036 C 
ATOM    105  H61 ASN d   1     143.920  46.900  -8.512  0.00  0.00     0.051 H 
ATOM    106  H62 ASN d   1     144.548  47.827  -9.917  0.00  0.00     0.051 H 
BRANCH 104 107
ATOM    107  CG  ASN d   1     142.625  46.919 -10.227  0.00  0.00     0.217 C 
ATOM    108  OD1 ASN d   1     141.470  46.719  -9.841  0.00  0.00    -0.274 OA
ATOM    109  ND2 ASN d   1     143.049  46.553 -11.429  0.00  0.00    -0.370 N 
ATOM    110  H63 ASN d   1     142.421  46.105 -12.066  0.00  0.00     0.159 HD
ATOM    111  H64 ASN d   1     143.997  46.724 -11.699  0.00  0.00     0.159 HD
ENDBRANCH 104 107
ENDBRANCH   5 104
ENDBRANCH   3   5
BRANCH   1 112
ATOM    112  CA  LEU d   1     141.773  51.863 -10.667  0.00  0.00     0.089 C 
ATOM    113  H49 LEU d   1     142.152  51.453 -11.615  0.00  0.00     0.087 H 
BRANCH 112 114
ATOM    114  N   LEU d   1     140.313  51.957 -10.671  0.00  0.00    -0.346 N 
ATOM    115  C   ILE d   1     139.489  51.609 -11.402  0.00  0.00     0.241 C 
ATOM    116  O   ILE d   1     140.039  51.397 -12.476  0.00  0.00    -0.271 OA
ATOM    117  H48 LEU d   1     139.949  52.424  -9.865  0.00  0.00     0.163 HD
BRANCH 115 118
ATOM    118  CA  ILE d   1     137.967  51.583 -11.295  0.00  0.00     0.092 C 
ATOM    119  H38 ILE d   1     137.620  52.532 -10.860  0.00  0.00     0.088 H 
BRANCH 118 120
ATOM    120  N   ILE d   1     137.357  51.407 -12.581  0.00  0.00    -0.346 N 
ATOM    121  C   GLY d   1     136.714  52.629 -13.297  0.00  0.00     0.236 C 
ATOM    122  O   GLY d   1     136.601  53.712 -12.716  0.00  0.00    -0.272 OA
ATOM    123  H37 ILE d   1     137.345  50.506 -13.014  0.00  0.00     0.163 HD
BRANCH 121 124
ATOM    124  CA  GLY d   1     136.091  52.364 -14.655  0.00  0.00     0.069 C 
ATOM    125  H35 GLY d   1     136.844  52.570 -15.430  0.00  0.00     0.078 H 
ATOM    126  H36 GLY d   1     135.797  51.305 -14.702  0.00  0.00     0.078 H 
BRANCH 124 127
ATOM    127  N   GLY d   1     134.920  53.179 -14.925  0.00  0.00    -0.351 N 
ATOM    128  C   ILE d   1     133.735  52.833 -14.441  0.00  0.00     0.241 C 
ATOM    129  O   ILE d   1     133.559  51.844 -13.723  0.00  0.00    -0.271 OA
ATOM    130  H34 GLY d   1     135.008  54.007 -15.479  0.00  0.00     0.163 HD
BRANCH 128 131
ATOM    131  CA  ILE d   1     132.593  53.742 -14.832  0.00  0.00     0.092 C 
ATOM    132  H24 ILE d   1     132.936  54.502 -15.550  0.00  0.00     0.088 H 
BRANCH 131 133
ATOM    133  N   ILE d   1     131.599  52.890 -15.462  0.00  0.00    -0.346 N 
ATOM    134  C   LEU d   1     131.681  52.559 -16.748  0.00  0.00     0.241 C 
ATOM    135  O   LEU d   1     132.551  52.994 -17.505  0.00  0.00    -0.271 OA
ATOM    136  H23 ILE d   1     130.835  52.544 -14.916  0.00  0.00     0.163 HD
BRANCH 134 137
ATOM    137  CA  LEU d   1     130.599  51.595 -17.239  0.00  0.00     0.089 C 
ATOM    138  H13 LEU d   1     129.897  51.468 -16.402  0.00  0.00     0.087 H 
BRANCH 137 139
ATOM    139  N   LEU d   1     129.790  52.013 -18.385  0.00  0.00    -0.346 N 
ATOM    140  C   GLU d   1     128.747  52.830 -18.231  0.00  0.00     0.241 C 
ATOM    141  O   GLU d   1     128.448  53.333 -17.141  0.00  0.00    -0.271 OA
ATOM    142  H12 LEU d   1     130.023  51.680 -19.299  0.00  0.00     0.163 HD
BRANCH 140 143
ATOM    143  CA  GLU d   1     127.923  53.150 -19.486  0.00  0.00     0.090 C 
ATOM    144  H7  GLU d   1     128.057  52.326 -20.202  0.00  0.00     0.087 H 
BRANCH 143 145
ATOM    145  N   GLU d   1     126.490  53.265 -19.174  0.00  0.00    -0.346 N 
ATOM    146  C   GLY d   1     125.742  52.235 -18.772  0.00  0.00     0.243 C 
ATOM    147  O   GLY d   1     126.186  51.091 -18.628  0.00  0.00    -0.272 OA
ATOM    148  H6  GLU d   1     126.054  54.160 -19.268  0.00  0.00     0.163 HD
BRANCH 146 149
ATOM    149  CA  GLY d   1     124.276  52.539 -18.491  0.00  0.00     0.152 C 
ATOM    150  H4  GLY d   1     124.222  53.448 -17.875  0.00  0.00     0.090 H 
ATOM    151  H5  GLY d   1     123.768  52.715 -19.450  0.00  0.00     0.090 H 
BRANCH 149 152
ATOM    152  N   GLY d   1     123.562  51.438 -17.773  0.00  0.00    -0.071 N 
ATOM    153  H1  GLY d   1     122.602  51.704 -17.620  0.00  0.00     0.274 HD
ATOM    154  H2  GLY d   1     124.010  51.270 -16.886  0.00  0.00     0.274 HD
ATOM    155  H3  GLY d   1     123.593  50.598 -18.329  0.00  0.00     0.274 HD
ENDBRANCH 149 152
ENDBRANCH 146 149
ENDBRANCH 143 145
BRANCH 143 156
ATOM    156  CB  GLU d   1     128.409  54.448 -20.142  0.00  0.00    -0.029 C 
ATOM    157  H8  GLU d   1     128.758  54.213 -21.158  0.00  0.00     0.037 H 
ATOM    158  H9  GLU d   1     129.246  54.844 -19.549  0.00  0.00     0.037 H 
BRANCH 156 159
ATOM    159  CG  GLU d   1     127.331  55.533 -20.240  0.00  0.00     0.018 C 
ATOM    160  H10 GLU d   1     127.171  55.959 -19.238  0.00  0.00     0.049 H 
ATOM    161  H11 GLU d   1     126.399  55.069 -20.595  0.00  0.00     0.049 H 
BRANCH 159 162
ATOM    162  CD  GLU d   1     127.704  56.663 -21.193  0.00  0.00     0.172 C 
ATOM    163  OE1 GLU d   1     126.900  57.615 -21.332  0.00  0.00    -0.648 OA
ATOM    164  OE2 GLU d   1     128.798  56.597 -21.803  0.00  0.00    -0.648 OA
ENDBRANCH 159 162
ENDBRANCH 156 159
ENDBRANCH 143 156
ENDBRANCH 140 143
ENDBRANCH 137 139
BRANCH 137 165
ATOM    165  CB  LEU d   1     131.245  50.228 -17.522  0.00  0.00    -0.035 C 
ATOM    166  H14 LEU d   1     132.113  50.406 -18.173  0.00  0.00     0.037 H 
ATOM    167  H15 LEU d   1     130.502  49.621 -18.060  0.00  0.00     0.037 H 
BRANCH 165 168
ATOM    168  CG  LEU d   1     131.735  49.394 -16.327  0.00  0.00    -0.059 C 
ATOM    169  H16 LEU d   1     132.288  50.045 -15.634  0.00  0.00     0.038 H 
BRANCH 168 170
ATOM    170  CD1 LEU d   1     130.545  48.788 -15.609  0.00  0.00    -0.073 C 
ATOM    171  H17 LEU d   1     130.897  48.192 -14.754  0.00  0.00     0.028 H 
ATOM    172  H18 LEU d   1     129.988  48.141 -16.303  0.00  0.00     0.028 H 
ATOM    173  H19 LEU d   1     129.886  49.592 -15.249  0.00  0.00     0.028 H 
ENDBRANCH 168 170
BRANCH 168 174
ATOM    174  CD2 LEU d   1     132.649  48.275 -16.803  0.00  0.00    -0.073 C 
ATOM    175  H20 LEU d   1     133.516  48.707 -17.325  0.00  0.00     0.028 H 
ATOM    176  H21 LEU d   1     132.096  47.618 -17.491  0.00  0.00     0.028 H 
ATOM    177  H22 LEU d   1     132.996  47.692 -15.937  0.00  0.00     0.028 H 
ENDBRANCH 168 174
ENDBRANCH 165 168
ENDBRANCH 137 165
ENDBRANCH 134 137
ENDBRANCH 131 133
BRANCH 131 178
ATOM    178  CB  ILE d   1     132.068  54.442 -13.578  0.00  0.00    -0.030 C 
ATOM    179  H25 ILE d   1     131.557  53.706 -12.940  0.00  0.00     0.043 H 
BRANCH 178 180
ATOM    180  CG1 ILE d   1     131.074  55.541 -13.980  0.00  0.00    -0.063 C 
ATOM    181  H26 ILE d   1     130.654  55.960 -13.053  0.00  0.00     0.033 H 
ATOM    182  H27 ILE d   1     130.273  55.063 -14.562  0.00  0.00     0.033 H 
BRANCH 180 183
ATOM    183  CD1 ILE d   1     131.616  56.730 -14.824  0.00  0.00    -0.076 C 
ATOM    184  H31 ILE d   1     130.797  57.433 -15.035  0.00  0.00     0.027 H 
ATOM    185  H32 ILE d   1     132.026  56.350 -15.771  0.00  0.00     0.027 H 
ATOM    186  H33 ILE d   1     132.408  57.247 -14.262  0.00  0.00     0.027 H 
ENDBRANCH 180 183
ENDBRANCH 178 180
BRANCH 178 187
ATOM    187  CG2 ILE d   1     133.233  55.062 -12.800  0.00  0.00    -0.071 C 
ATOM    188  H28 ILE d   1     133.944  54.273 -12.513  0.00  0.00     0.028 H 
ATOM    189  H29 ILE d   1     132.848  55.556 -11.895  0.00  0.00     0.028 H 
ATOM    190  H30 ILE d   1     133.744  55.803 -13.433  0.00  0.00     0.028 H 
ENDBRANCH 178 187
ENDBRANCH 131 178
ENDBRANCH 128 131
ENDBRANCH 124 127
ENDBRANCH 121 124
ENDBRANCH 118 120
BRANCH 118 191
ATOM    191  CB  ILE d   1     137.562  50.420 -10.380  0.00  0.00    -0.030 C 
ATOM    192  H39 ILE d   1     136.564  50.069 -10.681  0.00  0.00     0.043 H 
BRANCH 191 193
ATOM    193  CG1 ILE d   1     137.476  50.919  -8.953  0.00  0.00    -0.063 C 
ATOM    194  H40 ILE d   1     136.693  51.690  -8.895  0.00  0.00     0.033 H 
ATOM    195  H41 ILE d   1     138.445  51.359  -8.674  0.00  0.00     0.033 H 
BRANCH 193 196
ATOM    196  CD1 ILE d   1     137.137  49.794  -7.954  0.00  0.00    -0.076 C 
ATOM    197  H45 ILE d   1     137.087  50.210  -6.937  0.00  0.00     0.027 H 
ATOM    198  H46 ILE d   1     137.917  49.019  -7.996  0.00  0.00     0.027 H 
ATOM    199  H47 ILE d   1     136.165  49.351  -8.217  0.00  0.00     0.027 H 
ENDBRANCH 193 196
ENDBRANCH 191 193
BRANCH 191 200
ATOM    200  CG2 ILE d   1     138.555  49.229 -10.538  0.00  0.00    -0.071 C 
ATOM    201  H42 ILE d   1     138.578  48.908 -11.590  0.00  0.00     0.028 H 
ATOM    202  H43 ILE d   1     138.226  48.391  -9.906  0.00  0.00     0.028 H 
ATOM    203  H44 ILE d   1     139.562  49.548 -10.230  0.00  0.00     0.028 H 
ENDBRANCH 191 200
ENDBRANCH 118 191
ENDBRANCH 115 118
ENDBRANCH 112 114
BRANCH 112 204
ATOM    204  CB  LEU d   1     142.386  53.250 -10.420  0.00  0.00    -0.035 C 
ATOM    205  H50 LEU d   1     142.751  53.279  -9.383  0.00  0.00     0.037 H 
ATOM    206  H51 LEU d   1     141.591  53.999 -10.550  0.00  0.00     0.037 H 
BRANCH 204 207
ATOM    207  CG  LEU d   1     143.552  53.634 -11.341  0.00  0.00    -0.059 C 
ATOM    208  H52 LEU d   1     144.434  53.035 -11.070  0.00  0.00     0.038 H 
BRANCH 207 209
ATOM    209  CD1 LEU d   1     143.165  53.327 -12.781  0.00  0.00    -0.073 C 
ATOM    210  H53 LEU d   1     143.995  53.599 -13.450  0.00  0.00     0.028 H 
ATOM    211  H54 LEU d   1     142.271  53.907 -13.052  0.00  0.00     0.028 H 
ATOM    212  H55 LEU d   1     142.950  52.253 -12.882  0.00  0.00     0.028 H 
ENDBRANCH 207 209
BRANCH 207 213
ATOM    213  CD2 LEU d   1     143.900  55.118 -11.188  0.00  0.00    -0.073 C 
ATOM    214  H56 LEU d   1     144.177  55.324 -10.144  0.00  0.00     0.028 H 
ATOM    215  H57 LEU d   1     143.028  55.729 -11.463  0.00  0.00     0.028 H 
ATOM    216  H58 LEU d   1     144.745  55.366 -11.847  0.00  0.00     0.028 H 
ENDBRANCH 207 213
ENDBRANCH 204 207
ENDBRANCH 112 204
ENDBRANCH   1 112
TORSDOF 63
