REMARK  9 active torsions:
REMARK  status: ('A' for Active; 'I' for Inactive)
REMARK    1  A    between atoms: C5_20  and  O5_30 
REMARK    2  A    between atoms: C6_21  and  C11_27 
REMARK    3  A    between atoms: C7_22  and  N7_29 
REMARK    4  A    between atoms: C8_23  and  O8_31 
REMARK    5  A    between atoms: C10_32  and  C9_25 
REMARK    6  A    between atoms: O10_33  and  C10_32 
REMARK    7  A    between atoms: C12_34  and  O10_33 
REMARK       I    between atoms: C12_34  and  N14_36 
REMARK    8  A    between atoms: C1_37  and  O0_41 
REMARK    9  A    between atoms: C2_38  and  N1_40 
ROOT
ATOM      1  H12  MC d   1       7.072  31.568  24.184  0.00  0.00     0.096 H 
ATOM      2  H13  MC d   1       7.301  29.625  23.657  0.00  0.00     0.097 H 
ATOM      3  H14  MC d   1       8.514  29.270  21.285  0.00  0.00     0.108 H 
ATOM      4  C51  MC d   1       9.375  32.350  20.873  0.00  0.00     0.086 A 
ATOM      5  C5   MC d   1      10.359  31.911  19.916  0.00  0.00     0.102 A 
ATOM      6  C6   MC d   1      11.116  32.960  19.221  0.00  0.00     0.003 A 
ATOM      7  C7   MC d   1      10.929  34.267  19.480  0.00  0.00     0.069 A 
ATOM      8  C8   MC d   1       9.882  34.675  20.468  0.00  0.00     0.105 A 
ATOM      9  C81  MC d   1       9.158  33.623  21.102  0.00  0.00     0.040 A 
ATOM     10  C9   MC d   1       8.054  33.716  22.105  0.00  0.00     0.007 A 
ATOM     11  C91  MC d   1       7.768  32.470  22.368  0.00  0.00     0.057 A 
ATOM     12  N4   MC d   1       8.513  31.598  21.625  0.00  0.00    -0.321 N 
ATOM     13  C1   MC d   1       6.794  31.474  23.124  0.00  0.00     0.108 A 
ATOM     14  C2   MC d   1       6.926  30.108  22.743  0.00  0.00     0.160 A 
ATOM     15  C3   MC d   1       8.072  30.132  21.782  0.00  0.00    -0.003 A 
ENDROOT
BRANCH  10  16
ATOM     16  C10  MC d   1       7.480  34.943  22.601  0.00  0.00     0.057 C 
ATOM     17  H8   MC d   1       7.048  35.527  21.775  0.00  0.00     0.083 H 
ATOM     18  H9   MC d   1       8.244  35.545  23.115  0.00  0.00     0.083 H 
BRANCH  16  19
ATOM     19  O10  MC d   1       6.395  34.518  23.575  0.00  0.00    -0.299 OA
BRANCH  19  20
ATOM     20  C12  MC d   1       5.994  35.656  24.129  0.00  0.00     0.358 C 
ATOM     21  N14  MC d   1       5.038  35.304  25.014  0.00  0.00    -0.346 N 
ATOM     22  H10  MC d   1       4.581  36.005  25.561  0.00  0.00     0.161 HD
ATOM     23  H11  MC d   1       4.787  34.342  25.123  0.00  0.00     0.161 HD
ATOM     24  O13  MC d   1       6.111  36.842  23.884  0.00  0.00    -0.239 OA
ENDBRANCH  19  20
ENDBRANCH  16  19
ENDBRANCH  10  16
BRANCH   8  25
ATOM     25  O8   MC d   1       9.716  35.873  20.665  0.00  0.00    -0.357 OA
ATOM     26  H7   MC d   1       9.028  35.995  21.309  0.00  0.00     0.217 HD
ENDBRANCH   8  25
BRANCH  13  27
ATOM     27  O0   MC d   1       5.518  31.619  23.052  0.00  0.00    -0.387 OA
ATOM     28  H18  MC d   1       5.230  31.441  22.165  0.00  0.00     0.210 HD
ENDBRANCH  13  27
BRANCH   5  29
ATOM     29  O5   MC d   1      10.474  30.708  19.751  0.00  0.00    -0.358 OA
ATOM     30  H6   MC d   1      11.148  30.541  19.102  0.00  0.00     0.217 HD
ENDBRANCH   5  29
BRANCH   7  31
ATOM     31  N7   MC d   1      11.612  35.289  18.838  0.00  0.00    -0.396 N 
ATOM     32  H4   MC d   1      12.343  35.066  18.148  0.00  0.00     0.156 HD
ATOM     33  H5   MC d   1      11.388  36.272  19.051  0.00  0.00     0.156 HD
ENDBRANCH   7  31
BRANCH  14  34
ATOM     34  N1   MC d   1       5.950  29.269  22.379  0.00  0.00    -0.068 N 
ATOM     35  H15  MC d   1       6.345  28.367  22.165  0.00  0.00     0.275 HD
ATOM     36  H16  MC d   1       5.481  29.632  21.564  0.00  0.00     0.275 HD
ATOM     37  H17  MC d   1       5.288  29.176  23.134  0.00  0.00     0.275 HD
ENDBRANCH  14  34
BRANCH   6  38
ATOM     38  C11  MC d   1      12.124  32.484  18.199  0.00  0.00    -0.046 C 
ATOM     39  H1   MC d   1      12.108  31.385  18.152  0.00  0.00     0.033 H 
ATOM     40  H2   MC d   1      13.129  32.824  18.489  0.00  0.00     0.033 H 
ATOM     41  H3   MC d   1      11.868  32.897  17.212  0.00  0.00     0.033 H 
ENDBRANCH   6  38
TORSDOF 9
