REMARK WARNING: 32 MAX_TORS EXCEEDED!!!
REMARK  62 active torsions:
REMARK  status: ('A' for Active; 'I' for Inactive)
REMARK    1  A    between atoms: N_1  and  CA_2 
REMARK    2  A    between atoms: CA_2  and  C_3 
REMARK       I    between atoms: C_3  and  N_5 
REMARK    3  A    between atoms: N_5  and  CA_6 
REMARK    4  A    between atoms: CA_6  and  C_7 
REMARK    5  A    between atoms: CA_6  and  CB_9 
REMARK       I    between atoms: C_7  and  N_14 
REMARK    6  A    between atoms: CB_9  and  CG_10 
REMARK    7  A    between atoms: CG_10  and  CD_11 
REMARK    8  A    between atoms: N_14  and  CA_15 
REMARK    9  A    between atoms: CA_15  and  C_16 
REMARK   10  A    between atoms: CA_15  and  CB_18 
REMARK       I    between atoms: C_16  and  N_22 
REMARK   11  A    between atoms: CB_18  and  CG_19 
REMARK   12  A    between atoms: CG_19  and  CD1_20 
REMARK   13  A    between atoms: CG_19  and  CD2_21 
REMARK   14  A    between atoms: N_22  and  CA_23 
REMARK   15  A    between atoms: CA_23  and  C_24 
REMARK   16  A    between atoms: CA_23  and  CB_26 
REMARK       I    between atoms: C_24  and  N_30 
REMARK   17  A    between atoms: CB_26  and  CG1_27 
REMARK   18  A    between atoms: CB_26  and  CG2_28 
REMARK   19  A    between atoms: CG1_27  and  CD1_29 
REMARK   20  A    between atoms: N_30  and  CA_31 
REMARK   21  A    between atoms: CA_31  and  C_32 
REMARK       I    between atoms: C_32  and  N_34 
REMARK   22  A    between atoms: N_34  and  CA_35 
REMARK   23  A    between atoms: CA_35  and  C_36 
REMARK   24  A    between atoms: CA_35  and  CB_38 
REMARK       I    between atoms: C_36  and  N_41 
REMARK   25  A    between atoms: CB_38  and  OG1_39 
REMARK   26  A    between atoms: CB_38  and  CG2_40 
REMARK   27  A    between atoms: N_41  and  CA_42 
REMARK   28  A    between atoms: CA_42  and  C_43 
REMARK   29  A    between atoms: CA_42  and  CB_45 
REMARK       I    between atoms: C_43  and  N_49 
REMARK   30  A    between atoms: CB_45  and  CG_46 
REMARK   31  A    between atoms: CG_46  and  CD1_47 
REMARK   32  A    between atoms: CG_46  and  CD2_48 
REMARK   33  A    between atoms: N_49  and  CA_50 
REMARK   34  A    between atoms: CA_50  and  C_51 
REMARK   35  A    between atoms: CA_50  and  CB_53 
REMARK       I    between atoms: C_51  and  N_57 
REMARK   36  A    between atoms: CB_53  and  CG_54 
REMARK       I    between atoms: CG_54  and  ND2_56 
REMARK   37  A    between atoms: N_57  and  CA_58 
REMARK   38  A    between atoms: CA_58  and  C_59 
REMARK   39  A    between atoms: CA_58  and  CB_61 
REMARK       I    between atoms: C_59  and  N_62 
REMARK   40  A    between atoms: N_62  and  CA_63 
REMARK   41  A    between atoms: CA_63  and  C_64 
REMARK   42  A    between atoms: CA_63  and  CB_66 
REMARK       I    between atoms: C_64  and  N_67 
REMARK   43  A    between atoms: N_67  and  CA_68 
REMARK   44  A    between atoms: CA_68  and  C_69 
REMARK   45  A    between atoms: CA_68  and  CB_71 
REMARK       I    between atoms: C_69  and  N_76 
REMARK   46  A    between atoms: CB_71  and  CG_72 
REMARK   47  A    between atoms: CG_72  and  CD_73 
REMARK   48  A    between atoms: CD_73  and  CE_74 
REMARK   49  A    between atoms: CE_74  and  NZ_75 
REMARK   50  A    between atoms: N_76  and  CA_77 
REMARK   51  A    between atoms: CA_77  and  C_78 
REMARK   52  A    between atoms: CA_77  and  CB_80 
REMARK       I    between atoms: C_78  and  N_83 
REMARK   53  A    between atoms: CB_80  and  CG1_81 
REMARK   54  A    between atoms: CB_80  and  CG2_82 
REMARK   55  A    between atoms: CA_84  and  C_85 
REMARK       I    between atoms: C_85  and  N_90 
REMARK   56  A    between atoms: N_90  and  CA_91 
REMARK   57  A    between atoms: CA_91  and  C_92 
REMARK   58  A    between atoms: CA_91  and  CB_94 
REMARK       I    between atoms: C_92  and  N_95 
REMARK   59  A    between atoms: N_95  and  CA_96 
REMARK   60  A    between atoms: CA_96  and  C_97 
REMARK   61  A    between atoms: CA_96  and  CB_99 
REMARK   62  A    between atoms: CB_99  and  CG_100 
ROOT
ATOM      1  CA  ASN d   1     142.027  48.499  -8.849  0.00  0.00     0.097 C 
ATOM      2  H56 ASN d   1     141.093  48.296  -8.305  0.00  0.00     0.088 H 
ENDROOT
BRANCH   1   3
ATOM      3  N   ASN d   1     141.700  49.454  -9.912  0.00  0.00    -0.346 N 
ATOM      4  C   LEU d   1     140.911  50.497  -9.681  0.00  0.00     0.241 C 
ATOM      5  O   LEU d   1     140.421  50.718  -8.573  0.00  0.00    -0.271 OA
ATOM      6  H55 ASN d   1     142.078  49.318 -10.828  0.00  0.00     0.163 HD
BRANCH   4   7
ATOM      7  CA  LEU d   1     140.596  51.425 -10.863  0.00  0.00     0.089 C 
ATOM      8  H45 LEU d   1     140.920  50.979 -11.815  0.00  0.00     0.087 H 
BRANCH   7   9
ATOM      9  N   LEU d   1     139.148  51.550 -10.799  0.00  0.00    -0.346 N 
ATOM     10  C   THR d   1     138.371  50.814 -11.583  0.00  0.00     0.243 C 
ATOM     11  O   THR d   1     138.821  50.044 -12.429  0.00  0.00    -0.271 OA
ATOM     12  H44 LEU d   1     138.734  52.197 -10.158  0.00  0.00     0.163 HD
BRANCH  10  13
ATOM     13  CA  THR d   1     136.861  50.964 -11.384  0.00  0.00     0.113 C 
ATOM     14  H38 THR d   1     136.653  51.925 -10.892  0.00  0.00     0.091 H 
BRANCH  13  15
ATOM     15  N   THR d   1     136.138  50.929 -12.654  0.00  0.00    -0.344 N 
ATOM     16  C   GLY d   1     135.539  51.996 -13.171  0.00  0.00     0.236 C 
ATOM     17  O   GLY d   1     135.545  53.108 -12.631  0.00  0.00    -0.272 OA
ATOM     18  H37 THR d   1     136.092  50.065 -13.155  0.00  0.00     0.163 HD
BRANCH  16  19
ATOM     19  CA  GLY d   1     134.849  51.772 -14.502  0.00  0.00     0.069 C 
ATOM     20  H35 GLY d   1     135.599  51.911 -15.294  0.00  0.00     0.078 H 
ATOM     21  H36 GLY d   1     134.485  50.734 -14.519  0.00  0.00     0.078 H 
BRANCH  19  22
ATOM     22  N   GLY d   1     133.723  52.639 -14.804  0.00  0.00    -0.351 N 
ATOM     23  C   ILE d   1     132.492  52.283 -14.446  0.00  0.00     0.241 C 
ATOM     24  O   ILE d   1     132.257  51.244 -13.839  0.00  0.00    -0.271 OA
ATOM     25  H34 GLY d   1     133.873  53.505 -15.282  0.00  0.00     0.163 HD
BRANCH  23  26
ATOM     26  CA  ILE d   1     131.347  53.224 -14.828  0.00  0.00     0.092 C 
ATOM     27  H24 ILE d   1     131.701  54.011 -15.510  0.00  0.00     0.088 H 
BRANCH  26  28
ATOM     28  N   ILE d   1     130.357  52.376 -15.499  0.00  0.00    -0.346 N 
ATOM     29  C   LEU d   1     130.536  51.954 -16.746  0.00  0.00     0.241 C 
ATOM     30  O   LEU d   1     131.515  52.279 -17.415  0.00  0.00    -0.271 OA
ATOM     31  H23 ILE d   1     129.528  52.109 -15.007  0.00  0.00     0.163 HD
BRANCH  29  32
ATOM     32  CA  LEU d   1     129.456  51.033 -17.315  0.00  0.00     0.089 C 
ATOM     33  H13 LEU d   1     128.674  50.955 -16.546  0.00  0.00     0.087 H 
BRANCH  32  34
ATOM     34  N   LEU d   1     128.782  51.461 -18.553  0.00  0.00    -0.346 N 
ATOM     35  C   GLU d   1     127.780  52.325 -18.518  0.00  0.00     0.241 C 
ATOM     36  O   GLU d   1     127.376  52.760 -17.455  0.00  0.00    -0.271 OA
ATOM     37  H12 LEU d   1     129.086  51.094 -19.432  0.00  0.00     0.163 HD
BRANCH  35  38
ATOM     38  CA  GLU d   1     127.052  52.636 -19.832  0.00  0.00     0.090 C 
ATOM     39  H7  GLU d   1     127.226  51.826 -20.556  0.00  0.00     0.087 H 
BRANCH  38  40
ATOM     40  N   GLU d   1     125.638  52.753 -19.525  0.00  0.00    -0.346 N 
ATOM     41  C   GLY d   1     124.871  51.807 -19.043  0.00  0.00     0.243 C 
ATOM     42  O   GLY d   1     125.296  50.711 -18.809  0.00  0.00    -0.272 OA
ATOM     43  H6  GLU d   1     125.209  53.640 -19.698  0.00  0.00     0.163 HD
BRANCH  41  44
ATOM     44  CA  GLY d   1     123.432  52.220 -18.815  0.00  0.00     0.152 C 
ATOM     45  H4  GLY d   1     123.411  53.067 -18.113  0.00  0.00     0.090 H 
ATOM     46  H5  GLY d   1     122.993  52.529 -19.775  0.00  0.00     0.090 H 
BRANCH  44  47
ATOM     47  N   GLY d   1     122.622  51.104 -18.250  0.00  0.00    -0.071 N 
ATOM     48  H1  GLY d   1     121.673  51.414 -18.112  0.00  0.00     0.274 HD
ATOM     49  H2  GLY d   1     123.014  50.818 -17.366  0.00  0.00     0.274 HD
ATOM     50  H3  GLY d   1     122.631  50.325 -18.890  0.00  0.00     0.274 HD
ENDBRANCH  44  47
ENDBRANCH  41  44
ENDBRANCH  38  40
BRANCH  38  51
ATOM     51  CB  GLU d   1     127.511  53.971 -20.428  0.00  0.00    -0.029 C 
ATOM     52  H8  GLU d   1     128.330  53.785 -21.138  0.00  0.00     0.037 H 
ATOM     53  H9  GLU d   1     127.869  54.622 -19.617  0.00  0.00     0.037 H 
BRANCH  51  54
ATOM     54  CG  GLU d   1     126.356  54.675 -21.166  0.00  0.00     0.018 C 
ATOM     55  H10 GLU d   1     125.631  55.026 -20.417  0.00  0.00     0.049 H 
ATOM     56  H11 GLU d   1     125.872  53.942 -21.828  0.00  0.00     0.049 H 
BRANCH  54  57
ATOM     57  CD  GLU d   1     126.783  55.854 -21.999  0.00  0.00     0.172 C 
ATOM     58  OE1 GLU d   1     125.958  56.770 -22.231  0.00  0.00    -0.648 OA
ATOM     59  OE2 GLU d   1     127.951  55.857 -22.431  0.00  0.00    -0.648 OA
ENDBRANCH  54  57
ENDBRANCH  51  54
ENDBRANCH  38  51
ENDBRANCH  35  38
ENDBRANCH  32  34
BRANCH  32  60
ATOM     60  CB  LEU d   1     130.062  49.634 -17.528  0.00  0.00    -0.035 C 
ATOM     61  H14 LEU d   1     130.956  49.761 -18.157  0.00  0.00     0.037 H 
ATOM     62  H15 LEU d   1     129.314  49.037 -18.070  0.00  0.00     0.037 H 
BRANCH  60  63
ATOM     63  CG  LEU d   1     130.485  48.821 -16.305  0.00  0.00    -0.059 C 
ATOM     64  H16 LEU d   1     131.141  49.430 -15.666  0.00  0.00     0.038 H 
BRANCH  63  65
ATOM     65  CD1 LEU d   1     129.256  48.390 -15.504  0.00  0.00    -0.073 C 
ATOM     66  H17 LEU d   1     129.576  47.806 -14.628  0.00  0.00     0.028 H 
ATOM     67  H18 LEU d   1     128.603  47.772 -16.138  0.00  0.00     0.028 H 
ATOM     68  H19 LEU d   1     128.705  49.281 -15.170  0.00  0.00     0.028 H 
ENDBRANCH  63  65
BRANCH  63  69
ATOM     69  CD2 LEU d   1     131.236  47.594 -16.787  0.00  0.00    -0.073 C 
ATOM     70  H20 LEU d   1     132.119  47.907 -17.363  0.00  0.00     0.028 H 
ATOM     71  H21 LEU d   1     130.577  46.989 -17.427  0.00  0.00     0.028 H 
ATOM     72  H22 LEU d   1     131.556  46.996 -15.921  0.00  0.00     0.028 H 
ENDBRANCH  63  69
ENDBRANCH  60  63
ENDBRANCH  32  60
ENDBRANCH  29  32
ENDBRANCH  26  28
BRANCH  26  73
ATOM     73  CB  ILE d   1     130.765  53.873 -13.550  0.00  0.00    -0.030 C 
ATOM     74  H25 ILE d   1     130.260  53.100 -12.953  0.00  0.00     0.043 H 
BRANCH  73  75
ATOM     75  CG1 ILE d   1     129.744  54.947 -13.944  0.00  0.00    -0.063 C 
ATOM     76  H26 ILE d   1     129.095  54.533 -14.730  0.00  0.00     0.033 H 
ATOM     77  H27 ILE d   1     130.292  55.814 -14.340  0.00  0.00     0.033 H 
BRANCH  75  78
ATOM     78  CD1 ILE d   1     128.863  55.423 -12.802  0.00  0.00    -0.076 C 
ATOM     79  H31 ILE d   1     128.165  56.188 -13.172  0.00  0.00     0.027 H 
ATOM     80  H32 ILE d   1     129.492  55.853 -12.009  0.00  0.00     0.027 H 
ATOM     81  H33 ILE d   1     128.294  54.572 -12.398  0.00  0.00     0.027 H 
ENDBRANCH  75  78
ENDBRANCH  73  75
BRANCH  73  82
ATOM     82  CG2 ILE d   1     131.894  54.491 -12.710  0.00  0.00    -0.071 C 
ATOM     83  H28 ILE d   1     132.617  53.709 -12.436  0.00  0.00     0.028 H 
ATOM     84  H29 ILE d   1     131.471  54.935 -11.797  0.00  0.00     0.028 H 
ATOM     85  H30 ILE d   1     132.402  55.271 -13.296  0.00  0.00     0.028 H 
ENDBRANCH  73  82
ENDBRANCH  26  73
ENDBRANCH  23  26
ENDBRANCH  19  22
ENDBRANCH  16  19
ENDBRANCH  13  15
BRANCH  13  86
ATOM     86  CB  THR d   1     136.420  49.803 -10.457  0.00  0.00     0.060 C 
ATOM     87  H39 THR d   1     136.507  48.855 -11.009  0.00  0.00     0.086 H 
BRANCH  86  88
ATOM     88  OG1 THR d   1     135.058  49.993 -10.060  0.00  0.00    -0.393 OA
ATOM     89  H40 THR d   1     134.792  49.279  -9.492  0.00  0.00     0.210 HD
ENDBRANCH  86  88
BRANCH  86  90
ATOM     90  CG2 THR d   1     137.298  49.734  -9.211  0.00  0.00    -0.050 C 
ATOM     91  H41 THR d   1     136.964  48.903  -8.572  0.00  0.00     0.031 H 
ATOM     92  H42 THR d   1     137.219  50.679  -8.654  0.00  0.00     0.031 H 
ATOM     93  H43 THR d   1     138.344  49.570  -9.508  0.00  0.00     0.031 H 
ENDBRANCH  86  90
ENDBRANCH  13  86
ENDBRANCH  10  13
ENDBRANCH   7   9
BRANCH   7  94
ATOM     94  CB  LEU d   1     141.248  52.802 -10.687  0.00  0.00    -0.035 C 
ATOM     95  H46 LEU d   1     141.300  53.006  -9.607  0.00  0.00     0.037 H 
ATOM     96  H47 LEU d   1     140.591  53.541 -11.168  0.00  0.00     0.037 H 
BRANCH  94  97
ATOM     97  CG  LEU d   1     142.657  52.998 -11.260  0.00  0.00    -0.059 C 
ATOM     98  H48 LEU d   1     143.392  52.583 -10.554  0.00  0.00     0.038 H 
BRANCH  97  99
ATOM     99  CD1 LEU d   1     142.797  52.276 -12.593  0.00  0.00    -0.073 C 
ATOM    100  H49 LEU d   1     143.812  52.428 -12.987  0.00  0.00     0.028 H 
ATOM    101  H50 LEU d   1     142.063  52.678 -13.307  0.00  0.00     0.028 H 
ATOM    102  H51 LEU d   1     142.617  51.200 -12.448  0.00  0.00     0.028 H 
ENDBRANCH  97  99
BRANCH  97 103
ATOM    103  CD2 LEU d   1     142.924  54.494 -11.437  0.00  0.00    -0.073 C 
ATOM    104  H52 LEU d   1     142.820  55.002 -10.467  0.00  0.00     0.028 H 
ATOM    105  H53 LEU d   1     142.200  54.914 -12.151  0.00  0.00     0.028 H 
ATOM    106  H54 LEU d   1     143.945  54.642 -11.820  0.00  0.00     0.028 H 
ENDBRANCH  97 103
ENDBRANCH  94  97
ENDBRANCH   7  94
ENDBRANCH   4   7
ENDBRANCH   1   3
BRANCH   1 107
ATOM    107  C   ASN d   1     143.050  48.984  -7.826  0.00  0.00     0.241 C 
ATOM    108  O   ASN d   1     144.030  49.635  -8.173  0.00  0.00    -0.271 OA
ATOM    109  N   ALA d   1     142.822  48.626  -6.564  0.00  0.00    -0.346 N 
ATOM    110  H61 ALA d   1     142.008  48.083  -6.359  0.00  0.00     0.163 HD
BRANCH 109 111
ATOM    111  CA  ALA d   1     143.713  48.994  -5.469  0.00  0.00     0.086 C 
ATOM    112  H62 ALA d   1     143.904  50.076  -5.524  0.00  0.00     0.086 H 
BRANCH 111 113
ATOM    113  C   ALA d   1     145.051  48.261  -5.558  0.00  0.00     0.240 C 
ATOM    114  O   ALA d   1     145.094  47.059  -5.817  0.00  0.00    -0.271 OA
ATOM    115  N   ALA d   1     146.139  48.990  -5.341  0.00  0.00    -0.346 N 
ATOM    116  H66 ALA d   1     146.042  49.967  -5.150  0.00  0.00     0.163 HD
BRANCH 115 117
ATOM    117  CA  ALA d   1     147.478  48.398  -5.374  0.00  0.00     0.086 C 
ATOM    118  H67 ALA d   1     147.500  47.584  -6.114  0.00  0.00     0.086 H 
BRANCH 117 119
ATOM    119  C   ALA d   1     147.805  47.837  -3.991  0.00  0.00     0.240 C 
ATOM    120  O   ALA d   1     147.507  48.468  -2.974  0.00  0.00    -0.271 OA
ATOM    121  N   LYS d   1     148.407  46.652  -3.952  0.00  0.00    -0.346 N 
ATOM    122  H71 LYS d   1     148.608  46.174  -4.807  0.00  0.00     0.163 HD
BRANCH 121 123
ATOM    123  CA  LYS d   1     148.779  46.039  -2.684  0.00  0.00     0.089 C 
ATOM    124  H72 LYS d   1     148.006  46.270  -1.937  0.00  0.00     0.087 H 
BRANCH 123 125
ATOM    125  C   LYS d   1     150.120  46.596  -2.210  0.00  0.00     0.241 C 
ATOM    126  O   LYS d   1     151.084  46.647  -2.978  0.00  0.00    -0.271 OA
ATOM    127  N   VAL d   1     150.178  47.020  -0.951  0.00  0.00    -0.346 N 
ATOM    128  H84 VAL d   1     149.358  46.974  -0.380  0.00  0.00     0.163 HD
BRANCH 127 129
ATOM    129  CA  VAL d   1     151.411  47.549  -0.389  0.00  0.00     0.092 C 
ATOM    130  H85 VAL d   1     151.831  48.306  -1.068  0.00  0.00     0.088 H 
BRANCH 129 131
ATOM    131  C   VAL d   1     152.390  46.390  -0.220  0.00  0.00     0.243 C 
ATOM    132  O   VAL d   1     151.978  45.228  -0.144  0.00  0.00    -0.271 OA
ATOM    133  N   PRO d   1     153.699  46.685  -0.174  0.00  0.00    -0.337 N 
ATOM    134  CA  PRO d   1     154.693  45.619  -0.004  0.00  0.00     0.091 C 
ATOM    135  CD  PRO d   1     154.349  48.004  -0.271  0.00  0.00    -0.001 C 
ATOM    136  CB  PRO d   1     156.026  46.387   0.006  0.00  0.00    -0.036 C 
ATOM    137  H93 PRO d   1     154.662  44.914  -0.848  0.00  0.00     0.087 H 
ATOM    138  CG  PRO d   1     155.634  47.775   0.475  0.00  0.00    -0.048 C 
ATOM    139  H94 PRO d   1     156.466  46.423  -1.001  0.00  0.00     0.036 H 
ATOM    140  H95 PRO d   1     156.741  45.924   0.703  0.00  0.00     0.036 H 
ATOM    141  H96 PRO d   1     156.395  48.520   0.199  0.00  0.00     0.035 H 
ATOM    142  H97 PRO d   1     155.475  47.799   1.563  0.00  0.00     0.035 H 
ATOM    143  H98 PRO d   1     153.742  48.785   0.210  0.00  0.00     0.064 H 
ATOM    144  H99 PRO d   1     154.539  48.280  -1.319  0.00  0.00     0.064 H 
BRANCH 134 145
ATOM    145  C   PRO d   1     154.434  44.850   1.300  0.00  0.00     0.241 C 
ATOM    146  O   PRO d   1     154.098  45.446   2.317  0.00  0.00    -0.271 OA
ATOM    147  N   ALA d   1     154.590  43.531   1.265  0.00  0.00    -0.346 N 
ATOM    148 0H10 ALA d   1     154.876  43.094   0.412  0.00  0.00     0.163 HD
BRANCH 147 149
ATOM    149  CA  ALA d   1     154.352  42.706   2.448  0.00  0.00     0.086 C 
ATOM    150 1H10 ALA d   1     153.397  43.038   2.881  0.00  0.00     0.086 H 
BRANCH 149 151
ATOM    151  C   ALA d   1     155.412  42.820   3.561  0.00  0.00     0.240 C 
ATOM    152  O   ALA d   1     156.562  43.185   3.307  0.00  0.00    -0.271 OA
ATOM    153  N   ASP d   1     154.993  42.484   4.787  0.00  0.00    -0.344 N 
ATOM    154 5H10 ASP d   1     154.039  42.201   4.885  0.00  0.00     0.163 HD
BRANCH 153 155
ATOM    155  CA  ASP d   1     155.818  42.497   5.998  0.00  0.00     0.105 C 
ATOM    156 6H10 ASP d   1     156.197  43.520   6.137  0.00  0.00     0.090 H 
BRANCH 155 157
ATOM    157  C   ASP d   1     157.014  41.553   5.913  0.00  0.00     0.197 C 
ATOM    158  O   ASP d   1     157.076  40.602   6.722  0.00  0.00    -0.646 OA
ATOM    159  OXT ASP d   1     157.883  41.772   5.044  0.00  0.00    -0.646 OA
ENDBRANCH 155 157
BRANCH 155 160
ATOM    160  CB  ASP d   1     154.977  42.111   7.226  0.00  0.00     0.044 C 
ATOM    161 7H10 ASP d   1     155.648  41.709   8.000  0.00  0.00     0.053 H 
ATOM    162 8H10 ASP d   1     154.254  41.337   6.929  0.00  0.00     0.053 H 
BRANCH 160 163
ATOM    163  CG  ASP d   1     154.215  43.290   7.807  0.00  0.00     0.175 C 
ATOM    164  OD1 ASP d   1     154.766  44.400   7.770  0.00  0.00    -0.648 OA
ATOM    165  OD2 ASP d   1     153.086  43.105   8.304  0.00  0.00    -0.648 OA
ENDBRANCH 160 163
ENDBRANCH 155 160
ENDBRANCH 153 155
ENDBRANCH 149 151
BRANCH 149 166
ATOM    166  CB  ALA d   1     154.203  41.248   2.039  0.00  0.00    -0.049 C 
ATOM    167 2H10 ALA d   1     154.024  40.633   2.933  0.00  0.00     0.030 H 
ATOM    168 3H10 ALA d   1     155.124  40.911   1.540  0.00  0.00     0.030 H 
ATOM    169 4H10 ALA d   1     153.353  41.146   1.348  0.00  0.00     0.030 H 
ENDBRANCH 149 166
ENDBRANCH 147 149
ENDBRANCH 134 145
ENDBRANCH 129 131
BRANCH 129 170
ATOM    170  CB  VAL d   1     151.171  48.179   1.004  0.00  0.00    -0.033 C 
ATOM    171  H86 VAL d   1     152.132  48.540   1.400  0.00  0.00     0.042 H 
BRANCH 170 172
ATOM    172  CG1 VAL d   1     150.217  49.360   0.890  0.00  0.00    -0.071 C 
ATOM    173  H87 VAL d   1     150.055  49.798   1.886  0.00  0.00     0.028 H 
ATOM    174  H88 VAL d   1     149.256  49.017   0.480  0.00  0.00     0.028 H 
ATOM    175  H89 VAL d   1     150.651  50.119   0.222  0.00  0.00     0.028 H 
ENDBRANCH 170 172
BRANCH 170 176
ATOM    176  CG2 VAL d   1     150.613  47.132   1.954  0.00  0.00    -0.071 C 
ATOM    177  H90 VAL d   1     151.315  46.288   2.023  0.00  0.00     0.028 H 
ATOM    178  H91 VAL d   1     149.644  46.773   1.576  0.00  0.00     0.028 H 
ATOM    179  H92 VAL d   1     150.476  47.577   2.950  0.00  0.00     0.028 H 
ENDBRANCH 170 176
ENDBRANCH 129 170
ENDBRANCH 127 129
ENDBRANCH 123 125
BRANCH 123 180
ATOM    180  CB  LYS d   1     148.898  44.515  -2.827  0.00  0.00    -0.038 C 
ATOM    181  H73 LYS d   1     149.236  44.108  -1.863  0.00  0.00     0.036 H 
ATOM    182  H74 LYS d   1     149.652  44.303  -3.599  0.00  0.00     0.036 H 
BRANCH 180 183
ATOM    183  CG  LYS d   1     147.609  43.799  -3.217  0.00  0.00    -0.061 C 
ATOM    184  H75 LYS d   1     147.377  44.028  -4.268  0.00  0.00     0.033 H 
ATOM    185  H76 LYS d   1     146.792  44.159  -2.574  0.00  0.00     0.033 H 
BRANCH 183 186
ATOM    186  CD  LYS d   1     147.737  42.284  -3.056  0.00  0.00    -0.043 C 
ATOM    187  H77 LYS d   1     148.584  41.935  -3.665  0.00  0.00     0.035 H 
ATOM    188  H78 LYS d   1     146.810  41.812  -3.413  0.00  0.00     0.035 H 
BRANCH 186 189
ATOM    189  CE  LYS d   1     147.973  41.862  -1.599  0.00  0.00     0.080 C 
ATOM    190  H79 LYS d   1     148.676  42.575  -1.144  0.00  0.00     0.075 H 
ATOM    191  H80 LYS d   1     148.420  40.857  -1.600  0.00  0.00     0.075 H 
BRANCH 189 192
ATOM    192  NZ  LYS d   1     146.732  41.823  -0.754  0.00  0.00    -0.079 N 
ATOM    193  H81 LYS d   1     146.972  41.538   0.183  0.00  0.00     0.274 HD
ATOM    194  H82 LYS d   1     146.078  41.165  -1.148  0.00  0.00     0.274 HD
ATOM    195  H83 LYS d   1     146.313  42.739  -0.730  0.00  0.00     0.274 HD
ENDBRANCH 189 192
ENDBRANCH 186 189
ENDBRANCH 183 186
ENDBRANCH 180 183
ENDBRANCH 123 180
ENDBRANCH 121 123
ENDBRANCH 117 119
BRANCH 117 196
ATOM    196  CB  ALA d   1     148.512  49.462  -5.764  0.00  0.00    -0.049 C 
ATOM    197  H68 ALA d   1     149.514  49.009  -5.786  0.00  0.00     0.030 H 
ATOM    198  H69 ALA d   1     148.495  50.278  -5.026  0.00  0.00     0.030 H 
ATOM    199  H70 ALA d   1     148.269  49.862  -6.759  0.00  0.00     0.030 H 
ENDBRANCH 117 196
ENDBRANCH 115 117
ENDBRANCH 111 113
BRANCH 111 200
ATOM    200  CB  ALA d   1     143.047  48.677  -4.132  0.00  0.00    -0.049 C 
ATOM    201  H63 ALA d   1     143.723  48.956  -3.310  0.00  0.00     0.030 H 
ATOM    202  H64 ALA d   1     142.829  47.600  -4.077  0.00  0.00     0.030 H 
ATOM    203  H65 ALA d   1     142.110  49.246  -4.045  0.00  0.00     0.030 H 
ENDBRANCH 111 200
ENDBRANCH 109 111
ENDBRANCH   1 107
BRANCH   1 204
ATOM    204  CB  ASN d   1     142.530  47.179  -9.446  0.00  0.00     0.036 C 
ATOM    205  H57 ASN d   1     142.743  46.480  -8.624  0.00  0.00     0.051 H 
ATOM    206  H58 ASN d   1     143.455  47.377 -10.007  0.00  0.00     0.051 H 
BRANCH 204 207
ATOM    207  CG  ASN d   1     141.522  46.532 -10.385  0.00  0.00     0.217 C 
ATOM    208  OD1 ASN d   1     140.314  46.539 -10.129  0.00  0.00    -0.274 OA
ATOM    209  ND2 ASN d   1     142.016  45.954 -11.472  0.00  0.00    -0.370 N 
ATOM    210  H59 ASN d   1     141.402  45.512 -12.126  0.00  0.00     0.159 HD
ATOM    211  H60 ASN d   1     143.002  45.960 -11.637  0.00  0.00     0.159 HD
ENDBRANCH 204 207
ENDBRANCH   1 204
TORSDOF 62
