REMARK  32 active torsions:
REMARK  status: ('A' for Active; 'I' for Inactive)
REMARK    1  A    between atoms: CA_2  and  N_1 
REMARK    2  A    between atoms: CA_2  and  CB_5 
REMARK    3  A    between atoms: C_3  and  CA_2 
REMARK       I    between atoms: N_10  and  C_3 
REMARK    4  A    between atoms: CB_5  and  CG_6 
REMARK    5  A    between atoms: CG_6  and  CD_7 
REMARK       I    between atoms: CD_7  and  NE2_9 
REMARK    6  A    between atoms: CA_11  and  N_10 
REMARK    7  A    between atoms: CA_11  and  CB_14 
REMARK    8  A    between atoms: C_12  and  CA_11 
REMARK       I    between atoms: N_17  and  C_12 
REMARK    9  A    between atoms: CB_14  and  CG2_16 
REMARK   10  A    between atoms: CB_14  and  OG1_15 
REMARK   11  A    between atoms: CA_18  and  N_17 
REMARK   12  A    between atoms: CA_18  and  CB_21 
REMARK   13  A    between atoms: C_19  and  CA_18 
REMARK       I    between atoms: N_22  and  C_19 
REMARK   14  A    between atoms: CA_23  and  N_22 
REMARK   15  A    between atoms: CA_23  and  CB_26 
REMARK   16  A    between atoms: C_24  and  CA_23 
REMARK       I    between atoms: N_33  and  C_24 
REMARK   17  A    between atoms: CB_26  and  CG_27 
REMARK   18  A    between atoms: CG_27  and  CD_28 
REMARK   19  A    between atoms: CD_28  and  NE_29 
REMARK       I    between atoms: NE_29  and  CZ_30 
REMARK       I    between atoms: CZ_30  and  NH1_31 
REMARK   20  A    between atoms: CA_34  and  N_33 
REMARK   21  A    between atoms: CA_34  and  CB_35 
REMARK   22  A    between atoms: C_42  and  CA_34 
REMARK   23  A    between atoms: CB_35  and  CG_36 
REMARK   24  A    between atoms: CG_36  and  CD_37 
REMARK   25  A    between atoms: CD_37  and  CE_38 
REMARK   26  A    between atoms: CE_38  and  NZ_39 
REMARK   27  A    between atoms: NZ_39  and  CH1_40 
REMARK   28  A    between atoms: NZ_39  and  CH2_41 
REMARK       I    between atoms: C_42  and  N_44 
REMARK   29  A    between atoms: N_44  and  CA_45 
REMARK   30  A    between atoms: CA_45  and  CB_48 
REMARK   31  A    between atoms: CA_45  and  C_46 
REMARK   32  A    between atoms: CB_48  and  OG_49 
ROOT
ATOM      1  CA  ARG d   1      -0.678  22.869   6.279  0.00  0.00     0.089 C 
ATOM      2  H24 ARG d   1      -1.616  23.013   6.835  0.00  0.00     0.087 H 
ENDROOT
BRANCH   1   3
ATOM      3  N   ARG d   1      -0.396  24.033   5.451  0.00  0.00    -0.346 N 
ATOM      4  C   ALA d   1      -0.678  25.270   5.845  0.00  0.00     0.240 C 
ATOM      5  O   ALA d   1      -1.214  25.534   6.921  0.00  0.00    -0.271 OA
ATOM      6  H23 ARG d   1       0.025  23.896   4.554  0.00  0.00     0.163 HD
BRANCH   4   7
ATOM      7  CA  ALA d   1      -0.300  26.367   4.868  0.00  0.00     0.086 C 
ATOM      8  H19 ALA d   1      -0.439  25.983   3.847  0.00  0.00     0.086 H 
BRANCH   7   9
ATOM      9  N   ALA d   1      -1.147  27.538   5.031  0.00  0.00    -0.346 N 
ATOM     10  C   THR d   1      -1.181  28.500   4.115  0.00  0.00     0.243 C 
ATOM     11  O   THR d   1      -0.504  28.470   3.085  0.00  0.00    -0.271 OA
ATOM     12  H18 ALA d   1      -1.716  27.621   5.849  0.00  0.00     0.163 HD
BRANCH  10  13
ATOM     13  CA  THR d   1      -2.125  29.662   4.406  0.00  0.00     0.113 C 
ATOM     14  H12 THR d   1      -1.879  30.082   5.392  0.00  0.00     0.091 H 
BRANCH  13  15
ATOM     15  N   THR d   1      -2.001  30.734   3.416  0.00  0.00    -0.344 N 
ATOM     16  C   GLN d   1      -1.831  32.006   3.781  0.00  0.00     0.249 C 
ATOM     17  O   GLN d   1      -1.768  32.360   4.955  0.00  0.00    -0.271 OA
ATOM     18  H11 THR d   1      -2.045  30.507   2.443  0.00  0.00     0.163 HD
BRANCH  16  19
ATOM     19  CA  GLN d   1      -1.714  33.046   2.668  0.00  0.00     0.176 C 
ATOM     20  H4  GLN d   1      -2.150  33.989   3.031  0.00  0.00     0.099 H 
BRANCH  19  21
ATOM     21  N   GLN d   1      -0.293  33.300   2.301  0.00  0.00    -0.066 N 
ATOM     22  H1  GLN d   1      -0.254  33.989   1.566  0.00  0.00     0.275 HD
ATOM     23  H2  GLN d   1       0.130  32.443   1.981  0.00  0.00     0.275 HD
ATOM     24  H3  GLN d   1       0.207  33.640   3.108  0.00  0.00     0.275 HD
ENDBRANCH  19  21
BRANCH  19  25
ATOM     25  CB  GLN d   1      -2.498  32.590   1.440  0.00  0.00    -0.022 C 
ATOM     26  H5  GLN d   1      -2.214  31.552   1.214  0.00  0.00     0.037 H 
ATOM     27  H6  GLN d   1      -2.224  33.238   0.594  0.00  0.00     0.037 H 
BRANCH  25  28
ATOM     28  CG  GLN d   1      -3.997  32.646   1.617  0.00  0.00     0.011 C 
ATOM     29  H7  GLN d   1      -4.272  33.650   1.973  0.00  0.00     0.047 H 
ATOM     30  H8  GLN d   1      -4.291  31.897   2.367  0.00  0.00     0.047 H 
BRANCH  28  31
ATOM     31  CD  GLN d   1      -4.749  32.364   0.327  0.00  0.00     0.215 C 
ATOM     32  NE2 GLN d   1      -5.475  33.366  -0.165  0.00  0.00    -0.370 N 
ATOM     33  H9  GLN d   1      -5.992  33.240  -1.012  0.00  0.00     0.159 HD
ATOM     34  H10 GLN d   1      -5.503  34.244   0.312  0.00  0.00     0.159 HD
ATOM     35  OE1 GLN d   1      -4.676  31.261  -0.225  0.00  0.00    -0.274 OA
ENDBRANCH  28  31
ENDBRANCH  25  28
ENDBRANCH  19  25
ENDBRANCH  16  19
ENDBRANCH  13  15
BRANCH  13  36
ATOM     36  CB  THR d   1      -3.558  29.078   4.452  0.00  0.00     0.060 C 
ATOM     37  H13 THR d   1      -3.652  28.428   5.335  0.00  0.00     0.086 H 
BRANCH  36  38
ATOM     38  CG2 THR d   1      -4.590  30.189   4.542  0.00  0.00    -0.050 C 
ATOM     39  H15 THR d   1      -5.598  29.751   4.573  0.00  0.00     0.031 H 
ATOM     40  H16 THR d   1      -4.502  30.844   3.662  0.00  0.00     0.031 H 
ATOM     41  H17 THR d   1      -4.417  30.777   5.455  0.00  0.00     0.031 H 
ENDBRANCH  36  38
BRANCH  36  42
ATOM     42  OG1 THR d   1      -3.799  28.306   3.266  0.00  0.00    -0.393 OA
ATOM     43  H14 THR d   1      -3.155  27.610   3.206  0.00  0.00     0.210 HD
ENDBRANCH  36  42
ENDBRANCH  13  36
ENDBRANCH  10  13
ENDBRANCH   7   9
BRANCH   7  44
ATOM     44  CB  ALA d   1       1.178  26.741   5.050  0.00  0.00    -0.049 C 
ATOM     45  H20 ALA d   1       1.802  25.844   4.923  0.00  0.00     0.030 H 
ATOM     46  H21 ALA d   1       1.330  27.154   6.058  0.00  0.00     0.030 H 
ATOM     47  H22 ALA d   1       1.461  27.493   4.299  0.00  0.00     0.030 H 
ENDBRANCH   7  44
ENDBRANCH   4   7
ENDBRANCH   1   3
BRANCH   1  48
ATOM     48  CB  ARG d   1      -0.790  21.628   5.386  0.00  0.00    -0.036 C 
ATOM     49  H25 ARG d   1       0.189  21.463   4.912  0.00  0.00     0.036 H 
ATOM     50  H26 ARG d   1      -1.542  21.836   4.611  0.00  0.00     0.036 H 
BRANCH  48  51
ATOM     51  CG  ARG d   1      -1.189  20.344   6.090  0.00  0.00    -0.048 C 
ATOM     52  H27 ARG d   1      -2.231  20.426   6.433  0.00  0.00     0.035 H 
ATOM     53  H28 ARG d   1      -0.529  20.184   6.956  0.00  0.00     0.035 H 
BRANCH  51  54
ATOM     54  CD  ARG d   1      -1.064  19.156   5.132  0.00  0.00     0.009 C 
ATOM     55  H29 ARG d   1      -0.016  19.074   4.809  0.00  0.00     0.064 H 
ATOM     56  H30 ARG d   1      -1.704  19.342   4.257  0.00  0.00     0.064 H 
BRANCH  54  57
ATOM     57  NE  ARG d   1      -1.464  17.893   5.741  0.00  0.00    -0.227 N 
ATOM     58  CZ  ARG d   1      -2.724  17.540   5.982  0.00  0.00     0.665 C 
ATOM     59  NH2 ARG d   1      -2.993  16.365   6.537  0.00  0.00    -0.235 N 
ATOM     60  NH1 ARG d   1      -3.719  18.356   5.664  0.00  0.00    -0.235 N 
ATOM     61  H34 ARG d   1      -2.225  15.726   6.787  0.00  0.00     0.174 HD
ATOM     62  H35 ARG d   1      -3.970  16.092   6.718  0.00  0.00     0.174 HD
ATOM     63  H32 ARG d   1      -4.693  18.078   5.852  0.00  0.00     0.174 HD
ATOM     64  H33 ARG d   1      -3.518  19.268   5.229  0.00  0.00     0.174 HD
ATOM     65  H31 ARG d   1      -0.721  17.229   6.002  0.00  0.00     0.177 HD
ENDBRANCH  54  57
ENDBRANCH  51  54
ENDBRANCH  48  51
ENDBRANCH   1  48
BRANCH   1  66
ATOM     66  C   ARG d   1       0.492  22.715   7.248  0.00  0.00     0.241 C 
ATOM     67  O   ARG d   1       1.642  22.935   6.875  0.00  0.00    -0.271 OA
ATOM     68  N   MLY d   1       0.195  22.356   8.488  0.00  0.00    -0.346 N 
ATOM     69  H36 MLY d   1      -0.763  22.211   8.737  0.00  0.00     0.163 HD
BRANCH  68  70
ATOM     70  CA  MLY d   1       1.226  22.167   9.496  0.00  0.00     0.089 C 
ATOM     71  H37 MLY d   1       2.149  22.669   9.170  0.00  0.00     0.087 H 
BRANCH  70  72
ATOM     72  CB  MLY d   1       0.777  22.768  10.829  0.00  0.00    -0.038 C 
ATOM     73  H38 MLY d   1       0.280  21.978  11.411  0.00  0.00     0.036 H 
ATOM     74  H39 MLY d   1       0.059  23.574  10.617  0.00  0.00     0.036 H 
BRANCH  72  75
ATOM     75  CG  MLY d   1       1.896  23.343  11.673  0.00  0.00    -0.061 C 
ATOM     76  H40 MLY d   1       2.295  24.241  11.178  0.00  0.00     0.033 H 
ATOM     77  H41 MLY d   1       2.695  22.593  11.770  0.00  0.00     0.033 H 
BRANCH  75  78
ATOM     78  CD  MLY d   1       1.396  23.719  13.058  0.00  0.00    -0.042 C 
ATOM     79  H42 MLY d   1       2.222  23.614  13.777  0.00  0.00     0.035 H 
ATOM     80  H43 MLY d   1       0.577  23.040  13.339  0.00  0.00     0.035 H 
BRANCH  78  81
ATOM     81  CE  MLY d   1       0.886  25.151  13.096  0.00  0.00     0.083 C 
ATOM     82  H44 MLY d   1      -0.163  25.166  12.764  0.00  0.00     0.075 H 
ATOM     83  H45 MLY d   1       1.495  25.765  12.416  0.00  0.00     0.075 H 
BRANCH  81  84
ATOM     84  NZ  MLY d   1       0.966  25.712  14.444  0.00  0.00    -0.079 N 
ATOM     85  H46 MLY d   1       1.818  25.398  14.881  0.00  0.00     0.278 HD
BRANCH  84  86
ATOM     86  CH1 MLY d   1       0.995  27.171  14.373  0.00  0.00     0.066 C 
ATOM     87  H47 MLY d   1       1.055  27.586  15.390  0.00  0.00     0.068 H 
ATOM     88  H48 MLY d   1       0.079  27.533  13.883  0.00  0.00     0.068 H 
ATOM     89  H49 MLY d   1       1.873  27.492  13.793  0.00  0.00     0.068 H 
ENDBRANCH  84  86
BRANCH  84  90
ATOM     90  CH2 MLY d   1      -0.169  25.223  15.230  0.00  0.00     0.066 C 
ATOM     91  H50 MLY d   1      -0.150  24.123  15.256  0.00  0.00     0.068 H 
ATOM     92  H51 MLY d   1      -1.108  25.563  14.769  0.00  0.00     0.068 H 
ATOM     93  H52 MLY d   1      -0.101  25.615  16.255  0.00  0.00     0.068 H 
ENDBRANCH  84  90
ENDBRANCH  81  84
ENDBRANCH  78  81
ENDBRANCH  75  78
ENDBRANCH  72  75
ENDBRANCH  70  72
BRANCH  70  94
ATOM     94  C   MLY d   1       1.495  20.677   9.652  0.00  0.00     0.241 C 
ATOM     95  O   MLY d   1       0.668  19.949  10.201  0.00  0.00    -0.271 OA
ATOM     96  N   SER d   1       2.641  20.220   9.158  0.00  0.00    -0.346 N 
ATOM     97  H53 SER d   1       3.279  20.855   8.722  0.00  0.00     0.163 HD
BRANCH  96  98
ATOM     98  CA  SER d   1       2.981  18.804   9.243  0.00  0.00     0.083 C 
ATOM     99  H54 SER d   1       2.139  18.223   8.839  0.00  0.00     0.086 H 
BRANCH  98 100
ATOM    100  CB  SER d   1       4.227  18.508   8.404  0.00  0.00     0.041 C 
ATOM    101  H56 SER d   1       4.032  18.794   7.360  0.00  0.00     0.077 H 
ATOM    102  H57 SER d   1       4.446  17.431   8.455  0.00  0.00     0.077 H 
BRANCH 100 103
ATOM    103  OG  SER d   1       5.351  19.231   8.879  0.00  0.00    -0.398 OA
ATOM    104  H58 SER d   1       5.169  20.162   8.834  0.00  0.00     0.209 HD
ENDBRANCH 100 103
ENDBRANCH  98 100
BRANCH  98 105
ATOM    105  C   SER d   1       3.217  18.368  10.685  0.00  0.00     0.112 C 
ATOM    106  O   SER d   1       3.151  19.233  11.583  0.00  0.00    -0.305 OA
ATOM    107  H55 SER d   1       3.437  17.329  10.925  0.00  0.00     0.146 H 
ENDBRANCH  98 105
ENDBRANCH  96  98
ENDBRANCH  70  94
ENDBRANCH  68  70
ENDBRANCH   1  66
TORSDOF 32
