REMARK WARNING: 32 MAX_TORS EXCEEDED!!!
REMARK  33 active torsions:
REMARK  status: ('A' for Active; 'I' for Inactive)
REMARK    1  A    between atoms: CA_2  and  N_1 
REMARK    2  A    between atoms: CA_2  and  CB_5 
REMARK    3  A    between atoms: C_3  and  CA_2 
REMARK       I    between atoms: N_10  and  C_3 
REMARK    4  A    between atoms: CB_5  and  CG_6 
REMARK    5  A    between atoms: CG_6  and  CD_7 
REMARK       I    between atoms: CD_7  and  NE2_9 
REMARK    6  A    between atoms: CA_11  and  N_10 
REMARK    7  A    between atoms: CA_11  and  CB_14 
REMARK    8  A    between atoms: C_12  and  CA_11 
REMARK       I    between atoms: N_17  and  C_12 
REMARK    9  A    between atoms: CB_14  and  CG2_16 
REMARK   10  A    between atoms: CB_14  and  OG1_15 
REMARK   11  A    between atoms: CA_18  and  N_17 
REMARK   12  A    between atoms: CA_18  and  CB_21 
REMARK   13  A    between atoms: C_19  and  CA_18 
REMARK       I    between atoms: N_22  and  C_19 
REMARK   14  A    between atoms: CA_23  and  N_22 
REMARK   15  A    between atoms: CA_23  and  CB_26 
REMARK   16  A    between atoms: C_24  and  CA_23 
REMARK       I    between atoms: N_33  and  C_24 
REMARK   17  A    between atoms: CB_26  and  CG_27 
REMARK   18  A    between atoms: CG_27  and  CD_28 
REMARK   19  A    between atoms: CD_28  and  NE_29 
REMARK       I    between atoms: NE_29  and  CZ_30 
REMARK       I    between atoms: CZ_30  and  NH1_31 
REMARK   20  A    between atoms: CA_34  and  N_33 
REMARK   21  A    between atoms: CA_34  and  CB_35 
REMARK   22  A    between atoms: C_40  and  CA_34 
REMARK   23  A    between atoms: CB_35  and  CG_36 
REMARK   24  A    between atoms: CG_36  and  CD_37 
REMARK   25  A    between atoms: CD_37  and  CE_38 
REMARK   26  A    between atoms: CE_38  and  NZ_39 
REMARK   27  A    between atoms: NZ_39  and  CM1_42 
REMARK   28  A    between atoms: NZ_39  and  CM2_43 
REMARK   29  A    between atoms: NZ_39  and  CM3_44 
REMARK       I    between atoms: C_40  and  N_45 
REMARK   30  A    between atoms: N_45  and  CA_46 
REMARK   31  A    between atoms: CA_46  and  CB_49 
REMARK   32  A    between atoms: CA_46  and  C_47 
REMARK   33  A    between atoms: CB_49  and  OG_50 
ROOT
ATOM      1  CA  ARG d   1      -0.588  22.923   6.381  0.00  0.00     0.089 C 
ATOM      2  H24 ARG d   1      -1.567  23.011   6.874  0.00  0.00     0.087 H 
ENDROOT
BRANCH   1   3
ATOM      3  N   ARG d   1      -0.373  24.091   5.548  0.00  0.00    -0.346 N 
ATOM      4  C   ALA d   1      -0.612  25.329   5.970  0.00  0.00     0.240 C 
ATOM      5  O   ALA d   1      -1.080  25.603   7.076  0.00  0.00    -0.271 OA
ATOM      6  H23 ARG d   1      -0.031  23.960   4.618  0.00  0.00     0.163 HD
BRANCH   4   7
ATOM      7  CA  ALA d   1      -0.287  26.444   4.977  0.00  0.00     0.086 C 
ATOM      8  H19 ALA d   1      -0.449  26.031   3.971  0.00  0.00     0.086 H 
BRANCH   7   9
ATOM      9  N   ALA d   1      -1.117  27.632   5.082  0.00  0.00    -0.346 N 
ATOM     10  C   THR d   1      -1.138  28.559   4.127  0.00  0.00     0.243 C 
ATOM     11  O   THR d   1      -0.471  28.495   3.089  0.00  0.00    -0.271 OA
ATOM     12  H18 ALA d   1      -1.688  27.756   5.894  0.00  0.00     0.163 HD
BRANCH  10  13
ATOM     13  CA  THR d   1      -2.080  29.734   4.364  0.00  0.00     0.113 C 
ATOM     14  H12 THR d   1      -1.816  30.181   5.333  0.00  0.00     0.091 H 
BRANCH  13  15
ATOM     15  N   THR d   1      -2.040  30.819   3.381  0.00  0.00    -0.344 N 
ATOM     16  C   GLN d   1      -1.850  32.081   3.772  0.00  0.00     0.249 C 
ATOM     17  O   GLN d   1      -1.649  32.399   4.943  0.00  0.00    -0.271 OA
ATOM     18  H11 THR d   1      -2.156  30.613   2.409  0.00  0.00     0.163 HD
BRANCH  16  19
ATOM     19  CA  GLN d   1      -1.850  33.184   2.712  0.00  0.00     0.176 C 
ATOM     20  H4  GLN d   1      -2.585  33.948   3.004  0.00  0.00     0.099 H 
BRANCH  19  21
ATOM     21  N   GLN d   1      -0.512  33.836   2.606  0.00  0.00    -0.066 N 
ATOM     22  H1  GLN d   1      -0.544  34.556   1.901  0.00  0.00     0.275 HD
ATOM     23  H2  GLN d   1       0.178  33.147   2.351  0.00  0.00     0.275 HD
ATOM     24  H3  GLN d   1      -0.266  34.245   3.494  0.00  0.00     0.275 HD
ENDBRANCH  19  21
BRANCH  19  25
ATOM     25  CB  GLN d   1      -2.266  32.594   1.353  0.00  0.00    -0.022 C 
ATOM     26  H5  GLN d   1      -1.621  31.729   1.138  0.00  0.00     0.037 H 
ATOM     27  H6  GLN d   1      -2.117  33.363   0.581  0.00  0.00     0.037 H 
BRANCH  25  28
ATOM     28  CG  GLN d   1      -3.781  32.116   1.299  0.00  0.00     0.011 C 
ATOM     29  H7  GLN d   1      -3.990  31.498   2.185  0.00  0.00     0.047 H 
ATOM     30  H8  GLN d   1      -3.932  31.516   0.390  0.00  0.00     0.047 H 
BRANCH  28  31
ATOM     31  CD  GLN d   1      -4.745  33.283   1.279  0.00  0.00     0.215 C 
ATOM     32  NE2 GLN d   1      -5.544  33.414   2.339  0.00  0.00    -0.370 N 
ATOM     33  H9  GLN d   1      -6.201  34.167   2.380  0.00  0.00     0.159 HD
ATOM     34  H10 GLN d   1      -5.486  32.759   3.093  0.00  0.00     0.159 HD
ATOM     35  OE1 GLN d   1      -4.776  34.063   0.318  0.00  0.00    -0.274 OA
ENDBRANCH  28  31
ENDBRANCH  25  28
ENDBRANCH  19  25
ENDBRANCH  16  19
ENDBRANCH  13  15
BRANCH  13  36
ATOM     36  CB  THR d   1      -3.485  29.123   4.471  0.00  0.00     0.060 C 
ATOM     37  H13 THR d   1      -3.562  28.561   5.413  0.00  0.00     0.086 H 
BRANCH  36  38
ATOM     38  CG2 THR d   1      -4.553  30.207   4.449  0.00  0.00    -0.050 C 
ATOM     39  H15 THR d   1      -5.548  29.744   4.527  0.00  0.00     0.031 H 
ATOM     40  H16 THR d   1      -4.484  30.771   3.507  0.00  0.00     0.031 H 
ATOM     41  H17 THR d   1      -4.400  30.890   5.297  0.00  0.00     0.031 H 
ENDBRANCH  36  38
BRANCH  36  42
ATOM     42  OG1 THR d   1      -3.698  28.235   3.366  0.00  0.00    -0.393 OA
ATOM     43  H14 THR d   1      -3.034  27.556   3.374  0.00  0.00     0.210 HD
ENDBRANCH  36  42
ENDBRANCH  13  36
ENDBRANCH  10  13
ENDBRANCH   7   9
BRANCH   7  44
ATOM     44  CB  ALA d   1       1.172  26.825   5.093  0.00  0.00    -0.049 C 
ATOM     45  H20 ALA d   1       1.794  25.922   5.013  0.00  0.00     0.030 H 
ATOM     46  H21 ALA d   1       1.349  27.307   6.066  0.00  0.00     0.030 H 
ATOM     47  H22 ALA d   1       1.434  27.524   4.285  0.00  0.00     0.030 H 
ENDBRANCH   7  44
ENDBRANCH   4   7
ENDBRANCH   1   3
BRANCH   1  48
ATOM     48  CB  ARG d   1      -0.568  21.642   5.510  0.00  0.00    -0.036 C 
ATOM     49  H25 ARG d   1       0.450  21.515   5.112  0.00  0.00     0.036 H 
ATOM     50  H26 ARG d   1      -1.272  21.785   4.677  0.00  0.00     0.036 H 
BRANCH  48  51
ATOM     51  CG  ARG d   1      -0.972  20.298   6.276  0.00  0.00    -0.048 C 
ATOM     52  H27 ARG d   1      -1.996  20.403   6.665  0.00  0.00     0.035 H 
ATOM     53  H28 ARG d   1      -0.276  20.142   7.113  0.00  0.00     0.035 H 
BRANCH  51  54
ATOM     54  CD  ARG d   1      -0.913  19.026   5.310  0.00  0.00     0.009 C 
ATOM     55  H29 ARG d   1       0.141  18.794   5.100  0.00  0.00     0.064 H 
ATOM     56  H30 ARG d   1      -1.428  19.275   4.370  0.00  0.00     0.064 H 
BRANCH  54  57
ATOM     57  NE  ARG d   1      -1.546  17.839   5.889  0.00  0.00    -0.227 N 
ATOM     58  CZ  ARG d   1      -2.861  17.703   6.072  0.00  0.00     0.665 C 
ATOM     59  NH2 ARG d   1      -3.355  16.591   6.598  0.00  0.00    -0.235 N 
ATOM     60  NH1 ARG d   1      -3.687  18.679   5.723  0.00  0.00    -0.235 N 
ATOM     61  H34 ARG d   1      -2.722  15.826   6.873  0.00  0.00     0.174 HD
ATOM     62  H35 ARG d   1      -4.372  16.492   6.732  0.00  0.00     0.174 HD
ATOM     63  H32 ARG d   1      -4.701  18.571   5.866  0.00  0.00     0.174 HD
ATOM     64  H33 ARG d   1      -3.315  19.546   5.309  0.00  0.00     0.174 HD
ATOM     65  H31 ARG d   1      -0.937  17.059   6.173  0.00  0.00     0.177 HD
ENDBRANCH  54  57
ENDBRANCH  51  54
ENDBRANCH  48  51
ENDBRANCH   1  48
BRANCH   1  66
ATOM     66  C   ARG d   1       0.499  22.816   7.445  0.00  0.00     0.241 C 
ATOM     67  O   ARG d   1       1.668  23.028   7.115  0.00  0.00    -0.271 OA
ATOM     68  N   M3L d   1       0.134  22.521   8.687  0.00  0.00    -0.346 N 
ATOM     69  H36 M3L d   1      -0.835  22.388   8.898  0.00  0.00     0.163 HD
BRANCH  68  70
ATOM     70  CA  M3L d   1       1.126  22.388   9.750  0.00  0.00     0.089 C 
ATOM     71  H37 M3L d   1       2.081  22.789   9.378  0.00  0.00     0.087 H 
BRANCH  70  72
ATOM     72  CB  M3L d   1       0.708  23.188  11.003  0.00  0.00    -0.038 C 
ATOM     73  H38 M3L d   1      -0.217  22.750  11.406  0.00  0.00     0.036 H 
ATOM     74  H39 M3L d   1       0.522  24.231  10.707  0.00  0.00     0.036 H 
BRANCH  72  75
ATOM     75  CG  M3L d   1       1.818  23.175  12.149  0.00  0.00    -0.061 C 
ATOM     76  H40 M3L d   1       2.737  23.628  11.750  0.00  0.00     0.033 H 
ATOM     77  H41 M3L d   1       2.016  22.131  12.431  0.00  0.00     0.033 H 
BRANCH  75  78
ATOM     78  CD  M3L d   1       1.384  23.980  13.458  0.00  0.00    -0.042 C 
ATOM     79  H42 M3L d   1       2.245  24.027  14.141  0.00  0.00     0.035 H 
ATOM     80  H43 M3L d   1       0.559  23.439  13.944  0.00  0.00     0.035 H 
BRANCH  78  81
ATOM     81  CE  M3L d   1       0.902  25.465  13.148  0.00  0.00     0.084 C 
ATOM     82  H44 M3L d   1       0.039  25.428  12.467  0.00  0.00     0.076 H 
ATOM     83  H45 M3L d   1       1.724  26.017  12.668  0.00  0.00     0.076 H 
BRANCH  81  84
ATOM     84  NZ  M3L d   1       0.500  26.182  14.415  0.00  0.00    -0.079 N 
BRANCH  84  85
ATOM     85  CM1 M3L d   1       1.746  26.174  15.256  0.00  0.00     0.067 C 
ATOM     86  H46 M3L d   1       1.547  26.681  16.211  0.00  0.00     0.068 H 
ATOM     87  H47 M3L d   1       2.552  26.700  14.723  0.00  0.00     0.068 H 
ATOM     88  H48 M3L d   1       2.051  25.135  15.449  0.00  0.00     0.068 H 
ENDBRANCH  84  85
BRANCH  84  89
ATOM     89  CM2 M3L d   1       0.068  27.534  13.946  0.00  0.00     0.067 C 
ATOM     90  H49 M3L d   1      -0.846  27.438  13.342  0.00  0.00     0.068 H 
ATOM     91  H50 M3L d   1       0.865  27.982  13.335  0.00  0.00     0.068 H 
ATOM     92  H51 M3L d   1      -0.133  28.177  14.816  0.00  0.00     0.068 H 
ENDBRANCH  84  89
BRANCH  84  93
ATOM     93  CM3 M3L d   1      -0.613  25.352  14.975  0.00  0.00     0.067 C 
ATOM     94  H52 M3L d   1      -0.217  24.377  15.296  0.00  0.00     0.068 H 
ATOM     95  H53 M3L d   1      -1.381  25.199  14.203  0.00  0.00     0.068 H 
ATOM     96  H54 M3L d   1      -1.058  25.870  15.838  0.00  0.00     0.068 H 
ENDBRANCH  84  93
ENDBRANCH  81  84
ENDBRANCH  78  81
ENDBRANCH  75  78
ENDBRANCH  72  75
ENDBRANCH  70  72
BRANCH  70  97
ATOM     97  C   M3L d   1       1.334  20.929  10.149  0.00  0.00     0.241 C 
ATOM     98  O   M3L d   1       0.378  20.296  10.602  0.00  0.00    -0.271 OA
ATOM     99  N   SER d   1       2.551  20.414   9.996  0.00  0.00    -0.346 N 
ATOM    100  H55 SER d   1       3.283  20.994   9.639  0.00  0.00     0.163 HD
BRANCH  99 101
ATOM    101  CA  SER d   1       2.849  19.019  10.337  0.00  0.00     0.083 C 
ATOM    102  H56 SER d   1       1.934  18.442  10.138  0.00  0.00     0.086 H 
BRANCH 101 103
ATOM    103  CB  SER d   1       3.967  18.477   9.420  0.00  0.00     0.041 C 
ATOM    104  H58 SER d   1       3.588  18.419   8.389  0.00  0.00     0.077 H 
ATOM    105  H59 SER d   1       4.255  17.472   9.762  0.00  0.00     0.077 H 
BRANCH 103 106
ATOM    106  OG  SER d   1       5.111  19.319   9.445  0.00  0.00    -0.398 OA
ATOM    107  H60 SER d   1       5.779  18.960   8.873  0.00  0.00     0.209 HD
ENDBRANCH 103 106
ENDBRANCH 101 103
BRANCH 101 108
ATOM    108  C   SER d   1       3.231  18.760  11.793  0.00  0.00     0.112 C 
ATOM    109  O   SER d   1       3.118  19.693  12.621  0.00  0.00    -0.305 OA
ATOM    110  H57 SER d   1       3.595  17.782  12.105  0.00  0.00     0.146 H 
ENDBRANCH 101 108
ENDBRANCH  99 101
ENDBRANCH  70  97
ENDBRANCH  68  70
ENDBRANCH   1  66
TORSDOF 33
