REMARK  1 active torsions:
REMARK  status: ('A' for Active; 'I' for Inactive)
REMARK    1  A    between atoms: C_1  and  C1_4 
ROOT
ATOM      1  C1  BEZ d   1       4.594  -4.520  29.438  0.00  0.00     0.040 A 
ATOM      2  C2  BEZ d   1       5.350  -5.248  30.396  0.00  0.00    -0.066 A 
ATOM      3  C3  BEZ d   1       6.040  -6.416  30.024  0.00  0.00    -0.082 A 
ATOM      4  C4  BEZ d   1       5.991  -6.870  28.706  0.00  0.00    -0.083 A 
ATOM      5  C5  BEZ d   1       5.257  -6.176  27.730  0.00  0.00    -0.082 A 
ATOM      6  C6  BEZ d   1       4.561  -5.013  28.080  0.00  0.00    -0.066 A 
ATOM      7  H1  BEZ d   1       5.395  -4.900  31.422  0.00  0.00     0.085 H 
ATOM      8  H2  BEZ d   1       6.612  -6.965  30.764  0.00  0.00     0.083 H 
ATOM      9  H3  BEZ d   1       6.527  -7.771  28.431  0.00  0.00     0.083 H 
ATOM     10  H4  BEZ d   1       5.230  -6.540  26.709  0.00  0.00     0.083 H 
ATOM     11  H5  BEZ d   1       3.993  -4.478  27.327  0.00  0.00     0.085 H 
ENDROOT
BRANCH   1  12
ATOM     12  C   BEZ d   1       3.844  -3.268  29.788  0.00  0.00     0.209 C 
ATOM     13  O1  BEZ d   1       4.107  -2.704  30.901  0.00  0.00    -0.644 OA
ATOM     14  O2  BEZ d   1       2.995  -2.784  28.994  0.00  0.00    -0.644 OA
ENDBRANCH   1  12
TORSDOF 1
