REMARK  6 active torsions:
REMARK  status: ('A' for Active; 'I' for Inactive)
REMARK    1  A    between atoms: C1_1  and  O17_16 
REMARK    2  A    between atoms: C5_5  and  C18_17 
REMARK    3  A    between atoms: C6_6  and  O16_15 
REMARK    4  A    between atoms: C13_12  and  C26_21 
REMARK    5  A    between atoms: C15_14  and  O20_19 
REMARK    6  A    between atoms: O20_19  and  C22_20 
ROOT
ATOM      1  C1  NON d   1       3.618  12.147  -2.049  0.00  0.00     0.102 C 
ATOM      2  C2  NON d   1       4.084  12.709  -0.859  0.00  0.00    -0.015 C 
ATOM      3  C3  NON d   1       3.194  12.916   0.190  0.00  0.00     0.093 C 
ATOM      4  C4  NON d   1       1.887  12.368   0.149  0.00  0.00     0.069 C 
ATOM      5  C5  NON d   1       1.411  11.791  -1.062  0.00  0.00     0.093 C 
ATOM      6  C6  NON d   1       2.316  11.641  -2.152  0.00  0.00     0.117 C 
ATOM      7  O8  NON d   1       3.611  13.676   1.259  0.00  0.00    -0.313 OA
ATOM      8  C9  NON d   1       2.888  13.717   2.433  0.00  0.00     0.071 C 
ATOM      9  C10 NON d   1       1.603  13.291   2.510  0.00  0.00     0.077 C 
ATOM     10  C11 NON d   1       1.068  12.460   1.377  0.00  0.00     0.199 C 
ATOM     11  C12 NON d   1       3.623  14.291   3.620  0.00  0.00     0.004 C 
ATOM     12  C13 NON d   1       2.636  15.112   4.462  0.00  0.00     0.044 C 
ATOM     13  O14 NON d   1       1.487  14.311   4.767  0.00  0.00    -0.352 OA
ATOM     14  C15 NON d   1       0.735  13.676   3.710  0.00  0.00     0.163 C 
ATOM     15  O31 NON d   1      -0.003  11.918   1.519  0.00  0.00    -0.287 OA
ATOM     16  H1  NON d   1       5.128  12.981  -0.754  0.00  0.00     0.092 H 
ATOM     17  H2  NON d   1       4.440  14.940   3.271  0.00  0.00     0.046 H 
ATOM     18  H3  NON d   1       4.038  13.474   4.229  0.00  0.00     0.046 H 
ATOM     19  H4  NON d   1       2.320  15.981   3.866  0.00  0.00     0.083 H 
ATOM     20  H5  NON d   1       0.354  12.732   4.127  0.00  0.00     0.137 H 
ENDROOT
BRANCH  14  21
ATOM     21  O20 NON d   1      -0.417  14.444   3.335  0.00  0.00    -0.362 OA
BRANCH  21  22
ATOM     22  C22 NON d   1      -1.500  14.620   4.226  0.00  0.00     0.007 C 
ATOM     23  H8  NON d   1      -2.274  15.236   3.745  0.00  0.00     0.066 H 
ATOM     24  H9  NON d   1      -1.146  15.122   5.139  0.00  0.00     0.066 H 
ATOM     25  H10 NON d   1      -1.923  13.639   4.487  0.00  0.00     0.066 H 
ENDBRANCH  21  22
ENDBRANCH  14  21
BRANCH  12  26
ATOM     26  C26 NON d   1       3.237  15.623   5.775  0.00  0.00    -0.052 C 
ATOM     27  H11 NON d   1       2.479  16.200   6.325  0.00  0.00     0.030 H 
ATOM     28  H12 NON d   1       4.101  16.268   5.556  0.00  0.00     0.030 H 
ATOM     29  H13 NON d   1       3.562  14.768   6.386  0.00  0.00     0.030 H 
ENDBRANCH  12  26
BRANCH   5  30
ATOM     30  C18 NON d   1      -0.004  11.364  -1.235  0.00  0.00     0.213 C 
ATOM     31  O19 NON d   1      -0.203  10.030  -1.304  0.00  0.00    -0.644 OA
ATOM     32  O30 NON d   1      -0.924  12.151  -1.297  0.00  0.00    -0.644 OA
ENDBRANCH   5  30
BRANCH   6  33
ATOM     33  O16 NON d   1       1.998  11.021  -3.355  0.00  0.00    -0.357 OA
ATOM     34  H6  NON d   1       1.746  10.120  -3.189  0.00  0.00     0.217 HD
ENDBRANCH   6  33
BRANCH   1  35
ATOM     35  O17 NON d   1       4.417  12.080  -3.179  0.00  0.00    -0.358 OA
ATOM     36  H7  NON d   1       4.518  11.172  -3.441  0.00  0.00     0.217 HD
ENDBRANCH   1  35
TORSDOF 6
