REMARK  7 active torsions:
REMARK  status: ('A' for Active; 'I' for Inactive)
REMARK    1  A    between atoms: C1_1  and  N1_12 
REMARK    2  A    between atoms: C2_2  and  O2_3 
REMARK    3  A    between atoms: C3_4  and  O3_5 
REMARK    4  A    between atoms: C4_6  and  O4_7 
REMARK    5  A    between atoms: C5_8  and  C6_10 
REMARK    6  A    between atoms: C6_10  and  O6_11 
REMARK       I    between atoms: N1_12  and  C7_13 
REMARK       I    between atoms: C7_13  and  N2_15 
REMARK       I    between atoms: N2_15  and  C8_16 
REMARK    7  A    between atoms: C8_16  and  C9_17 
ROOT
ATOM      1  C1  AZC d   1      33.416  22.821  27.821  0.00  0.00     0.135 C 
ATOM      2  C2  AZC d   1      33.716  23.044  26.330  0.00  0.00     0.104 C 
ATOM      3  C3  AZC d   1      32.604  22.432  25.465  0.00  0.00     0.091 C 
ATOM      4  C4  AZC d   1      32.373  20.967  25.843  0.00  0.00     0.089 C 
ATOM      5  C5  AZC d   1      32.152  20.817  27.354  0.00  0.00     0.088 C 
ATOM      6  O5  AZC d   1      33.249  21.416  28.061  0.00  0.00    -0.354 OA
ATOM      7  H1  AZC d   1      32.490  23.352  28.085  0.00  0.00     0.122 H 
ATOM      8  H2  AZC d   1      34.666  22.547  26.085  0.00  0.00     0.093 H 
ATOM      9  H4  AZC d   1      31.674  22.995  25.635  0.00  0.00     0.091 H 
ATOM     10  H6  AZC d   1      33.261  20.384  25.557  0.00  0.00     0.091 H 
ATOM     11  H8  AZC d   1      31.213  21.315  27.638  0.00  0.00     0.090 H 
ENDROOT
BRANCH   1  12
ATOM     12  N1  AZC d   1      34.504  23.314  28.655  0.00  0.00    -0.314 N 
ATOM     13  C7  AZC d   1      34.236  23.890  29.827  0.00  0.00     0.324 C 
ATOM     14  O7  AZC d   1      33.067  24.045  30.189  0.00  0.00    -0.247 OA
ATOM     15  N2  AZC d   1      35.246  24.326  30.590  0.00  0.00    -0.280 N 
ATOM     16  C8  AZC d   1      36.528  24.160  30.251  0.00  0.00     0.221 C 
ATOM     17  H13 AZC d   1      35.033  24.794  31.447  0.00  0.00     0.173 HD
ATOM     18  O8  AZC d   1      36.891  23.866  29.114  0.00  0.00    -0.274 OA
ATOM     19  H12 AZC d   1      35.451  23.220  28.349  0.00  0.00     0.167 HD
BRANCH  16  20
ATOM     20  C9  AZC d   1      37.549  24.345  31.364  0.00  0.00    -0.002 C 
ATOM     21  H14 AZC d   1      38.561  24.184  30.964  0.00  0.00     0.040 H 
ATOM     22  H15 AZC d   1      37.352  23.619  32.167  0.00  0.00     0.040 H 
ATOM     23  H16 AZC d   1      37.472  25.366  31.766  0.00  0.00     0.040 H 
ENDBRANCH  16  20
ENDBRANCH   1  12
BRANCH   2  24
ATOM     24  O2  AZC d   1      33.845  24.424  26.056  0.00  0.00    -0.389 OA
ATOM     25  H3  AZC d   1      34.030  24.546  25.132  0.00  0.00     0.210 HD
ENDBRANCH   2  24
BRANCH   3  26
ATOM     26  O3  AZC d   1      32.947  22.515  24.098  0.00  0.00    -0.390 OA
ATOM     27  H5  AZC d   1      33.063  23.426  23.857  0.00  0.00     0.210 HD
ENDBRANCH   3  26
BRANCH   5  28
ATOM     28  C6  AZC d   1      32.078  19.336  27.724  0.00  0.00     0.043 C 
ATOM     29  H9  AZC d   1      31.184  18.890  27.262  0.00  0.00     0.078 H 
ATOM     30  H10 AZC d   1      32.014  19.238  28.818  0.00  0.00     0.078 H 
BRANCH  28  31
ATOM     31  O6  AZC d   1      33.225  18.661  27.263  0.00  0.00    -0.398 OA
ATOM     32  H11 AZC d   1      33.998  19.043  27.662  0.00  0.00     0.209 HD
ENDBRANCH  28  31
ENDBRANCH   5  28
BRANCH   4  33
ATOM     33  O4  AZC d   1      31.254  20.471  25.143  0.00  0.00    -0.390 OA
ATOM     34  H7  AZC d   1      30.487  20.982  25.372  0.00  0.00     0.210 HD
ENDBRANCH   4  33
TORSDOF 7
