REMARK  8 active torsions:
REMARK  status: ('A' for Active; 'I' for Inactive)
REMARK    1  A    between atoms: C2_2  and  N1_1 
REMARK    2  A    between atoms: C2_2  and  C4_4 
REMARK    3  A    between atoms: C7_7  and  C10_10 
REMARK    4  A    between atoms: C10_10  and  C11_11 
REMARK    5  A    between atoms: N15_15  and  C16_16 
REMARK    6  A    between atoms: C19_19  and  N21_21 
REMARK    7  A    between atoms: N21_21  and  S22_22 
REMARK    8  A    between atoms: S22_22  and  C23_23 
ROOT
ATOM      1  C11 C02 d   1      16.632 -12.590  21.074  0.00  0.00     0.111 A 
ATOM      2  N12 C02 d   1      16.308 -13.613  21.871  0.00  0.00    -0.233 NA
ATOM      3  C13 C02 d   1      17.415 -14.310  22.147  0.00  0.00     0.087 A 
ATOM      4  C14 C02 d   1      18.471 -13.688  21.491  0.00  0.00     0.064 A 
ATOM      5  N15 C02 d   1      17.962 -12.630  20.838  0.00  0.00    -0.337 N 
ATOM      6  C17 C02 d   1      19.758 -14.220  21.613  0.00  0.00    -0.052 A 
ATOM      7  C18 C02 d   1      19.986 -15.378  22.392  0.00  0.00    -0.054 A 
ATOM      8  C19 C02 d   1      18.925 -15.990  23.038  0.00  0.00     0.045 A 
ATOM      9  C20 C02 d   1      17.636 -15.445  22.910  0.00  0.00    -0.027 A 
ATOM     10  H14 C02 d   1      20.588 -13.741  21.106  0.00  0.00     0.087 H 
ATOM     11  H15 C02 d   1      20.987 -15.785  22.483  0.00  0.00     0.087 H 
ATOM     12  H16 C02 d   1      16.803 -15.919  23.416  0.00  0.00     0.090 H 
ENDROOT
BRANCH   1  13
ATOM     13  C10 C02 d   1      15.644 -11.563  20.538  0.00  0.00     0.014 C 
ATOM     14  H9  C02 d   1      16.098 -10.563  20.593  0.00  0.00     0.051 H 
ATOM     15  H10 C02 d   1      15.408 -11.802  19.491  0.00  0.00     0.051 H 
BRANCH  13  16
ATOM     16  C7  C02 d   1      14.371 -11.574  21.348  0.00  0.00    -0.051 A 
ATOM     17  C6  C02 d   1      14.023 -10.453  22.109  0.00  0.00    -0.076 A 
ATOM     18  C5  C02 d   1      12.856 -10.463  22.875  0.00  0.00    -0.069 A 
ATOM     19  H6  C02 d   1      14.660  -9.576  22.104  0.00  0.00     0.084 H 
ATOM     20  C4  C02 d   1      12.026 -11.583  22.894  0.00  0.00     0.007 A 
ATOM     21  H5  C02 d   1      12.592  -9.590  23.462  0.00  0.00     0.085 H 
ATOM     22  C9  C02 d   1      12.366 -12.703  22.133  0.00  0.00    -0.069 A 
ATOM     23  C8  C02 d   1      13.536 -12.699  21.362  0.00  0.00    -0.076 A 
ATOM     24  H8  C02 d   1      11.724 -13.577  22.139  0.00  0.00     0.085 H 
ATOM     25  H7  C02 d   1      13.796 -13.571  20.773  0.00  0.00     0.084 H 
BRANCH  20  26
ATOM     26  C2  C02 d   1      10.826 -11.585  23.707  0.00  0.00     0.102 C 
ATOM     27  N3  C02 d   1       9.961 -12.625  23.648  0.00  0.00    -0.385 N 
ATOM     28  H3  C02 d   1      10.137 -13.405  22.999  0.00  0.00     0.157 HD
ATOM     29  H4  C02 d   1       9.127 -12.636  24.252  0.00  0.00     0.157 HD
BRANCH  26  30
ATOM     30  N1  C02 d   1      10.580 -10.568  24.565  0.00  0.00    -0.385 N 
ATOM     31  H1  C02 d   1       9.726 -10.575  25.140  0.00  0.00     0.157 HD
ATOM     32  H2  C02 d   1      11.247  -9.787  24.643  0.00  0.00     0.157 HD
ENDBRANCH  26  30
ENDBRANCH  20  26
ENDBRANCH  13  16
ENDBRANCH   1  13
BRANCH   5  33
ATOM     33  C16 C02 d   1      18.718 -11.676  20.007  0.00  0.00    -0.012 C 
ATOM     34  H11 C02 d   1      18.031 -10.918  19.603  0.00  0.00     0.057 H 
ATOM     35  H12 C02 d   1      19.200 -12.214  19.177  0.00  0.00     0.057 H 
ATOM     36  H13 C02 d   1      19.487 -11.184  20.621  0.00  0.00     0.057 H 
ENDBRANCH   5  33
BRANCH   8  37
ATOM     37  N21 C02 d   1      19.108 -17.004  23.964  0.00  0.00    -0.281 N 
ATOM     38  H17 C02 d   1      19.025 -17.946  23.640  0.00  0.00     0.179 HD
BRANCH  37  39
ATOM     39  S22 C02 d   1      19.473 -16.762  25.655  0.00  0.00     0.263 S 
ATOM     40  O30 C02 d   1      20.001 -17.943  26.271  0.00  0.00    -0.200 OA
ATOM     41  O29 C02 d   1      18.275 -16.390  26.361  0.00  0.00    -0.200 OA
BRANCH  39  42
ATOM     42  C23 C02 d   1      20.662 -15.509  25.767  0.00  0.00     0.079 A 
ATOM     43  C28 C02 d   1      20.358 -14.291  26.372  0.00  0.00    -0.060 A 
ATOM     44  C27 C02 d   1      21.324 -13.287  26.443  0.00  0.00    -0.082 A 
ATOM     45  H22 C02 d   1      19.371 -14.124  26.788  0.00  0.00     0.085 H 
ATOM     46  C26 C02 d   1      22.595 -13.502  25.905  0.00  0.00    -0.083 A 
ATOM     47  H21 C02 d   1      21.088 -12.340  26.916  0.00  0.00     0.083 H 
ATOM     48  C25 C02 d   1      22.901 -14.719  25.298  0.00  0.00    -0.082 A 
ATOM     49  H20 C02 d   1      23.345 -12.721  25.960  0.00  0.00     0.083 H 
ATOM     50  C24 C02 d   1      21.933 -15.725  25.228  0.00  0.00    -0.060 A 
ATOM     51  H19 C02 d   1      23.888 -14.885  24.881  0.00  0.00     0.083 H 
ATOM     52  H18 C02 d   1      22.168 -16.672  24.756  0.00  0.00     0.085 H 
ENDBRANCH  39  42
ENDBRANCH  37  39
ENDBRANCH   8  37
TORSDOF 8
