REMARK  12 active torsions:
REMARK  status: ('A' for Active; 'I' for Inactive)
REMARK       I    between atoms: C1_1  and  N2_3 
REMARK       I    between atoms: C1_1  and  N9_14 
REMARK    1  A    between atoms: N2_3  and  C3_4 
REMARK    2  A    between atoms: C6_7  and  O41_31 
REMARK    3  A    between atoms: N9_14  and  C10_15 
REMARK    4  A    between atoms: C13_17  and  C16_24 
REMARK    5  A    between atoms: N11_19  and  C15_20 
REMARK    6  A    between atoms: C16_24  and  C17_21 
REMARK    7  A    between atoms: C16_24  and  C18_22 
REMARK    8  A    between atoms: C16_24  and  C19_23 
REMARK    9  A    between atoms: C22_27  and  C25_30 
REMARK   10  A    between atoms: O41_31  and  C42_32 
REMARK   11  A    between atoms: C42_32  and  C43_33 
REMARK   12  A    between atoms: C43_33  and  N44_34 
ROOT
ATOM      1  C1  B96 d   1      32.850  33.999  15.352  0.00  0.00     0.326 C 
ATOM      2  O1  B96 d   1      31.963  34.537  16.031  0.00  0.00    -0.247 OA
ATOM      3  N2  B96 d   1      34.077  33.892  15.840  0.00  0.00    -0.308 N 
ATOM      4  N9  B96 d   1      32.603  33.468  14.156  0.00  0.00    -0.293 N 
ATOM      5  H1  B96 d   1      34.767  33.382  15.328  0.00  0.00     0.170 HD
ATOM      6  H8  B96 d   1      33.365  32.996  13.712  0.00  0.00     0.172 HD
ENDROOT
BRANCH   3   7
ATOM      7  C3  B96 d   1      34.403  34.449  16.993  0.00  0.00     0.047 A 
ATOM      8  C4  B96 d   1      35.497  35.257  16.994  0.00  0.00     0.004 A 
ATOM      9  C5  B96 d   1      35.901  35.880  18.143  0.00  0.00     0.010 A 
ATOM     10  C31 B96 d   1      36.222  35.444  15.820  0.00  0.00    -0.070 A 
ATOM     11  C6  B96 d   1      35.181  35.697  19.281  0.00  0.00     0.080 A 
ATOM     12  C34 B96 d   1      37.055  36.714  18.117  0.00  0.00    -0.069 A 
ATOM     13  C7  B96 d   1      34.070  34.873  19.277  0.00  0.00    -0.048 A 
ATOM     14  C8  B96 d   1      33.680  34.245  18.087  0.00  0.00    -0.054 A 
ATOM     15  H6  B96 d   1      33.505  34.714  20.188  0.00  0.00     0.087 H 
ATOM     16  H7  B96 d   1      32.805  33.605  18.060  0.00  0.00     0.087 H 
ATOM     17  C33 B96 d   1      37.783  36.897  16.951  0.00  0.00    -0.082 A 
ATOM     18  H5  B96 d   1      37.370  37.215  19.025  0.00  0.00     0.085 H 
ATOM     19  C32 B96 d   1      37.371  36.271  15.806  0.00  0.00    -0.082 A 
ATOM     20  H4  B96 d   1      38.665  37.527  16.947  0.00  0.00     0.083 H 
ATOM     21  H3  B96 d   1      37.926  36.409  14.885  0.00  0.00     0.083 H 
ATOM     22  H2  B96 d   1      35.904  34.952  14.908  0.00  0.00     0.084 H 
BRANCH  11  23
ATOM     23  O41 B96 d   1      35.561  36.318  20.355  0.00  0.00    -0.349 OA
BRANCH  23  24
ATOM     24  C42 B96 d   1      34.870  35.970  21.544  0.00  0.00     0.049 C 
ATOM     25  H26 B96 d   1      35.194  34.977  21.888  0.00  0.00     0.077 H 
ATOM     26  H27 B96 d   1      33.786  35.958  21.357  0.00  0.00     0.077 H 
BRANCH  24  27
ATOM     27  C43 B96 d   1      35.204  37.026  22.608  0.00  0.00     0.103 C 
ATOM     28  H28 B96 d   1      36.138  37.524  22.310  0.00  0.00     0.079 H 
ATOM     29  H29 B96 d   1      35.354  36.507  23.566  0.00  0.00     0.079 H 
BRANCH  27  30
ATOM     30  N44 B96 d   1      34.166  38.079  22.813  0.00  0.00    -0.065 N 
ATOM     31  C45 B96 d   1      34.094  38.898  21.608  0.00  0.00     0.103 C 
ATOM     32  C46 B96 d   1      33.833  40.393  21.846  0.00  0.00     0.042 C 
ATOM     33  H31 B96 d   1      33.281  38.507  20.979  0.00  0.00     0.079 H 
ATOM     34  H32 B96 d   1      35.050  38.801  21.073  0.00  0.00     0.079 H 
ATOM     35  O47 B96 d   1      34.725  40.908  22.803  0.00  0.00    -0.388 OA
ATOM     36  H33 B96 d   1      32.802  40.527  22.205  0.00  0.00     0.076 H 
ATOM     37  H34 B96 d   1      33.965  40.938  20.899  0.00  0.00     0.076 H 
ATOM     38  C48 B96 d   1      34.353  40.345  24.006  0.00  0.00     0.042 C 
ATOM     39  C49 B96 d   1      34.601  38.844  23.997  0.00  0.00     0.103 C 
ATOM     40  H35 B96 d   1      33.283  40.533  24.177  0.00  0.00     0.076 H 
ATOM     41  H36 B96 d   1      34.940  40.803  24.816  0.00  0.00     0.076 H 
ATOM     42  H37 B96 d   1      35.685  38.691  24.106  0.00  0.00     0.079 H 
ATOM     43  H38 B96 d   1      34.081  38.421  24.869  0.00  0.00     0.079 H 
ATOM     44  H30 B96 d   1      33.265  37.662  22.987  0.00  0.00     0.280 HD
ENDBRANCH  27  30
ENDBRANCH  24  27
ENDBRANCH  23  24
ENDBRANCH  11  23
ENDBRANCH   3   7
BRANCH   4  45
ATOM     45  C10 B96 d   1      31.449  33.497  13.486  0.00  0.00     0.135 A 
ATOM     46  C14 B96 d   1      30.623  34.543  13.372  0.00  0.00    -0.012 A 
ATOM     47  C13 B96 d   1      29.648  34.184  12.514  0.00  0.00     0.066 A 
ATOM     48  H9  B96 d   1      30.720  35.503  13.877  0.00  0.00     0.092 H 
ATOM     49  N12 B96 d   1      29.843  32.943  12.096  0.00  0.00    -0.169 NA
ATOM     50  N11 B96 d   1      31.002  32.522  12.731  0.00  0.00    -0.217 N 
BRANCH  47  51
ATOM     51  C16 B96 d   1      28.657  34.969  12.147  0.00  0.00    -0.005 C 
BRANCH  51  52
ATOM     52  C17 B96 d   1      27.903  35.654  13.318  0.00  0.00    -0.064 C 
ATOM     53  H10 B96 d   1      27.097  36.286  12.916  0.00  0.00     0.028 H 
ATOM     54  H11 B96 d   1      28.605  36.276  13.892  0.00  0.00     0.028 H 
ATOM     55  H12 B96 d   1      27.472  34.885  13.976  0.00  0.00     0.028 H 
ENDBRANCH  51  52
BRANCH  51  56
ATOM     56  C18 B96 d   1      27.570  34.241  11.375  0.00  0.00    -0.064 C 
ATOM     57  H13 B96 d   1      28.017  33.720  10.516  0.00  0.00     0.028 H 
ATOM     58  H14 B96 d   1      26.826  34.967  11.017  0.00  0.00     0.028 H 
ATOM     59  H15 B96 d   1      27.080  33.509  12.034  0.00  0.00     0.028 H 
ENDBRANCH  51  56
BRANCH  51  60
ATOM     60  C19 B96 d   1      29.090  36.109  11.219  0.00  0.00    -0.064 C 
ATOM     61  H16 B96 d   1      29.884  36.695  11.704  0.00  0.00     0.028 H 
ATOM     62  H17 B96 d   1      28.228  36.760  11.012  0.00  0.00     0.028 H 
ATOM     63  H18 B96 d   1      29.468  35.690  10.275  0.00  0.00     0.028 H 
ENDBRANCH  51  60
ENDBRANCH  47  51
BRANCH  50  64
ATOM     64  C15 B96 d   1      31.589  31.335  12.555  0.00  0.00     0.060 A 
ATOM     65  C20 B96 d   1      31.751  30.902  11.307  0.00  0.00    -0.055 A 
ATOM     66  C21 B96 d   1      32.386  29.713  11.046  0.00  0.00    -0.075 A 
ATOM     67  H19 B96 d   1      31.375  31.498  10.483  0.00  0.00     0.087 H 
ATOM     68  C22 B96 d   1      32.855  28.962  12.080  0.00  0.00    -0.062 A 
ATOM     69  H20 B96 d   1      32.513  29.375  10.024  0.00  0.00     0.084 H 
ATOM     70  C23 B96 d   1      32.689  29.399  13.387  0.00  0.00    -0.075 A 
ATOM     71  C24 B96 d   1      32.042  30.608  13.617  0.00  0.00    -0.055 A 
ATOM     72  H21 B96 d   1      33.058  28.806  14.216  0.00  0.00     0.084 H 
ATOM     73  H22 B96 d   1      31.899  30.969  14.629  0.00  0.00     0.087 H 
BRANCH  68  74
ATOM     74  C25 B96 d   1      33.555  27.691  11.799  0.00  0.00    -0.051 C 
ATOM     75  H23 B96 d   1      33.584  27.521  10.713  0.00  0.00     0.033 H 
ATOM     76  H24 B96 d   1      33.020  26.862  12.286  0.00  0.00     0.033 H 
ATOM     77  H25 B96 d   1      34.582  27.744  12.189  0.00  0.00     0.033 H 
ENDBRANCH  68  74
ENDBRANCH  50  64
ENDBRANCH   4  45
TORSDOF 12
