REMARK  4 active torsions:
REMARK  status: ('A' for Active; 'I' for Inactive)
REMARK    1  A    between atoms: S1_1  and  C2_2 
REMARK    2  A    between atoms: S1_1  and  N17_17 
REMARK    3  A    between atoms: C5_5  and  N6_6 
REMARK    4  A    between atoms: C12_12  and  N13_13 
ROOT
ATOM      1  C2  SG1 d   1      -5.292   2.257  15.785  0.00  0.00     0.081 C 
ATOM      2  C3  SG1 d   1      -4.092   2.047  15.114  0.00  0.00    -0.058 C 
ATOM      3  C4  SG1 d   1      -3.513   3.103  14.401  0.00  0.00    -0.053 C 
ATOM      4  C5  SG1 d   1      -4.128   4.352  14.319  0.00  0.00     0.070 C 
ATOM      5  C12 SG1 d   1      -5.259   4.601  15.119  0.00  0.00     0.131 C 
ATOM      6  C16 SG1 d   1      -5.881   3.528  15.750  0.00  0.00    -0.026 C 
ATOM      7  H1  SG1 d   1      -3.611   1.076  15.143  0.00  0.00     0.086 H 
ATOM      8  H2  SG1 d   1      -2.564   2.946  13.901  0.00  0.00     0.087 H 
ATOM      9  H9  SG1 d   1      -6.843   3.679  16.226  0.00  0.00     0.089 H 
ENDROOT
BRANCH   4  10
ATOM     10  N6  SG1 d   1      -3.576   5.335  13.446  0.00  0.00    -0.316 N 
ATOM     11  C7  SG1 d   1      -3.739   5.340  12.120  0.00  0.00     0.224 A 
ATOM     12  O8  SG1 d   1      -4.362   4.514  11.439  0.00  0.00    -0.273 OA
ATOM     13  C9  SG1 d   1      -3.016   6.516  11.513  0.00  0.00     0.011 A 
ATOM     14  C10 SG1 d   1      -2.366   7.229  12.713  0.00  0.00    -0.042 A 
ATOM     15  H3  SG1 d   1      -3.723   7.184  11.000  0.00  0.00     0.047 H 
ATOM     16  H4  SG1 d   1      -2.250   6.176  10.801  0.00  0.00     0.047 H 
ATOM     17  C11 SG1 d   1      -2.832   6.474  13.968  0.00  0.00     0.003 A 
ATOM     18  H5  SG1 d   1      -2.694   8.278  12.756  0.00  0.00     0.036 H 
ATOM     19  H6  SG1 d   1      -1.270   7.191  12.631  0.00  0.00     0.036 H 
ATOM     20  H7  SG1 d   1      -1.970   6.137  14.563  0.00  0.00     0.065 H 
ATOM     21  H8  SG1 d   1      -3.479   7.111  14.588  0.00  0.00     0.065 H 
ENDBRANCH   4  10
BRANCH   5  22
ATOM     22  N13 SG1 d   1      -5.767   5.848  15.328  0.00  0.00    -0.113 N 
ATOM     23  O14 SG1 d   1      -5.348   6.469  16.287  0.00  0.00    -0.532 OA
ATOM     24  O15 SG1 d   1      -6.612   6.264  14.556  0.00  0.00    -0.532 OA
ENDBRANCH   5  22
BRANCH   1  25
ATOM     25  S1  SG1 d   1      -6.050   0.985  16.786  0.00  0.00     0.256 S 
ATOM     26  O18 SG1 d   1      -7.487   1.109  16.630  0.00  0.00    -0.201 OA
ATOM     27  O19 SG1 d   1      -5.484   1.010  18.103  0.00  0.00    -0.201 OA
BRANCH  25  28
ATOM     28  N17 SG1 d   1      -5.540  -0.380  16.066  0.00  0.00    -0.324 N 
ATOM     29  H10 SG1 d   1      -5.820  -1.270  16.426  0.00  0.00     0.169 HD
ATOM     30  H11 SG1 d   1      -4.947  -0.330  15.263  0.00  0.00     0.169 HD
ENDBRANCH  25  28
ENDBRANCH   1  25
TORSDOF 4
