REMARK  3 active torsions:
REMARK  status: ('A' for Active; 'I' for Inactive)
REMARK    1  A    between atoms: S1_1  and  C2_2 
REMARK    2  A    between atoms: S1_1  and  N12_13 
REMARK    3  A    between atoms: N_6  and  C6_7 
ROOT
ATOM      1  C2  SG2 d   1      -5.063   2.306  15.679  0.00  0.00     0.080 A 
ATOM      2  C3  SG2 d   1      -3.707   2.260  15.412  0.00  0.00    -0.058 A 
ATOM      3  C4  SG2 d   1      -3.166   3.251  14.630  0.00  0.00    -0.054 A 
ATOM      4  C5  SG2 d   1      -3.979   4.269  14.082  0.00  0.00     0.055 A 
ATOM      5  N   SG2 d   1      -3.494   5.313  13.251  0.00  0.00    -0.318 N 
ATOM      6  S7  SG2 d   1      -4.810   6.284  12.842  0.00  0.00     0.032 SA
ATOM      7  C8  SG2 d   1      -6.065   5.437  13.700  0.00  0.00     0.241 A 
ATOM      8  O9  SG2 d   1      -7.238   5.759  13.735  0.00  0.00    -0.278 OA
ATOM      9  C10 SG2 d   1      -5.353   4.305  14.355  0.00  0.00     0.051 A 
ATOM     10  C11 SG2 d   1      -5.908   3.308  15.156  0.00  0.00    -0.044 A 
ATOM     11  H1  SG2 d   1      -3.088   1.464  15.809  0.00  0.00     0.086 H 
ATOM     12  H2  SG2 d   1      -2.101   3.252  14.430  0.00  0.00     0.087 H 
ATOM     13  H6  SG2 d   1      -6.970   3.303  15.373  0.00  0.00     0.087 H 
ENDROOT
BRANCH   1  14
ATOM     14  S1  SG2 d   1      -5.702   1.007  16.681  0.00  0.00     0.256 S 
ATOM     15  O13 SG2 d   1      -7.141   1.164  16.717  0.00  0.00    -0.201 OA
ATOM     16  O14 SG2 d   1      -5.148   1.064  18.013  0.00  0.00    -0.201 OA
BRANCH  14  17
ATOM     17  N12 SG2 d   1      -5.296  -0.504  15.924  0.00  0.00    -0.324 N 
ATOM     18  H7  SG2 d   1      -5.575  -1.366  16.347  0.00  0.00     0.169 HD
ATOM     19  H8  SG2 d   1      -4.783  -0.511  15.066  0.00  0.00     0.169 HD
ENDBRANCH  14  17
ENDBRANCH   1  14
BRANCH   5  20
ATOM     20  C6  SG2 d   1      -2.094   5.440  12.850  0.00  0.00    -0.007 C 
ATOM     21  H3  SG2 d   1      -1.975   6.327  12.210  0.00  0.00     0.058 H 
ATOM     22  H4  SG2 d   1      -1.789   4.542  12.293  0.00  0.00     0.058 H 
ATOM     23  H5  SG2 d   1      -1.464   5.547  13.745  0.00  0.00     0.058 H 
ENDBRANCH   5  20
TORSDOF 3
