REMARK WARNING: 32 MAX_TORS EXCEEDED!!!
REMARK  87 active torsions:
REMARK  status: ('A' for Active; 'I' for Inactive)
REMARK    1  A    between atoms: N_1  and  CA_2 
REMARK    2  A    between atoms: CA_2  and  C_3 
REMARK    3  A    between atoms: CA_2  and  CB_5 
REMARK       I    between atoms: C_3  and  N_7 
REMARK    4  A    between atoms: CB_5  and  OG_6 
REMARK    5  A    between atoms: N_7  and  CA_8 
REMARK    6  A    between atoms: CA_8  and  C_9 
REMARK    7  A    between atoms: CA_8  and  CB_11 
REMARK       I    between atoms: C_9  and  N_14 
REMARK    8  A    between atoms: CB_11  and  CG1_12 
REMARK    9  A    between atoms: CB_11  and  CG2_13 
REMARK   10  A    between atoms: CA_15  and  C_16 
REMARK       I    between atoms: C_16  and  N_21 
REMARK   11  A    between atoms: N_21  and  CA_22 
REMARK   12  A    between atoms: CA_22  and  C_23 
REMARK   13  A    between atoms: CA_22  and  CB_25 
REMARK       I    between atoms: C_23  and  N_29 
REMARK   14  A    between atoms: CB_25  and  CG1_26 
REMARK   15  A    between atoms: CB_25  and  CG2_27 
REMARK   16  A    between atoms: CG1_26  and  CD1_28 
REMARK   17  A    between atoms: N_29  and  CA_30 
REMARK   18  A    between atoms: CA_30  and  C_31 
REMARK   19  A    between atoms: CA_30  and  CB_33 
REMARK       I    between atoms: C_31  and  N_38 
REMARK   20  A    between atoms: CB_33  and  CG_34 
REMARK   21  A    between atoms: CG_34  and  CD_35 
REMARK       I    between atoms: CD_35  and  NE2_37 
REMARK   22  A    between atoms: N_38  and  CA_39 
REMARK   23  A    between atoms: CA_39  and  C_40 
REMARK   24  A    between atoms: CA_39  and  CB_42 
REMARK       I    between atoms: C_40  and  N_44 
REMARK   25  A    between atoms: CB_42  and  SG_43 
REMARK   26  A    between atoms: N_44  and  CA_45 
REMARK   27  A    between atoms: CA_45  and  C_46 
REMARK   28  A    between atoms: CA_45  and  CB_48 
REMARK       I    between atoms: C_46  and  N_51 
REMARK   29  A    between atoms: CB_48  and  OG1_49 
REMARK   30  A    between atoms: CB_48  and  CG2_50 
REMARK   31  A    between atoms: N_51  and  CA_52 
REMARK   32  A    between atoms: CA_52  and  C_53 
REMARK   33  A    between atoms: CA_52  and  CB_55 
REMARK       I    between atoms: C_53  and  N_59 
REMARK   34  A    between atoms: CB_55  and  CG_56 
REMARK   35  A    between atoms: N_59  and  CA_60 
REMARK   36  A    between atoms: CA_60  and  C_61 
REMARK   37  A    between atoms: CA_60  and  CB_63 
REMARK       I    between atoms: C_61  and  N_68 
REMARK   38  A    between atoms: CB_63  and  CG_64 
REMARK   39  A    between atoms: CG_64  and  CD_65 
REMARK   40  A    between atoms: CD_65  and  CE_66 
REMARK   41  A    between atoms: CE_66  and  NZ_67 
REMARK   42  A    between atoms: N_68  and  CA_69 
REMARK   43  A    between atoms: CA_69  and  C_70 
REMARK   44  A    between atoms: CA_69  and  CB_72 
REMARK       I    between atoms: C_70  and  N_75 
REMARK   45  A    between atoms: CB_72  and  OG1_73 
REMARK   46  A    between atoms: CB_72  and  CG2_74 
REMARK   47  A    between atoms: N_75  and  CA_76 
REMARK   48  A    between atoms: CA_76  and  C_77 
REMARK   49  A    between atoms: CA_76  and  CB_79 
REMARK       I    between atoms: C_77  and  N_83 
REMARK   50  A    between atoms: CB_79  and  CG_80 
REMARK   51  A    between atoms: N_83  and  CA_84 
REMARK   52  A    between atoms: CA_84  and  C_85 
REMARK   53  A    between atoms: CA_84  and  CB_87 
REMARK       I    between atoms: C_85  and  N_92 
REMARK   54  A    between atoms: CB_87  and  CG_88 
REMARK   55  A    between atoms: CG_88  and  CD_89 
REMARK   56  A    between atoms: CD_89  and  CE_90 
REMARK   57  A    between atoms: CE_90  and  NZ_91 
REMARK   58  A    between atoms: N_92  and  CA_93 
REMARK   59  A    between atoms: CA_93  and  C_94 
REMARK   60  A    between atoms: CA_93  and  CB_96 
REMARK       I    between atoms: C_94  and  N_101 
REMARK   61  A    between atoms: CB_96  and  CG_97 
REMARK   62  A    between atoms: CG_97  and  CD_98 
REMARK       I    between atoms: CD_98  and  NE2_100 
REMARK   63  A    between atoms: N_101  and  CA_102 
REMARK   64  A    between atoms: CA_102  and  C_103 
REMARK   65  A    between atoms: CA_102  and  CB_105 
REMARK       I    between atoms: C_103  and  N_110 
REMARK   66  A    between atoms: CB_105  and  CG_106 
REMARK   67  A    between atoms: CG_106  and  CD_107 
REMARK   68  A    between atoms: N_110  and  CA_111 
REMARK   69  A    between atoms: CA_111  and  C_112 
REMARK   70  A    between atoms: CA_111  and  CB_114 
REMARK       I    between atoms: C_112  and  N_115 
REMARK   71  A    between atoms: N_115  and  CA_116 
REMARK   72  A    between atoms: CA_116  and  C_117 
REMARK   73  A    between atoms: CA_116  and  CB_119 
REMARK       I    between atoms: C_117  and  N_123 
REMARK   74  A    between atoms: CB_119  and  CG_120 
REMARK   75  A    between atoms: CG_120  and  CD1_121 
REMARK   76  A    between atoms: CG_120  and  CD2_122 
REMARK   77  A    between atoms: N_123  and  CA_124 
REMARK   78  A    between atoms: CA_124  and  C_125 
REMARK   79  A    between atoms: CA_124  and  CB_127 
REMARK       I    between atoms: C_125  and  N_134 
REMARK   80  A    between atoms: CB_127  and  CG_128 
REMARK   81  A    between atoms: N_134  and  CA_135 
REMARK   82  A    between atoms: CA_135  and  C_136 
REMARK   83  A    between atoms: CA_135  and  CB_138 
REMARK   84  A    between atoms: CB_138  and  CG_139 
REMARK   85  A    between atoms: CG_139  and  CD_140 
REMARK   86  A    between atoms: CD_140  and  CE_141 
REMARK   87  A    between atoms: CE_141  and  NZ_142 
ROOT
ATOM      1  CA  THR d   1     -24.206  25.243  12.512  0.00  0.00     0.113 C 
ATOM      2  H73 THR d   1     -23.375  24.531  12.400  0.00  0.00     0.091 H 
ENDROOT
BRANCH   1   3
ATOM      3  N   THR d   1     -23.947  26.023  13.728  0.00  0.00    -0.344 N 
ATOM      4  C   LYS d   1     -22.820  25.931  14.449  0.00  0.00     0.241 C 
ATOM      5  O   LYS d   1     -21.867  25.185  14.157  0.00  0.00    -0.271 OA
ATOM      6  H72 THR d   1     -24.653  26.661  14.037  0.00  0.00     0.163 HD
BRANCH   4   7
ATOM      7  CA  LYS d   1     -22.768  26.822  15.695  0.00  0.00     0.089 C 
ATOM      8  H60 LYS d   1     -22.032  27.628  15.558  0.00  0.00     0.087 H 
BRANCH   7   9
ATOM      9  N   LYS d   1     -24.102  27.390  15.868  0.00  0.00    -0.346 N 
ATOM     10  C   ASP d   1     -24.612  28.247  14.983  0.00  0.00     0.241 C 
ATOM     11  O   ASP d   1     -23.976  28.642  14.001  0.00  0.00    -0.271 OA
ATOM     12  H59 LYS d   1     -24.645  27.131  16.667  0.00  0.00     0.163 HD
BRANCH  10  13
ATOM     13  CA  ASP d   1     -26.043  28.745  15.246  0.00  0.00     0.098 C 
ATOM     14  H56 ASP d   1     -26.716  28.254  14.528  0.00  0.00     0.088 H 
BRANCH  13  15
ATOM     15  N   ASP d   1     -26.487  28.413  16.599  0.00  0.00    -0.345 N 
ATOM     16  C   THR d   1     -26.589  27.157  17.022  0.00  0.00     0.243 C 
ATOM     17  O   THR d   1     -26.318  26.185  16.312  0.00  0.00    -0.271 OA
ATOM     18  H55 ASP d   1     -26.722  29.155  17.227  0.00  0.00     0.163 HD
BRANCH  16  19
ATOM     19  CA  THR d   1     -27.058  26.963  18.460  0.00  0.00     0.113 C 
ATOM     20  H49 THR d   1     -26.785  25.942  18.764  0.00  0.00     0.091 H 
BRANCH  19  21
ATOM     21  N   THR d   1     -26.431  27.879  19.406  0.00  0.00    -0.344 N 
ATOM     22  C   CYS d   1     -25.124  27.850  19.627  0.00  0.00     0.242 C 
ATOM     23  O   CYS d   1     -24.374  27.071  19.050  0.00  0.00    -0.271 OA
ATOM     24  H48 THR d   1     -26.997  28.541  19.897  0.00  0.00     0.163 HD
BRANCH  22  25
ATOM     25  CA  CYS d   1     -24.584  28.821  20.663  0.00  0.00     0.097 C 
ATOM     26  H44 CYS d   1     -25.409  29.398  21.107  0.00  0.00     0.088 H 
BRANCH  25  27
ATOM     27  N   CYS d   1     -23.935  27.995  21.669  0.00  0.00    -0.345 N 
ATOM     28  C   GLN d   1     -24.061  28.243  22.962  0.00  0.00     0.241 C 
ATOM     29  O   GLN d   1     -24.751  29.162  23.387  0.00  0.00    -0.271 OA
ATOM     30  H43 CYS d   1     -23.378  27.218  21.375  0.00  0.00     0.163 HD
BRANCH  28  31
ATOM     31  CA  GLN d   1     -23.314  27.304  23.912  0.00  0.00     0.090 C 
ATOM     32  H36 GLN d   1     -22.261  27.614  23.980  0.00  0.00     0.087 H 
BRANCH  31  33
ATOM     33  N   GLN d   1     -23.914  27.355  25.249  0.00  0.00    -0.346 N 
ATOM     34  C   ILE d   1     -24.146  28.510  25.870  0.00  0.00     0.241 C 
ATOM     35  O   ILE d   1     -23.856  29.599  25.383  0.00  0.00    -0.271 OA
ATOM     36  H35 GLN d   1     -24.155  26.499  25.707  0.00  0.00     0.163 HD
BRANCH  34  37
ATOM     37  CA  ILE d   1     -24.802  28.457  27.240  0.00  0.00     0.092 C 
ATOM     38  H25 ILE d   1     -24.892  27.428  27.617  0.00  0.00     0.088 H 
BRANCH  37  39
ATOM     39  N   ILE d   1     -23.932  29.250  28.095  0.00  0.00    -0.346 N 
ATOM     40  C   PRO d   1     -22.991  28.717  28.863  0.00  0.00     0.241 C 
ATOM     41  O   PRO d   1     -22.776  27.510  28.946  0.00  0.00    -0.271 OA
ATOM     42  H24 ILE d   1     -24.049  30.243  28.104  0.00  0.00     0.163 HD
BRANCH  40  43
ATOM     43  CA  PRO d   1     -22.156  29.716  29.637  0.00  0.00     0.091 C 
ATOM     44  N   PRO d   1     -22.028  29.453  31.067  0.00  0.00    -0.337 N 
ATOM     45  C   VAL d   1     -23.064  29.327  31.893  0.00  0.00     0.243 C 
ATOM     46  CD  PRO d   1     -20.619  29.258  31.429  0.00  0.00    -0.001 C 
ATOM     47  O   VAL d   1     -24.219  29.407  31.498  0.00  0.00    -0.271 OA
ATOM     48  CG  PRO d   1     -19.927  30.043  30.360  0.00  0.00    -0.048 C 
ATOM     49  H22 PRO d   1     -20.338  28.195  31.393  0.00  0.00     0.064 H 
ATOM     50  H23 PRO d   1     -20.401  29.661  32.429  0.00  0.00     0.064 H 
ATOM     51  CB  PRO d   1     -20.708  29.719  29.150  0.00  0.00    -0.036 C 
ATOM     52  H20 PRO d   1     -19.962  31.121  30.576  0.00  0.00     0.035 H 
ATOM     53  H21 PRO d   1     -18.880  29.725  30.251  0.00  0.00     0.035 H 
ATOM     54  H18 PRO d   1     -20.558  30.482  28.372  0.00  0.00     0.036 H 
ATOM     55  H19 PRO d   1     -20.426  28.732  28.755  0.00  0.00     0.036 H 
ATOM     56  H17 PRO d   1     -22.605  30.710  29.491  0.00  0.00     0.087 H 
BRANCH  45  57
ATOM     57  CA  VAL d   1     -22.751  29.068  33.355  0.00  0.00     0.092 C 
ATOM     58  H9  VAL d   1     -21.682  28.840  33.477  0.00  0.00     0.088 H 
BRANCH  57  59
ATOM     59  N   VAL d   1     -23.067  30.297  34.083  0.00  0.00    -0.346 N 
ATOM     60  C   SER d   1     -22.407  30.652  35.183  0.00  0.00     0.251 C 
ATOM     61  O   SER d   1     -21.521  29.955  35.689  0.00  0.00    -0.271 OA
ATOM     62  H8  VAL d   1     -23.800  30.887  33.745  0.00  0.00     0.163 HD
BRANCH  60  63
ATOM     63  CA  SER d   1     -22.807  31.977  35.831  0.00  0.00     0.195 C 
ATOM     64  H4  SER d   1     -22.704  32.778  35.084  0.00  0.00     0.102 H 
BRANCH  63  65
ATOM     65  N   SER d   1     -24.219  31.950  36.295  0.00  0.00    -0.064 N 
ATOM     66  H1  SER d   1     -24.451  32.836  36.716  0.00  0.00     0.275 HD
ATOM     67  H2  SER d   1     -24.336  31.214  36.974  0.00  0.00     0.275 HD
ATOM     68  H3  SER d   1     -24.828  31.782  35.509  0.00  0.00     0.275 HD
ENDBRANCH  63  65
BRANCH  63  69
ATOM     69  CB  SER d   1     -21.857  32.271  37.004  0.00  0.00     0.051 C 
ATOM     70  H5  SER d   1     -22.249  33.126  37.574  0.00  0.00     0.077 H 
ATOM     71  H6  SER d   1     -20.864  32.522  36.603  0.00  0.00     0.077 H 
BRANCH  69  72
ATOM     72  OG  SER d   1     -21.732  31.153  37.878  0.00  0.00    -0.398 OA
ATOM     73  H7  SER d   1     -21.388  30.411  37.394  0.00  0.00     0.209 HD
ENDBRANCH  69  72
ENDBRANCH  63  69
ENDBRANCH  60  63
ENDBRANCH  57  59
BRANCH  57  74
ATOM     74  CB  VAL d   1     -23.581  27.850  33.837  0.00  0.00    -0.033 C 
ATOM     75  H10 VAL d   1     -24.637  28.014  33.576  0.00  0.00     0.042 H 
BRANCH  74  76
ATOM     76  CG1 VAL d   1     -23.090  26.581  33.135  0.00  0.00    -0.071 C 
ATOM     77  H11 VAL d   1     -23.681  25.720  33.479  0.00  0.00     0.028 H 
ATOM     78  H12 VAL d   1     -22.029  26.417  33.374  0.00  0.00     0.028 H 
ATOM     79  H13 VAL d   1     -23.207  26.695  32.047  0.00  0.00     0.028 H 
ENDBRANCH  74  76
BRANCH  74  80
ATOM     80  CG2 VAL d   1     -23.469  27.695  35.356  0.00  0.00    -0.071 C 
ATOM     81  H14 VAL d   1     -23.825  28.613  35.846  0.00  0.00     0.028 H 
ATOM     82  H15 VAL d   1     -22.419  27.517  35.630  0.00  0.00     0.028 H 
ATOM     83  H16 VAL d   1     -24.083  26.843  35.684  0.00  0.00     0.028 H 
ENDBRANCH  74  80
ENDBRANCH  57  74
ENDBRANCH  45  57
ENDBRANCH  40  43
ENDBRANCH  37  39
BRANCH  37  84
ATOM     84  CB  ILE d   1     -26.201  29.101  27.075  0.00  0.00    -0.030 C 
ATOM     85  H26 ILE d   1     -26.077  30.110  26.655  0.00  0.00     0.043 H 
BRANCH  84  86
ATOM     86  CG1 ILE d   1     -26.909  29.218  28.422  0.00  0.00    -0.063 C 
ATOM     87  H27 ILE d   1     -27.870  29.730  28.268  0.00  0.00     0.033 H 
ATOM     88  H28 ILE d   1     -26.279  29.816  29.097  0.00  0.00     0.033 H 
BRANCH  86  89
ATOM     89  CD1 ILE d   1     -27.174  27.896  29.067  0.00  0.00    -0.076 C 
ATOM     90  H32 ILE d   1     -27.684  28.053  30.029  0.00  0.00     0.027 H 
ATOM     91  H33 ILE d   1     -26.221  27.374  29.238  0.00  0.00     0.027 H 
ATOM     92  H34 ILE d   1     -27.812  27.288  28.409  0.00  0.00     0.027 H 
ENDBRANCH  86  89
ENDBRANCH  84  86
BRANCH  84  93
ATOM     93  CG2 ILE d   1     -27.031  28.274  26.123  0.00  0.00    -0.071 C 
ATOM     94  H29 ILE d   1     -26.512  28.196  25.156  0.00  0.00     0.028 H 
ATOM     95  H30 ILE d   1     -28.009  28.755  25.976  0.00  0.00     0.028 H 
ATOM     96  H31 ILE d   1     -27.177  27.268  26.543  0.00  0.00     0.028 H 
ENDBRANCH  84  93
ENDBRANCH  37  84
ENDBRANCH  34  37
ENDBRANCH  31  33
BRANCH  31  97
ATOM     97  CB  GLN d   1     -23.389  25.887  23.345  0.00  0.00    -0.030 C 
ATOM     98  H37 GLN d   1     -23.048  25.924  22.300  0.00  0.00     0.037 H 
ATOM     99  H38 GLN d   1     -24.441  25.567  23.377  0.00  0.00     0.037 H 
BRANCH  97 100
ATOM    100  CG  GLN d   1     -22.561  24.837  24.068  0.00  0.00     0.011 C 
ATOM    101  H39 GLN d   1     -23.043  23.857  23.941  0.00  0.00     0.047 H 
ATOM    102  H40 GLN d   1     -22.523  25.091  25.138  0.00  0.00     0.047 H 
BRANCH 100 103
ATOM    103  CD  GLN d   1     -21.149  24.757  23.537  0.00  0.00     0.215 C 
ATOM    104  OE1 GLN d   1     -20.929  24.495  22.351  0.00  0.00    -0.274 OA
ATOM    105  NE2 GLN d   1     -20.178  24.986  24.410  0.00  0.00    -0.370 N 
ATOM    106  H41 GLN d   1     -19.223  24.947  24.117  0.00  0.00     0.159 HD
ATOM    107  H42 GLN d   1     -20.401  25.198  25.362  0.00  0.00     0.159 HD
ENDBRANCH 100 103
ENDBRANCH  97 100
ENDBRANCH  31  97
ENDBRANCH  28  31
ENDBRANCH  25  27
BRANCH  25 108
ATOM    108  CB  CYS d   1     -23.551  29.788  20.063  0.00  0.00     0.001 C 
ATOM    109  H45 CYS d   1     -22.576  29.279  20.078  0.00  0.00     0.052 H 
ATOM    110  H46 CYS d   1     -23.512  30.674  20.714  0.00  0.00     0.052 H 
BRANCH 108 111
ATOM    111  SG  CYS d   1     -23.833  30.371  18.370  0.00  0.00    -0.180 SA
ATOM    112  H47 CYS d   1     -23.087  30.994  18.102  0.00  0.00     0.101 HD
ENDBRANCH 108 111
ENDBRANCH  25 108
ENDBRANCH  22  25
ENDBRANCH  19  21
BRANCH  19 113
ATOM    113  CB  THR d   1     -28.592  27.084  18.513  0.00  0.00     0.060 C 
ATOM    114  H50 THR d   1     -29.032  26.404  17.768  0.00  0.00     0.086 H 
BRANCH 113 115
ATOM    115  OG1 THR d   1     -28.983  28.430  18.213  0.00  0.00    -0.393 OA
ATOM    116  H51 THR d   1     -28.599  29.020  18.851  0.00  0.00     0.210 HD
ENDBRANCH 113 115
BRANCH 113 117
ATOM    117  CG2 THR d   1     -29.101  26.707  19.892  0.00  0.00    -0.050 C 
ATOM    118  H52 THR d   1     -30.197  26.798  19.916  0.00  0.00     0.031 H 
ATOM    119  H53 THR d   1     -28.661  27.381  20.642  0.00  0.00     0.031 H 
ATOM    120  H54 THR d   1     -28.814  25.669  20.118  0.00  0.00     0.031 H 
ENDBRANCH 113 117
ENDBRANCH  19 113
ENDBRANCH  16  19
ENDBRANCH  13  15
BRANCH  13 121
ATOM    121  CB  ASP d   1     -26.128  30.264  15.041  0.00  0.00     0.043 C 
ATOM    122  H57 ASP d   1     -25.412  30.751  15.719  0.00  0.00     0.052 H 
ATOM    123  H58 ASP d   1     -27.148  30.595  15.286  0.00  0.00     0.052 H 
BRANCH 121 124
ATOM    124  CG  ASP d   1     -25.812  30.684  13.623  0.00  0.00     0.175 C 
ATOM    125  OD1 ASP d   1     -26.419  30.113  12.700  0.00  0.00    -0.648 OA
ATOM    126  OD2 ASP d   1     -24.970  31.587  13.432  0.00  0.00    -0.648 OA
ENDBRANCH 121 124
ENDBRANCH  13 121
ENDBRANCH  10  13
ENDBRANCH   7   9
BRANCH   7 127
ATOM    127  CB  LYS d   1     -22.374  25.966  16.910  0.00  0.00    -0.038 C 
ATOM    128  H61 LYS d   1     -22.391  26.611  17.801  0.00  0.00     0.036 H 
ATOM    129  H62 LYS d   1     -21.352  25.592  16.747  0.00  0.00     0.036 H 
BRANCH 127 130
ATOM    130  CG  LYS d   1     -23.289  24.755  17.179  0.00  0.00    -0.061 C 
ATOM    131  H63 LYS d   1     -23.339  24.136  16.271  0.00  0.00     0.033 H 
ATOM    132  H64 LYS d   1     -24.297  25.117  17.432  0.00  0.00     0.033 H 
BRANCH 130 133
ATOM    133  CD  LYS d   1     -22.760  23.898  18.340  0.00  0.00    -0.043 C 
ATOM    134  H65 LYS d   1     -22.344  24.567  19.108  0.00  0.00     0.035 H 
ATOM    135  H66 LYS d   1     -21.966  23.240  17.957  0.00  0.00     0.035 H 
BRANCH 133 136
ATOM    136  CE  LYS d   1     -23.845  23.029  18.985  0.00  0.00     0.080 C 
ATOM    137  H67 LYS d   1     -23.360  22.304  19.656  0.00  0.00     0.075 H 
ATOM    138  H68 LYS d   1     -24.381  22.491  18.190  0.00  0.00     0.075 H 
BRANCH 136 139
ATOM    139  NZ  LYS d   1     -24.836  23.821  19.776  0.00  0.00    -0.079 N 
ATOM    140  H69 LYS d   1     -25.522  23.199  20.174  0.00  0.00     0.274 HD
ATOM    141  H70 LYS d   1     -25.295  24.485  19.172  0.00  0.00     0.274 HD
ATOM    142  H71 LYS d   1     -24.359  24.313  20.515  0.00  0.00     0.274 HD
ENDBRANCH 136 139
ENDBRANCH 133 136
ENDBRANCH 130 133
ENDBRANCH 127 130
ENDBRANCH   7 127
ENDBRANCH   4   7
ENDBRANCH   1   3
BRANCH   1 143
ATOM    143  C   THR d   1     -24.277  26.074  11.210  0.00  0.00     0.243 C 
ATOM    144  O   THR d   1     -23.787  25.631  10.164  0.00  0.00    -0.271 OA
ATOM    145  N   ASP d   1     -24.876  27.266  11.270  0.00  0.00    -0.345 N 
ATOM    146  H79 ASP d   1     -25.265  27.573  12.139  0.00  0.00     0.163 HD
BRANCH 145 147
ATOM    147  CA  ASP d   1     -24.979  28.140  10.091  0.00  0.00     0.098 C 
ATOM    148  H80 ASP d   1     -24.941  27.499   9.198  0.00  0.00     0.088 H 
BRANCH 147 149
ATOM    149  C   ASP d   1     -23.843  29.169   9.989  0.00  0.00     0.241 C 
ATOM    150  O   ASP d   1     -23.426  29.759  10.992  0.00  0.00    -0.271 OA
ATOM    151  N   LYS d   1     -23.375  29.408   8.764  0.00  0.00    -0.346 N 
ATOM    152  H83 LYS d   1     -23.781  28.931   7.984  0.00  0.00     0.163 HD
BRANCH 151 153
ATOM    153  CA  LYS d   1     -22.285  30.349   8.535  0.00  0.00     0.089 C 
ATOM    154  H84 LYS d   1     -21.790  30.501   9.505  0.00  0.00     0.087 H 
BRANCH 153 155
ATOM    155  C   LYS d   1     -22.708  31.730   8.039  0.00  0.00     0.241 C 
ATOM    156  O   LYS d   1     -22.110  32.274   7.104  0.00  0.00    -0.271 OA
ATOM    157  N   GLN d   1     -23.733  32.299   8.672  0.00  0.00    -0.346 N 
ATOM    158  H96 GLN d   1     -24.183  31.801   9.413  0.00  0.00     0.163 HD
BRANCH 157 159
ATOM    159  CA  GLN d   1     -24.219  33.634   8.312  0.00  0.00     0.090 C 
ATOM    160  H97 GLN d   1     -23.923  33.885   7.283  0.00  0.00     0.087 H 
BRANCH 159 161
ATOM    161  C   GLN d   1     -23.569  34.604   9.304  0.00  0.00     0.241 C 
ATOM    162  O   GLN d   1     -24.120  34.891  10.367  0.00  0.00    -0.271 OA
ATOM    163  N   GLU d   1     -22.382  35.088   8.958  0.00  0.00    -0.346 N 
ATOM    164 4H10 GLU d   1     -21.986  34.826   8.078  0.00  0.00     0.163 HD
BRANCH 163 165
ATOM    165  CA  GLU d   1     -21.641  35.992   9.830  0.00  0.00     0.090 C 
ATOM    166 5H10 GLU d   1     -22.365  36.558  10.434  0.00  0.00     0.087 H 
BRANCH 165 167
ATOM    167  C   GLU d   1     -20.778  36.991   9.053  0.00  0.00     0.241 C 
ATOM    168  O   GLU d   1     -20.276  36.685   7.963  0.00  0.00    -0.271 OA
ATOM    169  N   ALA d   1     -20.606  38.186   9.615  0.00  0.00    -0.346 N 
ATOM    170 0H11 ALA d   1     -21.038  38.382  10.495  0.00  0.00     0.163 HD
BRANCH 169 171
ATOM    171  CA  ALA d   1     -19.798  39.213   8.968  0.00  0.00     0.086 C 
ATOM    172 1H11 ALA d   1     -19.300  38.760   8.098  0.00  0.00     0.086 H 
BRANCH 171 173
ATOM    173  C   ALA d   1     -18.725  39.742   9.911  0.00  0.00     0.240 C 
ATOM    174  O   ALA d   1     -18.954  39.922  11.113  0.00  0.00    -0.271 OA
ATOM    175  N   LEU d   1     -17.544  39.969   9.351  0.00  0.00    -0.346 N 
ATOM    176 5H11 LEU d   1     -17.425  39.771   8.378  0.00  0.00     0.163 HD
BRANCH 175 177
ATOM    177  CA  LEU d   1     -16.417  40.496  10.104  0.00  0.00     0.089 C 
ATOM    178 6H11 LEU d   1     -16.211  39.852  10.971  0.00  0.00     0.087 H 
BRANCH 177 179
ATOM    179  C   LEU d   1     -16.784  41.895  10.575  0.00  0.00     0.241 C 
ATOM    180  O   LEU d   1     -17.505  42.624   9.890  0.00  0.00    -0.271 OA
ATOM    181  N   PHE d   1     -16.314  42.278  11.749  0.00  0.00    -0.346 N 
ATOM    182 6H12 PHE d   1     -15.763  41.656  12.305  0.00  0.00     0.163 HD
BRANCH 181 183
ATOM    183  CA  PHE d   1     -16.613  43.619  12.216  0.00  0.00     0.093 C 
ATOM    184 7H12 PHE d   1     -16.501  44.298  11.358  0.00  0.00     0.088 H 
BRANCH 183 185
ATOM    185  C   PHE d   1     -15.661  44.098  13.306  0.00  0.00     0.241 C 
ATOM    186  O   PHE d   1     -15.834  43.790  14.486  0.00  0.00    -0.271 OA
ATOM    187  N   LYS d   1     -14.668  44.877  12.889  0.00  0.00    -0.345 N 
ATOM    188 5H13 LYS d   1     -14.631  45.127  11.921  0.00  0.00     0.163 HD
BRANCH 187 189
ATOM    189  CA  LYS d   1     -13.632  45.383  13.778  0.00  0.00     0.096 C 
ATOM    190 6H13 LYS d   1     -13.642  44.770  14.691  0.00  0.00     0.089 H 
BRANCH 189 191
ATOM    191  C   LYS d   1     -13.834  46.848  14.203  0.00  0.00     0.196 C 
ATOM    192  O   LYS d   1     -13.664  47.747  13.349  0.00  0.00    -0.646 OA
ATOM    193  OXT LYS d   1     -14.162  47.087  15.392  0.00  0.00    -0.646 OA
ENDBRANCH 189 191
BRANCH 189 194
ATOM    194  CB  LYS d   1     -12.274  45.210  13.087  0.00  0.00    -0.037 C 
ATOM    195 7H13 LYS d   1     -11.496  45.153  13.862  0.00  0.00     0.036 H 
ATOM    196 8H13 LYS d   1     -12.094  46.089  12.451  0.00  0.00     0.036 H 
BRANCH 194 197
ATOM    197  CG  LYS d   1     -12.177  43.952  12.211  0.00  0.00    -0.061 C 
ATOM    198 9H13 LYS d   1     -11.214  43.964  11.679  0.00  0.00     0.033 H 
ATOM    199 0H14 LYS d   1     -12.999  43.964  11.481  0.00  0.00     0.033 H 
BRANCH 197 200
ATOM    200  CD  LYS d   1     -12.269  42.671  13.034  0.00  0.00    -0.043 C 
ATOM    201 1H14 LYS d   1     -13.036  42.802  13.812  0.00  0.00     0.035 H 
ATOM    202 2H14 LYS d   1     -11.295  42.482  13.508  0.00  0.00     0.035 H 
BRANCH 200 203
ATOM    203  CE  LYS d   1     -12.641  41.466  12.171  0.00  0.00     0.080 C 
ATOM    204 3H14 LYS d   1     -13.682  41.582  11.835  0.00  0.00     0.075 H 
ATOM    205 4H14 LYS d   1     -12.552  40.555  12.781  0.00  0.00     0.075 H 
BRANCH 203 206
ATOM    206  NZ  LYS d   1     -11.770  41.324  10.977  0.00  0.00    -0.079 N 
ATOM    207 5H14 LYS d   1     -12.058  40.517  10.445  0.00  0.00     0.274 HD
ATOM    208 6H14 LYS d   1     -10.813  41.209  11.271  0.00  0.00     0.274 HD
ATOM    209 7H14 LYS d   1     -11.848  42.150  10.404  0.00  0.00     0.274 HD
ENDBRANCH 203 206
ENDBRANCH 200 203
ENDBRANCH 197 200
ENDBRANCH 194 197
ENDBRANCH 189 194
ENDBRANCH 187 189
ENDBRANCH 183 185
BRANCH 183 210
ATOM    210  CB  PHE d   1     -18.046  43.710  12.698  0.00  0.00    -0.014 C 
ATOM    211 8H12 PHE d   1     -18.122  43.214  13.677  0.00  0.00     0.043 H 
ATOM    212 9H12 PHE d   1     -18.696  43.196  11.975  0.00  0.00     0.043 H 
BRANCH 210 213
ATOM    213  CG  PHE d   1     -18.499  45.095  12.836  0.00  0.00    -0.056 A 
ATOM    214  CD1 PHE d   1     -18.764  45.849  11.714  0.00  0.00    -0.077 A 
ATOM    215  CE1 PHE d   1     -19.067  47.202  11.820  0.00  0.00    -0.082 A 
ATOM    216 0H13 PHE d   1     -18.736  45.382  10.736  0.00  0.00     0.084 H 
ATOM    217  CZ  PHE d   1     -19.107  47.804  13.065  0.00  0.00    -0.083 A 
ATOM    218 2H13 PHE d   1     -19.271  47.784  10.929  0.00  0.00     0.083 H 
ATOM    219  CE2 PHE d   1     -18.846  47.044  14.198  0.00  0.00    -0.082 A 
ATOM    220 4H13 PHE d   1     -19.340  48.859  13.155  0.00  0.00     0.083 H 
ATOM    221  CD2 PHE d   1     -18.545  45.695  14.075  0.00  0.00    -0.077 A 
ATOM    222 3H13 PHE d   1     -18.878  47.505  15.179  0.00  0.00     0.083 H 
ATOM    223 1H13 PHE d   1     -18.344  45.107  14.963  0.00  0.00     0.084 H 
ENDBRANCH 210 213
ENDBRANCH 183 210
ENDBRANCH 181 183
ENDBRANCH 177 179
BRANCH 177 224
ATOM    224  CB  LEU d   1     -15.173  40.553   9.198  0.00  0.00    -0.035 C 
ATOM    225 7H11 LEU d   1     -14.839  39.517   9.042  0.00  0.00     0.037 H 
ATOM    226 8H11 LEU d   1     -14.399  41.109   9.747  0.00  0.00     0.037 H 
BRANCH 224 227
ATOM    227  CG  LEU d   1     -15.297  41.207   7.799  0.00  0.00    -0.059 C 
ATOM    228 9H11 LEU d   1     -16.288  40.971   7.383  0.00  0.00     0.038 H 
BRANCH 227 229
ATOM    229  CD1 LEU d   1     -15.156  42.734   7.910  0.00  0.00    -0.073 C 
ATOM    230 0H12 LEU d   1     -15.246  43.184   6.910  0.00  0.00     0.028 H 
ATOM    231 1H12 LEU d   1     -14.173  42.981   8.336  0.00  0.00     0.028 H 
ATOM    232 2H12 LEU d   1     -15.948  43.129   8.563  0.00  0.00     0.028 H 
ENDBRANCH 227 229
BRANCH 227 233
ATOM    233  CD2 LEU d   1     -14.219  40.647   6.861  0.00  0.00    -0.073 C 
ATOM    234 3H12 LEU d   1     -14.328  39.555   6.788  0.00  0.00     0.028 H 
ATOM    235 4H12 LEU d   1     -13.223  40.890   7.260  0.00  0.00     0.028 H 
ATOM    236 5H12 LEU d   1     -14.333  41.094   5.863  0.00  0.00     0.028 H 
ENDBRANCH 227 233
ENDBRANCH 224 227
ENDBRANCH 177 224
ENDBRANCH 175 177
ENDBRANCH 171 173
BRANCH 171 237
ATOM    237  CB  ALA d   1     -20.681  40.367   8.474  0.00  0.00    -0.049 C 
ATOM    238 2H11 ALA d   1     -20.052  41.129   7.990  0.00  0.00     0.030 H 
ATOM    239 3H11 ALA d   1     -21.209  40.816   9.328  0.00  0.00     0.030 H 
ATOM    240 4H11 ALA d   1     -21.415  39.983   7.750  0.00  0.00     0.030 H 
ENDBRANCH 171 237
ENDBRANCH 169 171
ENDBRANCH 165 167
BRANCH 165 241
ATOM    241  CB  GLU d   1     -20.747  35.179  10.761  0.00  0.00    -0.029 C 
ATOM    242 6H10 GLU d   1     -21.368  34.432  11.277  0.00  0.00     0.037 H 
ATOM    243 7H10 GLU d   1     -20.302  35.860  11.501  0.00  0.00     0.037 H 
BRANCH 241 244
ATOM    244  CG  GLU d   1     -19.632  34.460  10.039  0.00  0.00     0.018 C 
ATOM    245 8H10 GLU d   1     -19.139  35.169   9.357  0.00  0.00     0.049 H 
ATOM    246 9H10 GLU d   1     -20.064  33.632   9.458  0.00  0.00     0.049 H 
BRANCH 244 247
ATOM    247  CD  GLU d   1     -18.595  33.897  10.988  0.00  0.00     0.172 C 
ATOM    248  OE1 GLU d   1     -17.568  33.386  10.501  0.00  0.00    -0.648 OA
ATOM    249  OE2 GLU d   1     -18.799  33.963  12.223  0.00  0.00    -0.648 OA
ENDBRANCH 244 247
ENDBRANCH 241 244
ENDBRANCH 165 241
ENDBRANCH 163 165
ENDBRANCH 159 161
BRANCH 159 250
ATOM    250  CB  GLN d   1     -25.743  33.690   8.434  0.00  0.00    -0.030 C 
ATOM    251  H98 GLN d   1     -25.991  34.266   9.338  0.00  0.00     0.037 H 
ATOM    252  H99 GLN d   1     -26.114  32.660   8.542  0.00  0.00     0.037 H 
BRANCH 250 253
ATOM    253  CG  GLN d   1     -26.464  34.329   7.255  0.00  0.00     0.011 C 
ATOM    254 0H10 GLN d   1     -25.981  35.291   7.029  0.00  0.00     0.047 H 
ATOM    255 1H10 GLN d   1     -27.512  34.503   7.538  0.00  0.00     0.047 H 
BRANCH 253 256
ATOM    256  CD  GLN d   1     -26.438  33.468   6.002  0.00  0.00     0.215 C 
ATOM    257  OE1 GLN d   1     -26.617  32.252   6.073  0.00  0.00    -0.274 OA
ATOM    258  NE2 GLN d   1     -26.233  34.099   4.844  0.00  0.00    -0.370 N 
ATOM    259 2H10 GLN d   1     -26.207  33.580   3.990  0.00  0.00     0.159 HD
ATOM    260 3H10 GLN d   1     -26.106  35.091   4.831  0.00  0.00     0.159 HD
ENDBRANCH 253 256
ENDBRANCH 250 253
ENDBRANCH 159 250
ENDBRANCH 157 159
ENDBRANCH 153 155
BRANCH 153 261
ATOM    261  CB  LYS d   1     -21.250  29.731   7.571  0.00  0.00    -0.038 C 
ATOM    262  H85 LYS d   1     -20.727  28.929   8.112  0.00  0.00     0.036 H 
ATOM    263  H86 LYS d   1     -20.532  30.519   7.300  0.00  0.00     0.036 H 
BRANCH 261 264
ATOM    264  CG  LYS d   1     -21.802  29.133   6.266  0.00  0.00    -0.061 C 
ATOM    265  H87 LYS d   1     -22.788  28.692   6.474  0.00  0.00     0.033 H 
ATOM    266  H88 LYS d   1     -21.113  28.346   5.925  0.00  0.00     0.033 H 
BRANCH 264 267
ATOM    267  CD  LYS d   1     -21.958  30.162   5.143  0.00  0.00    -0.043 C 
ATOM    268  H89 LYS d   1     -21.782  29.663   4.178  0.00  0.00     0.035 H 
ATOM    269  H90 LYS d   1     -21.212  30.958   5.285  0.00  0.00     0.035 H 
BRANCH 267 270
ATOM    270  CE  LYS d   1     -23.340  30.785   5.126  0.00  0.00     0.080 C 
ATOM    271  H91 LYS d   1     -23.544  31.244   6.105  0.00  0.00     0.075 H 
ATOM    272  H92 LYS d   1     -24.088  30.004   4.924  0.00  0.00     0.075 H 
BRANCH 270 273
ATOM    273  NZ  LYS d   1     -23.421  31.823   4.074  0.00  0.00    -0.079 N 
ATOM    274  H93 LYS d   1     -24.344  32.229   4.073  0.00  0.00     0.274 HD
ATOM    275  H94 LYS d   1     -23.237  31.406   3.175  0.00  0.00     0.274 HD
ATOM    276  H95 LYS d   1     -22.738  32.541   4.257  0.00  0.00     0.274 HD
ENDBRANCH 270 273
ENDBRANCH 267 270
ENDBRANCH 264 267
ENDBRANCH 261 264
ENDBRANCH 153 261
ENDBRANCH 151 153
ENDBRANCH 147 149
BRANCH 147 277
ATOM    277  CB  ASP d   1     -26.305  28.896  10.093  0.00  0.00     0.043 C 
ATOM    278  H81 ASP d   1     -26.705  28.906  11.117  0.00  0.00     0.052 H 
ATOM    279  H82 ASP d   1     -27.010  28.375   9.429  0.00  0.00     0.052 H 
BRANCH 277 280
ATOM    280  CG  ASP d   1     -26.150  30.332   9.614  0.00  0.00     0.175 C 
ATOM    281  OD1 ASP d   1     -25.847  30.529   8.418  0.00  0.00    -0.648 OA
ATOM    282  OD2 ASP d   1     -26.316  31.259  10.438  0.00  0.00    -0.648 OA
ENDBRANCH 277 280
ENDBRANCH 147 277
ENDBRANCH 145 147
ENDBRANCH   1 143
BRANCH   1 283
ATOM    283  CB  THR d   1     -25.513  24.440  12.675  0.00  0.00     0.060 C 
ATOM    284  H74 THR d   1     -25.798  24.010  11.704  0.00  0.00     0.086 H 
BRANCH 283 285
ATOM    285  OG1 THR d   1     -26.549  25.318  13.131  0.00  0.00    -0.393 OA
ATOM    286  H75 THR d   1     -26.299  25.695  13.966  0.00  0.00     0.210 HD
ENDBRANCH 283 285
BRANCH 283 287
ATOM    287  CG2 THR d   1     -25.324  23.313  13.688  0.00  0.00    -0.050 C 
ATOM    288  H76 THR d   1     -26.264  22.752  13.792  0.00  0.00     0.031 H 
ATOM    289  H77 THR d   1     -25.042  23.739  14.662  0.00  0.00     0.031 H 
ATOM    290  H78 THR d   1     -24.530  22.637  13.340  0.00  0.00     0.031 H 
ENDBRANCH 283 287
ENDBRANCH   1 283
TORSDOF 87
