REMARK  4 active torsions:
REMARK  status: ('A' for Active; 'I' for Inactive)
REMARK    1  A    between atoms: N1_1  and  S13_8 
REMARK    2  A    between atoms: N1_1  and  C2_2 
REMARK    3  A    between atoms: S13_8  and  C15_9 
REMARK    4  A    between atoms: C18_12  and  C21_15 
ROOT
ATOM      1  N1  STC d   1      23.958   4.321  13.876  0.00  0.00    -0.281 N 
ATOM      2  H1  STC d   1      24.028   3.432  14.329  0.00  0.00     0.179 HD
ENDROOT
BRANCH   1   3
ATOM      3  S13 STC d   1      25.276   5.430  13.897  0.00  0.00     0.264 S 
ATOM      4  O17 STC d   1      25.367   6.087  12.625  0.00  0.00    -0.200 OA
ATOM      5  O16 STC d   1      26.483   4.686  14.152  0.00  0.00    -0.200 OA
BRANCH   3   6
ATOM      6  C15 STC d   1      25.017   6.701  15.222  0.00  0.00     0.104 A 
ATOM      7  C19 STC d   1      25.060   8.087  15.010  0.00  0.00    -0.052 A 
ATOM      8  C22 STC d   1      24.822   8.739  16.224  0.00  0.00    -0.043 A 
ATOM      9  H6  STC d   1      25.248   8.576  14.055  0.00  0.00     0.086 H 
ATOM     10  S20 STC d   1      24.629   7.763  17.216  0.00  0.00    -0.094 SA
ATOM     11  H7  STC d   1      24.791   9.817  16.375  0.00  0.00     0.095 H 
ATOM     12  C18 STC d   1      24.747   6.487  16.587  0.00  0.00     0.104 A 
BRANCH  12  13
ATOM     13  C21 STC d   1      24.601   5.179  17.296  0.00  0.00     0.218 C 
ATOM     14  O24 STC d   1      24.371   5.185  18.490  0.00  0.00    -0.643 OA
ATOM     15  O23 STC d   1      24.718   4.021  16.652  0.00  0.00    -0.643 OA
ENDBRANCH  12  13
ENDBRANCH   3   6
ENDBRANCH   1   3
BRANCH   1  16
ATOM     16  C2  STC d   1      22.783   4.699  13.206  0.00  0.00     0.042 A 
ATOM     17  C4  STC d   1      22.637   4.426  11.822  0.00  0.00    -0.055 A 
ATOM     18  C6  STC d   1      21.446   4.796  11.161  0.00  0.00    -0.060 A 
ATOM     19  H3  STC d   1      23.435   3.936  11.275  0.00  0.00     0.087 H 
ATOM     20  C7  STC d   1      20.411   5.433  11.883  0.00  0.00     0.034 A 
ATOM     21  H5  STC d   1      21.325   4.592  10.103  0.00  0.00     0.086 H 
ATOM     22  C5  STC d   1      20.562   5.714  13.260  0.00  0.00    -0.060 A 
ATOM     23 CL8  STC d   1      18.938   5.867  11.082  0.00  0.00    -0.084 Cl
ATOM     24  C3  STC d   1      21.752   5.346  13.922  0.00  0.00    -0.055 A 
ATOM     25  H4  STC d   1      19.767   6.210  13.805  0.00  0.00     0.086 H 
ATOM     26  H2  STC d   1      21.875   5.559  14.978  0.00  0.00     0.087 H 
ENDBRANCH   1  16
TORSDOF 4
