REMARK WARNING: 32 MAX_TORS EXCEEDED!!!
REMARK  35 active torsions:
REMARK  status: ('A' for Active; 'I' for Inactive)
REMARK    1  A    between atoms: CA_2  and  N_1 
REMARK    2  A    between atoms: C_3  and  CA_2 
REMARK    3  A    between atoms: CA_2  and  CB_5 
REMARK       I    between atoms: N_14  and  C_3 
REMARK    4  A    between atoms: CB_5  and  OG_6 
REMARK    5  A    between atoms: CA_15  and  N_14 
REMARK    6  A    between atoms: C_16  and  CA_15 
REMARK    7  A    between atoms: CA_15  and  CB_18 
REMARK       I    between atoms: N_32  and  C_16 
REMARK    8  A    between atoms: CB_18  and  CG_19 
REMARK    9  A    between atoms: CA_33  and  N_32 
REMARK   10  A    between atoms: C_34  and  CA_33 
REMARK   11  A    between atoms: CA_33  and  CB_36 
REMARK       I    between atoms: N_56  and  C_34 
REMARK   12  A    between atoms: CB_36  and  CG_37 
REMARK   13  A    between atoms: CG_37  and  CD_38 
REMARK   14  A    between atoms: CD_38  and  NE_39 
REMARK       I    between atoms: NE_39  and  CZ_40 
REMARK       I    between atoms: CZ_40  and  NH1_41 
REMARK   15  A    between atoms: C_58  and  CA_57 
REMARK       I    between atoms: N_70  and  C_58 
REMARK   16  A    between atoms: C_72  and  CA_71 
REMARK       I    between atoms: N_84  and  C_72 
REMARK   17  A    between atoms: C_86  and  CA_85 
REMARK       I    between atoms: N_98  and  C_86 
REMARK   18  A    between atoms: C_100  and  CA_99 
REMARK       I    between atoms: N_112  and  C_100 
REMARK   19  A    between atoms: CA_113  and  N_112 
REMARK   20  A    between atoms: C_114  and  CA_113 
REMARK       I    between atoms: N_119  and  C_114 
REMARK   21  A    between atoms: CA_120  and  N_119 
REMARK   22  A    between atoms: C_121  and  CA_120 
REMARK   23  A    between atoms: CA_120  and  CB_123 
REMARK       I    between atoms: N_137  and  C_121 
REMARK   24  A    between atoms: CB_123  and  CG_124 
REMARK   25  A    between atoms: CA_138  and  N_137 
REMARK   26  A    between atoms: C_139  and  CA_138 
REMARK   27  A    between atoms: CA_138  and  CB_141 
REMARK       I    between atoms: N_161  and  C_139 
REMARK   28  A    between atoms: CB_141  and  CG_142 
REMARK   29  A    between atoms: CG_142  and  CD_143 
REMARK   30  A    between atoms: CD_143  and  NE_144 
REMARK       I    between atoms: NE_144  and  CZ_145 
REMARK       I    between atoms: CZ_145  and  NH1_146 
REMARK   31  A    between atoms: CA_162  and  N_161 
REMARK   32  A    between atoms: CA_162  and  C_163 
REMARK   33  A    between atoms: CB_165  and  CA_162 
REMARK   34  A    between atoms: CB_165  and  CG1_166 
REMARK   35  A    between atoms: CB_165  and  CG2_167 
ROOT
ATOM      1  C   PRO d   1      11.145   1.605   2.639  0.00  0.00     0.243 C 
ATOM      2  O   PRO d   1      11.020   2.099   3.759  0.00  0.00    -0.271 OA
ATOM      3  H42 PRO d   1       8.399   1.805   2.925  0.00  0.00     0.087 H 
ATOM      4  N   PRO d   1      10.128   0.969   2.029  0.00  0.00    -0.337 N 
ATOM      5  CA  PRO d   1       8.811   0.822   2.654  0.00  0.00     0.092 C 
ATOM      6  CB  PRO d   1       7.964   0.158   1.563  0.00  0.00    -0.036 C 
ATOM      7  CG  PRO d   1       8.948  -0.516   0.672  0.00  0.00    -0.048 C 
ATOM      8  CD  PRO d   1      10.182   0.341   0.699  0.00  0.00    -0.001 C 
ATOM      9  H43 PRO d   1       7.390   0.913   1.005  0.00  0.00     0.036 H 
ATOM     10  H44 PRO d   1       7.273  -0.577   2.003  0.00  0.00     0.036 H 
ATOM     11  H45 PRO d   1       8.552  -0.585  -0.352  0.00  0.00     0.035 H 
ATOM     12  H46 PRO d   1       9.175  -1.525   1.046  0.00  0.00     0.035 H 
ATOM     13  H47 PRO d   1      11.089  -0.271   0.589  0.00  0.00     0.064 H 
ATOM     14  H48 PRO d   1      10.152   1.100  -0.097  0.00  0.00     0.064 H 
ENDROOT
BRANCH   1  15
ATOM     15  CA  PRO d   1      12.478   1.692   1.897  0.00  0.00     0.092 C 
ATOM     16  H35 PRO d   1      12.339   1.353   0.860  0.00  0.00     0.087 H 
ATOM     17  N   PRO d   1      13.033   3.046   1.923  0.00  0.00    -0.337 N 
ATOM     18  C   PRO d   1      12.461   4.076   1.283  0.00  0.00     0.243 C 
ATOM     19  CD  PRO d   1      14.261   3.121   2.724  0.00  0.00    -0.001 C 
ATOM     20  O   PRO d   1      11.427   3.947   0.629  0.00  0.00    -0.271 OA
ATOM     21  CG  PRO d   1      14.751   1.703   2.721  0.00  0.00    -0.048 C 
ATOM     22  H40 PRO d   1      14.046   3.463   3.747  0.00  0.00     0.064 H 
ATOM     23  H41 PRO d   1      14.996   3.795   2.259  0.00  0.00     0.064 H 
ATOM     24  CB  PRO d   1      13.537   0.839   2.614  0.00  0.00    -0.036 C 
ATOM     25  H38 PRO d   1      15.417   1.532   1.862  0.00  0.00     0.035 H 
ATOM     26  H39 PRO d   1      15.292   1.485   3.654  0.00  0.00     0.035 H 
ATOM     27  H36 PRO d   1      13.761  -0.065   2.029  0.00  0.00     0.036 H 
ATOM     28  H37 PRO d   1      13.183   0.550   3.615  0.00  0.00     0.036 H 
BRANCH  18  29
ATOM     29  CA  PRO d   1      13.149   5.433   1.401  0.00  0.00     0.092 C 
ATOM     30  H28 PRO d   1      14.233   5.302   1.269  0.00  0.00     0.087 H 
ATOM     31  N   PRO d   1      12.626   6.409   0.444  0.00  0.00    -0.337 N 
ATOM     32  C   ARG d   1      12.966   6.411  -0.853  0.00  0.00     0.243 C 
ATOM     33  CD  PRO d   1      11.698   7.362   1.079  0.00  0.00    -0.001 C 
ATOM     34  O   ARG d   1      13.747   5.587  -1.327  0.00  0.00    -0.271 OA
ATOM     35  CG  PRO d   1      11.601   6.873   2.502  0.00  0.00    -0.048 C 
ATOM     36  H33 PRO d   1      10.714   7.338   0.588  0.00  0.00     0.064 H 
ATOM     37  H34 PRO d   1      12.101   8.385   1.042  0.00  0.00     0.064 H 
ATOM     38  CB  PRO d   1      12.833   6.071   2.750  0.00  0.00    -0.036 C 
ATOM     39  H31 PRO d   1      11.555   7.725   3.196  0.00  0.00     0.035 H 
ATOM     40  H32 PRO d   1      10.706   6.247   2.630  0.00  0.00     0.035 H 
ATOM     41  H29 PRO d   1      13.660   6.719   3.077  0.00  0.00     0.036 H 
ATOM     42  H30 PRO d   1      12.648   5.299   3.512  0.00  0.00     0.036 H 
BRANCH  32  43
ATOM     43  CA  ARG d   1      12.334   7.491  -1.731  0.00  0.00     0.089 C 
ATOM     44  H16 ARG d   1      12.257   8.415  -1.139  0.00  0.00     0.087 H 
BRANCH  43  45
ATOM     45  N   ARG d   1      13.160   7.766  -2.900  0.00  0.00    -0.346 N 
ATOM     46  C   HIS d   1      13.035   8.896  -3.588  0.00  0.00     0.241 C 
ATOM     47  O   HIS d   1      12.227   9.776  -3.289  0.00  0.00    -0.271 OA
ATOM     48  H15 ARG d   1      13.836   7.089  -3.191  0.00  0.00     0.163 HD
BRANCH  46  49
ATOM     49  CA  HIS d   1      13.959   9.062  -4.790  0.00  0.00     0.094 C 
ATOM     50  H9  HIS d   1      13.783   8.227  -5.484  0.00  0.00     0.088 H 
BRANCH  49  51
ATOM     51  N   HIS d   1      13.681  10.310  -5.490  0.00  0.00    -0.346 N 
ATOM     52  C   SER d   1      12.501  10.542  -6.058  0.00  0.00     0.251 C 
ATOM     53  O   SER d   1      11.575   9.731  -6.034  0.00  0.00    -0.271 OA
ATOM     54  H8  HIS d   1      14.395  11.008  -5.544  0.00  0.00     0.163 HD
BRANCH  52  55
ATOM     55  CA  SER d   1      12.342  11.889  -6.756  0.00  0.00     0.195 C 
ATOM     56  H4  SER d   1      11.365  11.911  -7.261  0.00  0.00     0.102 H 
BRANCH  55  57
ATOM     57  N   SER d   1      12.408  13.011  -5.783  0.00  0.00    -0.064 N 
ATOM     58  H1  SER d   1      12.300  13.886  -6.271  0.00  0.00     0.275 HD
ATOM     59  H2  SER d   1      13.300  12.996  -5.313  0.00  0.00     0.275 HD
ATOM     60  H3  SER d   1      11.669  12.912  -5.105  0.00  0.00     0.275 HD
ENDBRANCH  55  57
BRANCH  55  61
ATOM     61  CB  SER d   1      13.450  12.078  -7.794  0.00  0.00     0.051 C 
ATOM     62  H5  SER d   1      13.127  11.637  -8.748  0.00  0.00     0.077 H 
ATOM     63  H6  SER d   1      14.361  11.570  -7.444  0.00  0.00     0.077 H 
BRANCH  61  64
ATOM     64  OG  SER d   1      13.734  13.452  -7.992  0.00  0.00    -0.398 OA
ATOM     65  H7  SER d   1      14.424  13.542  -8.639  0.00  0.00     0.209 HD
ENDBRANCH  61  64
ENDBRANCH  55  61
ENDBRANCH  52  55
ENDBRANCH  49  51
BRANCH  49  66
ATOM     66  CB  HIS d   1      15.419   9.021  -4.337  0.00  0.00     0.004 C 
ATOM     67  H10 HIS d   1      16.061   9.079  -5.228  0.00  0.00     0.046 H 
ATOM     68  H11 HIS d   1      15.596   8.067  -3.819  0.00  0.00     0.046 H 
BRANCH  66  69
ATOM     69  CG  HIS d   1      15.790  10.138  -3.412  0.00  0.00     0.053 A 
ATOM     70  ND1 HIS d   1      16.918  10.913  -3.580  0.00  0.00    -0.247 NA
ATOM     71  CE1 HIS d   1      16.980  11.813  -2.615  0.00  0.00     0.064 A 
ATOM     72  H13 HIS d   1      17.761  12.561  -2.491  0.00  0.00     0.143 H 
ATOM     73  NE2 HIS d   1      15.934  11.651  -1.827  0.00  0.00    -0.359 N 
ATOM     74  CD2 HIS d   1      15.174  10.611  -2.302  0.00  0.00     0.002 A 
ATOM     75  H14 HIS d   1      15.722  12.214  -0.991  0.00  0.00     0.166 HD
ATOM     76  H12 HIS d   1      14.248  10.236  -1.867  0.00  0.00     0.114 H 
ENDBRANCH  66  69
ENDBRANCH  49  66
ENDBRANCH  46  49
ENDBRANCH  43  45
BRANCH  43  77
ATOM     77  CB  ARG d   1      10.921   7.074  -2.162  0.00  0.00    -0.036 C 
ATOM     78  H17 ARG d   1      10.671   7.612  -3.088  0.00  0.00     0.036 H 
ATOM     79  H18 ARG d   1      10.219   7.366  -1.367  0.00  0.00     0.036 H 
BRANCH  77  80
ATOM     80  CG  ARG d   1      10.756   5.583  -2.419  0.00  0.00    -0.048 C 
ATOM     81  H19 ARG d   1       9.692   5.367  -2.594  0.00  0.00     0.035 H 
ATOM     82  H20 ARG d   1      11.102   5.028  -1.534  0.00  0.00     0.035 H 
BRANCH  80  83
ATOM     83  CD  ARG d   1      11.557   5.128  -3.630  0.00  0.00     0.009 C 
ATOM     84  H21 ARG d   1      11.957   6.014  -4.144  0.00  0.00     0.064 H 
ATOM     85  H22 ARG d   1      10.890   4.580  -4.311  0.00  0.00     0.064 H 
BRANCH  83  86
ATOM     86  NE  ARG d   1      12.669   4.257  -3.257  0.00  0.00    -0.227 N 
ATOM     87  H23 ARG d   1      12.979   4.261  -2.275  0.00  0.00     0.177 HD
ATOM     88  CZ  ARG d   1      13.305   3.459  -4.112  0.00  0.00     0.665 C 
ATOM     89  NH1 ARG d   1      12.943   3.418  -5.388  0.00  0.00    -0.235 N 
ATOM     90  NH2 ARG d   1      14.308   2.702  -3.689  0.00  0.00    -0.235 N 
ATOM     91  H24 ARG d   1      13.439   2.798  -6.044  0.00  0.00     0.174 HD
ATOM     92  H25 ARG d   1      12.166   4.006  -5.722  0.00  0.00     0.174 HD
ATOM     93  H26 ARG d   1      14.593   2.730  -2.700  0.00  0.00     0.174 HD
ATOM     94  H27 ARG d   1      14.802   2.086  -4.350  0.00  0.00     0.174 HD
ENDBRANCH  83  86
ENDBRANCH  80  83
ENDBRANCH  77  80
ENDBRANCH  43  77
ENDBRANCH  32  43
ENDBRANCH  18  29
ENDBRANCH   1  15
BRANCH   5  95
ATOM     95  C   PRO d   1       8.868  -0.059   3.897  0.00  0.00     0.243 C 
ATOM     96  O   PRO d   1       9.764  -0.893   4.034  0.00  0.00    -0.271 OA
ATOM     97  N   PRO d   1       7.913   0.110   4.825  0.00  0.00    -0.337 N 
ATOM     98  CA  PRO d   1       7.869  -0.680   6.057  0.00  0.00     0.091 C 
ATOM     99  CD  PRO d   1       6.806   1.076   4.747  0.00  0.00    -0.001 C 
ATOM    100  H49 PRO d   1       8.785  -0.522   6.645  0.00  0.00     0.087 H 
ATOM    101  CB  PRO d   1       6.646  -0.143   6.805  0.00  0.00    -0.036 C 
ATOM    102  H50 PRO d   1       6.956   0.550   7.601  0.00  0.00     0.036 H 
ATOM    103  CG  PRO d   1       5.835   0.571   5.778  0.00  0.00    -0.048 C 
ATOM    104  H51 PRO d   1       6.069  -0.971   7.244  0.00  0.00     0.036 H 
ATOM    105  H52 PRO d   1       5.295   1.413   6.237  0.00  0.00     0.035 H 
ATOM    106  H53 PRO d   1       5.114  -0.119   5.316  0.00  0.00     0.035 H 
ATOM    107  H54 PRO d   1       6.353   1.076   3.745  0.00  0.00     0.064 H 
ATOM    108  H55 PRO d   1       7.150   2.091   4.994  0.00  0.00     0.064 H 
BRANCH  98 109
ATOM    109  C   PRO d   1       7.705  -2.167   5.780  0.00  0.00     0.241 C 
ATOM    110  O   PRO d   1       7.633  -2.592   4.627  0.00  0.00    -0.271 OA
ATOM    111  N   GLY d   1       7.645  -2.949   6.847  0.00  0.00    -0.351 N 
ATOM    112  H56 GLY d   1       7.709  -2.546   7.760  0.00  0.00     0.163 HD
BRANCH 111 113
ATOM    113  CA  GLY d   1       7.488  -4.381   6.706  0.00  0.00     0.069 C 
ATOM    114  H57 GLY d   1       6.726  -4.579   5.938  0.00  0.00     0.078 H 
ATOM    115  H58 GLY d   1       7.154  -4.796   7.668  0.00  0.00     0.078 H 
BRANCH 113 116
ATOM    116  C   GLY d   1       8.776  -5.067   6.301  0.00  0.00     0.236 C 
ATOM    117  O   GLY d   1       9.471  -5.633   7.143  0.00  0.00    -0.272 OA
ATOM    118  N   HIS d   1       9.092  -5.009   5.008  0.00  0.00    -0.346 N 
ATOM    119  H59 HIS d   1       8.475  -4.531   4.383  0.00  0.00     0.163 HD
BRANCH 118 120
ATOM    120  CA  HIS d   1      10.309  -5.619   4.469  0.00  0.00     0.094 C 
ATOM    121  H60 HIS d   1      10.176  -5.744   3.384  0.00  0.00     0.088 H 
BRANCH 120 122
ATOM    122  C   HIS d   1      10.569  -6.996   5.073  0.00  0.00     0.241 C 
ATOM    123  O   HIS d   1       9.684  -7.597   5.681  0.00  0.00    -0.271 OA
ATOM    124  N   ARG d   1      11.796  -7.482   4.911  0.00  0.00    -0.346 N 
ATOM    125  H66 ARG d   1      12.471  -6.944   4.406  0.00  0.00     0.163 HD
BRANCH 124 126
ATOM    126  CA  ARG d   1      12.182  -8.778   5.450  0.00  0.00     0.089 C 
ATOM    127  H67 ARG d   1      12.139  -8.723   6.548  0.00  0.00     0.087 H 
BRANCH 126 128
ATOM    128  C   ARG d   1      13.608  -9.135   5.039  0.00  0.00     0.241 C 
ATOM    129  O   ARG d   1      13.866  -9.472   3.884  0.00  0.00    -0.271 OA
ATOM    130  N   VAL d   1      14.528  -9.056   5.993  0.00  0.00    -0.344 N 
ATOM    131  H79 VAL d   1      14.254  -8.775   6.913  0.00  0.00     0.163 HD
BRANCH 130 132
ATOM    132  CA  VAL d   1      15.928  -9.369   5.733  0.00  0.00     0.099 C 
ATOM    133  H80 VAL d   1      15.983  -9.928   4.787  0.00  0.00     0.090 H 
BRANCH 132 134
ATOM    134  C   VAL d   1      16.514 -10.234   6.844  0.00  0.00     0.197 C 
ATOM    135  O   VAL d   1      16.616 -11.463   6.644  0.00  0.00    -0.646 OA
ATOM    136  OXT VAL d   1      16.866  -9.675   7.904  0.00  0.00    -0.646 OA
ENDBRANCH 132 134
BRANCH 132 137
ATOM    137  CB  VAL d   1      16.773  -8.090   5.594  0.00  0.00    -0.032 C 
ATOM    138  H81 VAL d   1      17.834  -8.378   5.567  0.00  0.00     0.042 H 
BRANCH 137 139
ATOM    139  CG1 VAL d   1      16.443  -7.369   4.297  0.00  0.00    -0.071 C 
ATOM    140  H82 VAL d   1      17.056  -6.459   4.217  0.00  0.00     0.028 H 
ATOM    141  H83 VAL d   1      15.378  -7.095   4.291  0.00  0.00     0.028 H 
ATOM    142  H84 VAL d   1      16.656  -8.031   3.445  0.00  0.00     0.028 H 
ENDBRANCH 137 139
BRANCH 137 143
ATOM    143  CG2 VAL d   1      16.557  -7.176   6.791  0.00  0.00    -0.071 C 
ATOM    144  H85 VAL d   1      16.802  -7.719   7.716  0.00  0.00     0.028 H 
ATOM    145  H86 VAL d   1      15.505  -6.855   6.822  0.00  0.00     0.028 H 
ATOM    146  H87 VAL d   1      17.208  -6.294   6.701  0.00  0.00     0.028 H 
ENDBRANCH 137 143
ENDBRANCH 132 137
ENDBRANCH 130 132
ENDBRANCH 126 128
BRANCH 126 147
ATOM    147  CB  ARG d   1      11.216  -9.868   4.980  0.00  0.00    -0.036 C 
ATOM    148  H68 ARG d   1      10.271  -9.756   5.531  0.00  0.00     0.036 H 
ATOM    149  H69 ARG d   1      11.660 -10.848   5.209  0.00  0.00     0.036 H 
BRANCH 147 150
ATOM    150  CG  ARG d   1      10.913  -9.814   3.491  0.00  0.00    -0.048 C 
ATOM    151  H70 ARG d   1      11.618 -10.469   2.959  0.00  0.00     0.035 H 
ATOM    152  H71 ARG d   1      11.036  -8.779   3.139  0.00  0.00     0.035 H 
BRANCH 150 153
ATOM    153  CD  ARG d   1       9.494 -10.271   3.193  0.00  0.00     0.009 C 
ATOM    154  H72 ARG d   1       9.193  -9.878   2.211  0.00  0.00     0.064 H 
ATOM    155  H73 ARG d   1       8.823  -9.873   3.968  0.00  0.00     0.064 H 
BRANCH 153 156
ATOM    156  NE  ARG d   1       9.380 -11.729   3.173  0.00  0.00    -0.227 N 
ATOM    157  H74 ARG d   1      10.162 -12.281   3.553  0.00  0.00     0.177 HD
ATOM    158  CZ  ARG d   1       8.327 -12.384   2.693  0.00  0.00     0.665 C 
ATOM    159  NH1 ARG d   1       7.294 -11.718   2.191  0.00  0.00    -0.235 N 
ATOM    160  NH2 ARG d   1       8.305 -13.710   2.714  0.00  0.00    -0.235 N 
ATOM    161  H75 ARG d   1       6.481 -12.231   1.821  0.00  0.00     0.174 HD
ATOM    162  H76 ARG d   1       7.305 -10.688   2.172  0.00  0.00     0.174 HD
ATOM    163  H77 ARG d   1       9.103 -14.232   3.102  0.00  0.00     0.174 HD
ATOM    164  H78 ARG d   1       7.489 -14.217   2.342  0.00  0.00     0.174 HD
ENDBRANCH 153 156
ENDBRANCH 150 153
ENDBRANCH 147 150
ENDBRANCH 126 147
ENDBRANCH 124 126
ENDBRANCH 120 122
BRANCH 120 165
ATOM    165  CB  HIS d   1      11.510  -4.692   4.703  0.00  0.00     0.004 C 
ATOM    166  H61 HIS d   1      11.217  -3.675   4.405  0.00  0.00     0.046 H 
ATOM    167  H62 HIS d   1      12.336  -5.038   4.064  0.00  0.00     0.046 H 
BRANCH 165 168
ATOM    168  CG  HIS d   1      12.011  -4.634   6.116  0.00  0.00     0.053 A 
ATOM    169  ND1 HIS d   1      12.527  -3.485   6.647  0.00  0.00    -0.247 NA
ATOM    170  CE1 HIS d   1      12.911  -3.702   7.893  0.00  0.00     0.064 A 
ATOM    171  H64 HIS d   1      13.359  -2.967   8.560  0.00  0.00     0.143 H 
ATOM    172  NE2 HIS d   1      12.659  -4.961   8.190  0.00  0.00    -0.359 N 
ATOM    173  CD2 HIS d   1      12.096  -5.571   7.097  0.00  0.00     0.002 A 
ATOM    174  H65 HIS d   1      12.853  -5.413   9.095  0.00  0.00     0.166 HD
ATOM    175  H63 HIS d   1      11.777  -6.610   7.029  0.00  0.00     0.114 H 
ENDBRANCH 165 168
ENDBRANCH 120 165
ENDBRANCH 118 120
ENDBRANCH 113 116
ENDBRANCH 111 113
ENDBRANCH  98 109
ENDBRANCH   5  95
TORSDOF 35
