REMARK  3 active torsions:
REMARK  status: ('A' for Active; 'I' for Inactive)
REMARK    1  A    between atoms: N1_1  and  C10_3 
REMARK    2  A    between atoms: N3_5  and  C12_7 
REMARK    3  A    between atoms: N7_12  and  C14_14 
ROOT
ATOM      1  N1  CFF d   1      38.696 -58.440 101.938  0.00  0.00    -0.269 N 
ATOM      2  C2  CFF d   1      37.425 -58.134 102.720  0.00  0.00     0.332 A 
ATOM      3  C6  CFF d   1      38.741 -58.984 100.637  0.00  0.00     0.282 A 
ATOM      4  N3  CFF d   1      36.324 -58.434 102.049  0.00  0.00    -0.286 N 
ATOM      5  O11 CFF d   1      37.551 -57.677 103.803  0.00  0.00    -0.246 OA
ATOM      6  C4  CFF d   1      36.310 -58.987 100.736  0.00  0.00     0.167 A 
ATOM      7  C5  CFF d   1      37.463 -59.260 100.045  0.00  0.00     0.151 A 
ATOM      8  N9  CFF d   1      35.249 -59.296 100.049  0.00  0.00    -0.223 NA
ATOM      9  O13 CFF d   1      39.875 -59.206 100.065  0.00  0.00    -0.265 OA
ATOM     10  N7  CFF d   1      37.053 -59.794  98.811  0.00  0.00    -0.338 N 
ATOM     11  C8  CFF d   1      35.713 -59.785  98.888  0.00  0.00     0.068 A 
ATOM     12  H7  CFF d   1      35.066 -60.140  98.087  0.00  0.00     0.143 H 
ENDROOT
BRANCH   1  13
ATOM     13  C10 CFF d   1      39.942 -58.114 102.677  0.00  0.00    -0.007 C 
ATOM     14  H1  CFF d   1      39.686 -57.704 103.665  0.00  0.00     0.057 H 
ATOM     15  H2  CFF d   1      40.521 -57.370 102.110  0.00  0.00     0.057 H 
ATOM     16  H3  CFF d   1      40.543 -59.027 102.804  0.00  0.00     0.057 H 
ENDBRANCH   1  13
BRANCH   4  17
ATOM     17  C12 CFF d   1      34.997 -58.178 102.715  0.00  0.00    -0.008 C 
ATOM     18  H4  CFF d   1      35.165 -57.754 103.716  0.00  0.00     0.057 H 
ATOM     19  H5  CFF d   1      34.444 -59.124 102.806  0.00  0.00     0.057 H 
ATOM     20  H6  CFF d   1      34.413 -57.469 102.109  0.00  0.00     0.057 H 
ENDBRANCH   4  17
BRANCH  10  21
ATOM     21  C14 CFF d   1      37.890 -60.258  97.698  0.00  0.00    -0.013 C 
ATOM     22  H8  CFF d   1      38.951 -60.127  97.958  0.00  0.00     0.057 H 
ATOM     23  H9  CFF d   1      37.658 -59.672  96.796  0.00  0.00     0.057 H 
ATOM     24  H10 CFF d   1      37.688 -61.322  97.506  0.00  0.00     0.057 H 
ENDBRANCH  10  21
TORSDOF 3
