REMARK  11 active torsions:
REMARK  status: ('A' for Active; 'I' for Inactive)
REMARK    1  A    between atoms: C7_11  and  C7M_12 
REMARK    2  A    between atoms: C8_13  and  C8M_14 
REMARK    3  A    between atoms: N10_17  and  C1_19 
REMARK    4  A    between atoms: C1_19  and  C2_20 
REMARK    5  A    between atoms: C2_20  and  O2_21 
REMARK    6  A    between atoms: C2_20  and  C3_22 
REMARK    7  A    between atoms: C3_22  and  O3_23 
REMARK    8  A    between atoms: C3_22  and  C4_24 
REMARK    9  A    between atoms: C4_24  and  O4_25 
REMARK   10  A    between atoms: C4_24  and  C5_26 
REMARK   11  A    between atoms: C5_26  and  O5_27 
ROOT
ATOM      1  N1  RBF d   1      36.150 -58.729  99.842  0.00  0.00    -0.292 N 
ATOM      2  C2  RBF d   1      36.328 -59.300  98.578  0.00  0.00     0.328 A 
ATOM      3  O2  RBF d   1      35.465 -59.482  97.770  0.00  0.00    -0.247 OA
ATOM      4  N3  RBF d   1      37.619 -59.686  98.252  0.00  0.00    -0.273 N 
ATOM      5  C4  RBF d   1      38.681 -59.526  99.134  0.00  0.00     0.282 A 
ATOM      6  O4  RBF d   1      39.839 -59.856  98.892  0.00  0.00    -0.265 OA
ATOM      7  C4A RBF d   1      38.449 -58.919 100.506  0.00  0.00     0.169 A 
ATOM      8  N5  RBF d   1      39.454 -58.799 101.314  0.00  0.00    -0.237 NA
ATOM      9  C5A RBF d   1      39.196 -58.239 102.577  0.00  0.00     0.085 A 
ATOM     10  C6  RBF d   1      40.282 -58.115 103.479  0.00  0.00    -0.047 A 
ATOM     11  C7  RBF d   1      40.080 -57.565 104.751  0.00  0.00    -0.054 A 
ATOM     12  C8  RBF d   1      38.728 -57.115 105.128  0.00  0.00    -0.054 A 
ATOM     13  C9  RBF d   1      37.655 -57.218 104.278  0.00  0.00    -0.048 A 
ATOM     14  C9A RBF d   1      37.905 -57.794 102.987  0.00  0.00     0.065 A 
ATOM     15  N10 RBF d   1      36.884 -57.967 102.018  0.00  0.00    -0.326 N 
ATOM     16  C10 RBF d   1      37.105 -58.527 100.784  0.00  0.00     0.147 A 
ATOM     17  H1  RBF d   1      35.222 -58.439 100.076  0.00  0.00     0.172 HD
ATOM     18  H2  RBF d   1      37.791 -60.092  97.355  0.00  0.00     0.173 HD
ATOM     19  H3  RBF d   1      41.271 -58.447 103.184  0.00  0.00     0.088 H 
ATOM     20  H10 RBF d   1      36.666 -56.881 104.568  0.00  0.00     0.087 H 
ENDROOT
BRANCH  15  21
ATOM     21  C1  RBF d   1      35.450 -57.522 102.308  0.00  0.00     0.028 C 
ATOM     22  H11 RBF d   1      34.917 -57.371 101.358  0.00  0.00     0.069 H 
ATOM     23  H12 RBF d   1      35.470 -56.578 102.872  0.00  0.00     0.069 H 
BRANCH  21  24
ATOM     24  C2  RBF d   1      34.709 -58.606 103.146  0.00  0.00     0.078 C 
ATOM     25  H13 RBF d   1      35.294 -58.827 104.051  0.00  0.00     0.089 H 
BRANCH  24  26
ATOM     26  O2  RBF d   1      34.518 -59.821 102.357  0.00  0.00    -0.391 OA
ATOM     27  H14 RBF d   1      34.001 -59.619 101.586  0.00  0.00     0.210 HD
ENDBRANCH  24  26
BRANCH  24  28
ATOM     28  C3  RBF d   1      33.312 -58.139 103.526  0.00  0.00     0.088 C 
ATOM     29  H15 RBF d   1      32.797 -58.933 104.086  0.00  0.00     0.091 H 
BRANCH  28  30
ATOM     30  O3  RBF d   1      32.669 -57.922 102.294  0.00  0.00    -0.390 OA
ATOM     31  H16 RBF d   1      32.651 -58.733 101.800  0.00  0.00     0.210 HD
ENDBRANCH  28  30
BRANCH  28  32
ATOM     32  C4  RBF d   1      33.307 -56.902 104.357  0.00  0.00     0.083 C 
ATOM     33  H17 RBF d   1      33.449 -56.071 103.651  0.00  0.00     0.090 H 
BRANCH  32  34
ATOM     34  O4  RBF d   1      34.249 -56.717 105.408  0.00  0.00    -0.391 OA
ATOM     35  H18 RBF d   1      34.096 -55.877 105.825  0.00  0.00     0.210 HD
ENDBRANCH  32  34
BRANCH  32  36
ATOM     36  C5  RBF d   1      31.913 -56.732 105.084  0.00  0.00     0.043 C 
ATOM     37  H19 RBF d   1      31.850 -57.331 106.004  0.00  0.00     0.078 H 
ATOM     38  H20 RBF d   1      31.069 -56.982 104.425  0.00  0.00     0.078 H 
BRANCH  36  39
ATOM     39  O5  RBF d   1      31.986 -55.333 105.357  0.00  0.00    -0.398 OA
ATOM     40  H21 RBF d   1      32.742 -55.157 105.904  0.00  0.00     0.209 HD
ENDBRANCH  36  39
ENDBRANCH  32  36
ENDBRANCH  28  32
ENDBRANCH  24  28
ENDBRANCH  21  24
ENDBRANCH  15  21
BRANCH  12  41
ATOM     41  C8M RBF d   1      38.478 -56.497 106.543  0.00  0.00    -0.051 C 
ATOM     42  H7  RBF d   1      37.417 -56.223 106.641  0.00  0.00     0.033 H 
ATOM     43  H8  RBF d   1      39.102 -55.599 106.667  0.00  0.00     0.033 H 
ATOM     44  H9  RBF d   1      38.739 -57.234 107.317  0.00  0.00     0.033 H 
ENDBRANCH  12  41
BRANCH  11  45
ATOM     45  C7M RBF d   1      41.186 -57.397 105.800  0.00  0.00    -0.051 C 
ATOM     46  H4  RBF d   1      42.137 -57.770 105.393  0.00  0.00     0.033 H 
ATOM     47  H5  RBF d   1      40.925 -57.968 106.703  0.00  0.00     0.033 H 
ATOM     48  H6  RBF d   1      41.289 -56.332 106.057  0.00  0.00     0.033 H 
ENDBRANCH  11  45
TORSDOF 11
