REMARK  0 active torsions:
REMARK  status: ('A' for Active; 'I' for Inactive)
ROOT
ATOM      1  N1  URC d   1      38.217 -59.800  98.395  0.00  0.00    -0.273 N 
ATOM      2  C2  URC d   1      36.879 -59.858  98.272  0.00  0.00     0.328 A 
ATOM      3  C6  URC d   1      38.820 -59.260  99.467  0.00  0.00     0.280 A 
ATOM      4  N3  URC d   1      36.075 -59.372  99.225  0.00  0.00    -0.292 N 
ATOM      5  O11 URC d   1      36.388 -60.365  97.276  0.00  0.00    -0.247 OA
ATOM      6  C4  URC d   1      36.584 -58.819 100.325  0.00  0.00     0.146 A 
ATOM      7  C5  URC d   1      37.918 -58.723 100.521  0.00  0.00     0.149 A 
ATOM      8  N9  URC d   1      36.036 -58.287 101.377  0.00  0.00    -0.292 N 
ATOM      9  O13 URC d   1      40.032 -59.193  99.613  0.00  0.00    -0.265 OA
ATOM     10  N7  URC d   1      38.101 -58.147 101.671  0.00  0.00    -0.301 N 
ATOM     11  C8  URC d   1      36.945 -57.866 102.224  0.00  0.00     0.326 A 
ATOM     12  O24 URC d   1      36.753 -57.327 103.300  0.00  0.00    -0.247 OA
ATOM     13  H1  URC d   1      38.784 -60.173  97.661  0.00  0.00     0.173 HD
ATOM     14  H2  URC d   1      35.083 -59.424  99.110  0.00  0.00     0.172 HD
ATOM     15  H3  URC d   1      35.050 -58.209 101.522  0.00  0.00     0.172 HD
ATOM     16  H4  URC d   1      38.993 -57.947 102.076  0.00  0.00     0.171 HD
ENDROOT
TORSDOF 0
