REMARK  9 active torsions:
REMARK  status: ('A' for Active; 'I' for Inactive)
REMARK    1  A    between atoms: C7_1  and  C8_2 
REMARK    2  A    between atoms: C6_14  and  C7_1 
REMARK    3  A    between atoms: C8_2  and  C9_3 
REMARK    4  A    between atoms: C9_3  and  C10_4 
REMARK    5  A    between atoms: C2_10  and  C1_8 
REMARK    6  A    between atoms: C3_11  and  C2_10 
REMARK    7  A    between atoms: C4_12  and  C3_11 
REMARK    8  A    between atoms: C5_13  and  C4_12 
REMARK    9  A    between atoms: C5_13  and  C6_14 
ROOT
ATOM      1  C5  4OX d   1      21.061  88.395  53.724  0.00  0.00    -0.065 C 
ATOM      2  H13 4OX d   1      20.418  87.593  54.114  0.00  0.00     0.033 H 
ATOM      3  H14 4OX d   1      20.782  89.350  54.194  0.00  0.00     0.033 H 
ENDROOT
BRANCH   1   4
ATOM      4  C4  4OX d   1      20.836  88.511  52.201  0.00  0.00    -0.065 C 
ATOM      5  H11 4OX d   1      21.299  87.629  51.736  0.00  0.00     0.033 H 
ATOM      6  H12 4OX d   1      19.750  88.488  52.030  0.00  0.00     0.033 H 
BRANCH   4   7
ATOM      7  C3  4OX d   1      21.371  89.719  51.492  0.00  0.00    -0.056 C 
ATOM      8  H9  4OX d   1      20.734  90.584  51.729  0.00  0.00     0.033 H 
ATOM      9  H10 4OX d   1      22.397  89.913  51.839  0.00  0.00     0.033 H 
BRANCH   7  10
ATOM     10  C2  4OX d   1      21.389  89.515  49.980  0.00  0.00     0.016 C 
ATOM     11  H7  4OX d   1      21.732  88.490  49.773  0.00  0.00     0.049 H 
ATOM     12  H8  4OX d   1      20.364  89.642  49.602  0.00  0.00     0.049 H 
BRANCH  10  13
ATOM     13  C1  4OX d   1      22.296  90.482  49.236  0.00  0.00     0.172 C 
ATOM     14  O1  4OX d   1      21.864  91.623  48.963  0.00  0.00    -0.648 OA
ATOM     15  OH1 4OX d   1      23.424  90.050  48.903  0.00  0.00    -0.648 OA
ENDBRANCH  10  13
ENDBRANCH   7  10
ENDBRANCH   4   7
ENDBRANCH   1   4
BRANCH   1  16
ATOM     16  C6  4OX d   1      22.555  88.068  54.096  0.00  0.00    -0.065 C 
ATOM     17  H15 4OX d   1      23.209  88.585  53.378  0.00  0.00     0.033 H 
ATOM     18  H16 4OX d   1      22.748  88.451  55.109  0.00  0.00     0.033 H 
BRANCH  16  19
ATOM     19  C7  4OX d   1      22.917  86.526  54.073  0.00  0.00    -0.065 C 
ATOM     20  H1  4OX d   1      22.397  86.030  54.906  0.00  0.00     0.033 H 
ATOM     21  H2  4OX d   1      22.573  86.098  53.120  0.00  0.00     0.033 H 
BRANCH  19  22
ATOM     22  C8  4OX d   1      24.417  86.269  54.211  0.00  0.00    -0.056 C 
ATOM     23  H3  4OX d   1      24.616  85.209  53.993  0.00  0.00     0.033 H 
ATOM     24  H4  4OX d   1      24.721  86.494  55.244  0.00  0.00     0.033 H 
BRANCH  22  25
ATOM     25  C9  4OX d   1      25.261  87.149  53.236  0.00  0.00     0.016 C 
ATOM     26  H5  4OX d   1      24.972  88.201  53.377  0.00  0.00     0.049 H 
ATOM     27  H6  4OX d   1      25.035  86.842  52.204  0.00  0.00     0.049 H 
BRANCH  25  28
ATOM     28  C10 4OX d   1      26.822  87.021  53.468  0.00  0.00     0.172 C 
ATOM     29  OT1 4OX d   1      27.498  86.110  52.838  0.00  0.00    -0.648 OA
ATOM     30  OT2 4OX d   1      27.354  87.858  54.274  0.00  0.00    -0.648 OA
ENDBRANCH  25  28
ENDBRANCH  22  25
ENDBRANCH  19  22
ENDBRANCH  16  19
ENDBRANCH   1  16
TORSDOF 9
