REMARK  3 active torsions:
REMARK  status: ('A' for Active; 'I' for Inactive)
REMARK    1  A    between atoms: N1_1  and  C10_3 
REMARK    2  A    between atoms: N3_5  and  C12_7 
REMARK    3  A    between atoms: N7_12  and  C14_14 
ROOT
ATOM      1  N1  CFF d   1      38.415 -58.129 101.338  0.00  0.00    -0.269 N 
ATOM      2  C2  CFF d   1      37.197 -57.848 102.226  0.00  0.00     0.332 A 
ATOM      3  C6  CFF d   1      38.375 -58.665 100.058  0.00  0.00     0.282 A 
ATOM      4  N3  CFF d   1      36.053 -58.177 101.635  0.00  0.00    -0.286 N 
ATOM      5  O11 CFF d   1      37.397 -57.382 103.312  0.00  0.00    -0.246 OA
ATOM      6  C4  CFF d   1      35.959 -58.738 100.308  0.00  0.00     0.167 A 
ATOM      7  C5  CFF d   1      37.066 -58.975  99.548  0.00  0.00     0.151 A 
ATOM      8  N9  CFF d   1      34.865 -59.083  99.681  0.00  0.00    -0.223 NA
ATOM      9  O13 CFF d   1      39.473 -58.851  99.421  0.00  0.00    -0.265 OA
ATOM     10  N7  CFF d   1      36.597 -59.520  98.342  0.00  0.00    -0.338 N 
ATOM     11  C8  CFF d   1      35.269 -59.555  98.494  0.00  0.00     0.068 A 
ATOM     12  H7  CFF d   1      34.587 -59.928  97.732  0.00  0.00     0.143 H 
ENDROOT
BRANCH   1  13
ATOM     13  C10 CFF d   1      39.725 -57.779 101.958  0.00  0.00    -0.007 C 
ATOM     14  H1  CFF d   1      39.556 -57.371 102.966  0.00  0.00     0.057 H 
ATOM     15  H2  CFF d   1      40.235 -57.026 101.338  0.00  0.00     0.057 H 
ATOM     16  H3  CFF d   1      40.350 -58.681 102.028  0.00  0.00     0.057 H 
ENDBRANCH   1  13
BRANCH   4  17
ATOM     17  C12 CFF d   1      34.777 -57.951 102.402  0.00  0.00    -0.008 C 
ATOM     18  H4  CFF d   1      35.013 -57.522 103.387  0.00  0.00     0.057 H 
ATOM     19  H5  CFF d   1      34.254 -58.910 102.535  0.00  0.00     0.057 H 
ATOM     20  H6  CFF d   1      34.132 -57.256 101.844  0.00  0.00     0.057 H 
ENDBRANCH   4  17
BRANCH  10  21
ATOM     21  C14 CFF d   1      37.391 -59.952  97.184  0.00  0.00    -0.013 C 
ATOM     22  H8  CFF d   1      38.459 -59.785  97.389  0.00  0.00     0.057 H 
ATOM     23  H9  CFF d   1      37.093 -59.372  96.298  0.00  0.00     0.057 H 
ATOM     24  H10 CFF d   1      37.216 -61.022  96.998  0.00  0.00     0.057 H 
ENDBRANCH  10  21
TORSDOF 3
