REMARK WARNING: 32 MAX_TORS EXCEEDED!!!
REMARK  42 active torsions:
REMARK  status: ('A' for Active; 'I' for Inactive)
REMARK    1  A    between atoms: N_1  and  CA_2 
REMARK    2  A    between atoms: CA_2  and  C_3 
REMARK    3  A    between atoms: CA_2  and  CB_5 
REMARK       I    between atoms: C_3  and  N_10 
REMARK    4  A    between atoms: CB_5  and  CG_6 
REMARK    5  A    between atoms: CG_6  and  CD_7 
REMARK    6  A    between atoms: CD_7  and  CE_8 
REMARK    7  A    between atoms: CE_8  and  NZ_9 
REMARK    8  A    between atoms: N_10  and  CA_11 
REMARK    9  A    between atoms: CA_11  and  C_12 
REMARK   10  A    between atoms: CA_11  and  CB_14 
REMARK       I    between atoms: C_12  and  N_19 
REMARK   11  A    between atoms: CB_14  and  CG_15 
REMARK   12  A    between atoms: CG_15  and  CD_16 
REMARK       I    between atoms: CD_16  and  NE2_18 
REMARK   13  A    between atoms: N_19  and  CA_20 
REMARK   14  A    between atoms: CA_20  and  C_21 
REMARK   15  A    between atoms: CA_20  and  CB_23 
REMARK       I    between atoms: C_21  and  N_28 
REMARK   16  A    between atoms: CB_23  and  CG_24 
REMARK   17  A    between atoms: CG_24  and  CD_25 
REMARK   18  A    between atoms: CA_29  and  C_30 
REMARK       I    between atoms: C_30  and  N_35 
REMARK   19  A    between atoms: N_35  and  CA_36 
REMARK   20  A    between atoms: CA_36  and  C_37 
REMARK   21  A    between atoms: CA_36  and  CB_39 
REMARK       I    between atoms: C_37  and  N_44 
REMARK   22  A    between atoms: CB_39  and  CG_40 
REMARK   23  A    between atoms: CG_40  and  CD_41 
REMARK       I    between atoms: CD_41  and  NE2_43 
REMARK   24  A    between atoms: N_44  and  CA_45 
REMARK   25  A    between atoms: CA_45  and  C_46 
REMARK   26  A    between atoms: CA_45  and  CB_48 
REMARK       I    between atoms: C_46  and  N_53 
REMARK   27  A    between atoms: CB_48  and  CG_49 
REMARK   28  A    between atoms: CG_49  and  CD_50 
REMARK   29  A    between atoms: N_53  and  CA_54 
REMARK   30  A    between atoms: CA_54  and  C_55 
REMARK   31  A    between atoms: CA_54  and  CB_57 
REMARK       I    between atoms: C_55  and  N_61 
REMARK   32  A    between atoms: CB_57  and  CG1_58 
REMARK   33  A    between atoms: CB_57  and  CG2_59 
REMARK   34  A    between atoms: CG1_58  and  CD1_60 
REMARK   35  A    between atoms: N_61  and  CA_62 
REMARK   36  A    between atoms: CA_62  and  C_63 
REMARK   37  A    between atoms: CA_62  and  CB_65 
REMARK       I    between atoms: C_63  and  N_69 
REMARK   38  A    between atoms: CB_65  and  CG_66 
REMARK   39  A    between atoms: N_69  and  CA_70 
REMARK   40  A    between atoms: CA_70  and  C_71 
REMARK   41  A    between atoms: CA_70  and  CB_73 
REMARK   42  A    between atoms: CB_73  and  CG_74 
ROOT
ATOM      1  CA  GLN d   1      12.671  24.681  11.322  0.00  0.00     0.090 C 
ATOM      2  H38 GLN d   1      12.819  25.517  12.022  0.00  0.00     0.087 H 
ENDROOT
BRANCH   1   3
ATOM      3  N   GLN d   1      13.162  23.461  11.949  0.00  0.00    -0.346 N 
ATOM      4  C   PRO d   1      14.120  23.499  12.867  0.00  0.00     0.241 C 
ATOM      5  O   PRO d   1      14.642  24.549  13.232  0.00  0.00    -0.271 OA
ATOM      6  H37 GLN d   1      12.771  22.580  11.683  0.00  0.00     0.163 HD
BRANCH   4   7
ATOM      7  CA  PRO d   1      14.560  22.162  13.467  0.00  0.00     0.091 C 
ATOM      8  N   PRO d   1      15.858  22.291  14.139  0.00  0.00    -0.337 N 
ATOM      9  C   GLU d   1      17.003  22.504  13.473  0.00  0.00     0.243 C 
ATOM     10  CD  PRO d   1      15.691  22.097  15.591  0.00  0.00    -0.001 C 
ATOM     11  O   GLU d   1      17.036  22.597  12.248  0.00  0.00    -0.271 OA
ATOM     12  CG  PRO d   1      14.239  22.474  15.780  0.00  0.00    -0.048 C 
ATOM     13  H35 PRO d   1      16.356  22.760  16.164  0.00  0.00     0.064 H 
ATOM     14  H36 PRO d   1      15.876  21.052  15.881  0.00  0.00     0.064 H 
ATOM     15  CB  PRO d   1      13.646  21.713  14.605  0.00  0.00    -0.036 C 
ATOM     16  H33 PRO d   1      13.842  22.121  16.743  0.00  0.00     0.035 H 
ATOM     17  H34 PRO d   1      14.079  23.559  15.693  0.00  0.00     0.035 H 
ATOM     18  H31 PRO d   1      13.701  20.625  14.761  0.00  0.00     0.036 H 
ATOM     19  H32 PRO d   1      12.601  22.005  14.422  0.00  0.00     0.036 H 
ATOM     20  H30 PRO d   1      14.598  21.403  12.672  0.00  0.00     0.087 H 
BRANCH   9  21
ATOM     21  CA  GLU d   1      18.282  22.626  14.299  0.00  0.00     0.090 C 
ATOM     22  H25 GLU d   1      18.059  22.319  15.332  0.00  0.00     0.087 H 
BRANCH  21  23
ATOM     23  N   GLU d   1      19.364  21.778  13.797  0.00  0.00    -0.346 N 
ATOM     24  C   GLN d   1      19.778  20.689  14.437  0.00  0.00     0.241 C 
ATOM     25  O   GLN d   1      19.292  20.302  15.501  0.00  0.00    -0.271 OA
ATOM     26  H24 GLU d   1      19.810  22.028  12.938  0.00  0.00     0.163 HD
BRANCH  24  27
ATOM     27  CA  GLN d   1      20.920  19.926  13.774  0.00  0.00     0.090 C 
ATOM     28  H17 GLN d   1      21.337  20.553  12.972  0.00  0.00     0.087 H 
BRANCH  27  29
ATOM     29  N   GLN d   1      21.984  19.633  14.729  0.00  0.00    -0.346 N 
ATOM     30  C   LYS d   1      22.634  20.608  15.355  0.00  0.00     0.248 C 
ATOM     31  O   LYS d   1      22.382  21.804  15.175  0.00  0.00    -0.271 OA
ATOM     32  H16 GLN d   1      22.228  18.681  14.915  0.00  0.00     0.163 HD
BRANCH  30  33
ATOM     33  CA  LYS d   1      23.719  20.180  16.328  0.00  0.00     0.176 C 
ATOM     34  H4  LYS d   1      23.839  19.088  16.267  0.00  0.00     0.099 H 
BRANCH  33  35
ATOM     35  N   LYS d   1      25.023  20.822  15.991  0.00  0.00    -0.067 N 
ATOM     36  H1  LYS d   1      25.725  20.523  16.650  0.00  0.00     0.275 HD
ATOM     37  H2  LYS d   1      24.926  21.824  16.036  0.00  0.00     0.275 HD
ATOM     38  H3  LYS d   1      25.299  20.553  15.060  0.00  0.00     0.275 HD
ENDBRANCH  33  35
BRANCH  33  39
ATOM     39  CB  LYS d   1      23.301  20.555  17.750  0.00  0.00    -0.030 C 
ATOM     40  H5  LYS d   1      23.211  21.650  17.808  0.00  0.00     0.036 H 
ATOM     41  H6  LYS d   1      24.084  20.214  18.443  0.00  0.00     0.036 H 
BRANCH  39  42
ATOM     42  CG  LYS d   1      21.980  19.943  18.183  0.00  0.00    -0.061 C 
ATOM     43  H7  LYS d   1      22.055  18.847  18.125  0.00  0.00     0.033 H 
ATOM     44  H8  LYS d   1      21.183  20.293  17.510  0.00  0.00     0.033 H 
BRANCH  42  45
ATOM     45  CD  LYS d   1      21.639  20.342  19.604  0.00  0.00    -0.043 C 
ATOM     46  H9  LYS d   1      21.535  21.436  19.654  0.00  0.00     0.035 H 
ATOM     47  H10 LYS d   1      22.452  20.020  20.272  0.00  0.00     0.035 H 
BRANCH  45  48
ATOM     48  CE  LYS d   1      20.343  19.701  20.059  0.00  0.00     0.080 C 
ATOM     49  H11 LYS d   1      20.432  18.609  19.966  0.00  0.00     0.075 H 
ATOM     50  H12 LYS d   1      19.523  20.058  19.419  0.00  0.00     0.075 H 
BRANCH  48  51
ATOM     51  NZ  LYS d   1      20.037  20.043  21.474  0.00  0.00    -0.079 N 
ATOM     52  H13 LYS d   1      19.172  19.603  21.746  0.00  0.00     0.274 HD
ATOM     53  H14 LYS d   1      19.949  21.043  21.567  0.00  0.00     0.274 HD
ATOM     54  H15 LYS d   1      20.782  19.715  22.068  0.00  0.00     0.274 HD
ENDBRANCH  48  51
ENDBRANCH  45  48
ENDBRANCH  42  45
ENDBRANCH  39  42
ENDBRANCH  33  39
ENDBRANCH  30  33
ENDBRANCH  27  29
BRANCH  27  55
ATOM     55  CB  GLN d   1      20.395  18.623  13.154  0.00  0.00    -0.030 C 
ATOM     56  H18 GLN d   1      20.042  17.967  13.963  0.00  0.00     0.037 H 
ATOM     57  H19 GLN d   1      21.221  18.132  12.618  0.00  0.00     0.037 H 
BRANCH  55  58
ATOM     58  CG  GLN d   1      19.257  18.846  12.184  0.00  0.00     0.011 C 
ATOM     59  H20 GLN d   1      19.485  19.734  11.576  0.00  0.00     0.047 H 
ATOM     60  H21 GLN d   1      18.336  19.022  12.760  0.00  0.00     0.047 H 
BRANCH  58  61
ATOM     61  CD  GLN d   1      19.027  17.672  11.254  0.00  0.00     0.215 C 
ATOM     62  OE1 GLN d   1      18.974  17.857  10.033  0.00  0.00    -0.274 OA
ATOM     63  NE2 GLN d   1      18.895  16.479  11.803  0.00  0.00    -0.370 N 
ATOM     64  H22 GLN d   1      18.742  15.677  11.226  0.00  0.00     0.159 HD
ATOM     65  H23 GLN d   1      18.948  16.377  12.796  0.00  0.00     0.159 HD
ENDBRANCH  58  61
ENDBRANCH  55  58
ENDBRANCH  27  55
ENDBRANCH  24  27
ENDBRANCH  21  23
BRANCH  21  66
ATOM     66  CB  GLU d   1      18.720  24.094  14.300  0.00  0.00    -0.029 C 
ATOM     67  H26 GLU d   1      17.841  24.711  14.539  0.00  0.00     0.037 H 
ATOM     68  H27 GLU d   1      19.079  24.343  13.291  0.00  0.00     0.037 H 
BRANCH  66  69
ATOM     69  CG  GLU d   1      19.820  24.439  15.289  0.00  0.00     0.018 C 
ATOM     70  H28 GLU d   1      20.071  25.505  15.182  0.00  0.00     0.049 H 
ATOM     71  H29 GLU d   1      20.706  23.829  15.060  0.00  0.00     0.049 H 
BRANCH  69  72
ATOM     72  CD  GLU d   1      19.406  24.178  16.720  0.00  0.00     0.172 C 
ATOM     73  OE1 GLU d   1      18.318  24.647  17.114  0.00  0.00    -0.648 OA
ATOM     74  OE2 GLU d   1      20.170  23.515  17.454  0.00  0.00    -0.648 OA
ENDBRANCH  69  72
ENDBRANCH  66  69
ENDBRANCH  21  66
ENDBRANCH   9  21
ENDBRANCH   4   7
ENDBRANCH   1   3
BRANCH   1  75
ATOM     75  C   GLN d   1      11.188  24.564  11.002  0.00  0.00     0.241 C 
ATOM     76  O   GLN d   1      10.648  23.462  10.895  0.00  0.00    -0.271 OA
ATOM     77  N   GLU d   1      10.534  25.707  10.852  0.00  0.00    -0.346 N 
ATOM     78  H45 GLU d   1      11.021  26.573  10.966  0.00  0.00     0.163 HD
BRANCH  77  79
ATOM     79  CA  GLU d   1       9.119  25.720  10.524  0.00  0.00     0.090 C 
ATOM     80  H46 GLU d   1       8.650  24.807  10.920  0.00  0.00     0.087 H 
BRANCH  79  81
ATOM     81  C   GLU d   1       8.948  25.763   9.017  0.00  0.00     0.241 C 
ATOM     82  O   GLU d   1       9.640  26.513   8.326  0.00  0.00    -0.271 OA
ATOM     83  N   ILE d   1       8.037  24.943   8.509  0.00  0.00    -0.346 N 
ATOM     84  H51 ILE d   1       7.542  24.326   9.120  0.00  0.00     0.163 HD
BRANCH  83  85
ATOM     85  CA  ILE d   1       7.740  24.919   7.082  0.00  0.00     0.092 C 
ATOM     86  H52 ILE d   1       8.204  25.797   6.609  0.00  0.00     0.088 H 
BRANCH  85  87
ATOM     87  C   ILE d   1       6.229  24.990   6.909  0.00  0.00     0.241 C 
ATOM     88  O   ILE d   1       5.478  24.296   7.594  0.00  0.00    -0.271 OA
ATOM     89  N   ASP d   1       5.791  25.861   6.011  0.00  0.00    -0.345 N 
ATOM     90  H62 ASP d   1       6.452  26.420   5.511  0.00  0.00     0.163 HD
BRANCH  89  91
ATOM     91  CA  ASP d   1       4.374  26.023   5.736  0.00  0.00     0.098 C 
ATOM     92  H63 ASP d   1       3.773  25.724   6.607  0.00  0.00     0.088 H 
BRANCH  91  93
ATOM     93  C   ASP d   1       4.081  25.124   4.545  0.00  0.00     0.241 C 
ATOM     94  O   ASP d   1       4.560  25.379   3.438  0.00  0.00    -0.271 OA
ATOM     95  N   PHE d   1       3.314  24.065   4.771  0.00  0.00    -0.344 N 
ATOM     96  H66 PHE d   1       2.960  23.896   5.691  0.00  0.00     0.163 HD
BRANCH  95  97
ATOM     97  CA  PHE d   1       2.985  23.149   3.693  0.00  0.00     0.100 C 
ATOM     98  H67 PHE d   1       3.786  23.199   2.941  0.00  0.00     0.090 H 
BRANCH  97  99
ATOM     99  C   PHE d   1       1.675  23.541   3.025  0.00  0.00     0.197 C 
ATOM    100  O   PHE d   1       1.104  24.583   3.415  0.00  0.00    -0.646 OA
ATOM    101  OXT PHE d   1       1.242  22.811   2.112  0.00  0.00    -0.646 OA
ENDBRANCH  97  99
BRANCH  97 102
ATOM    102  CB  PHE d   1       2.903  21.711   4.219  0.00  0.00    -0.013 C 
ATOM    103  H68 PHE d   1       2.687  21.043   3.372  0.00  0.00     0.043 H 
ATOM    104  H69 PHE d   1       2.083  21.654   4.949  0.00  0.00     0.043 H 
BRANCH 102 105
ATOM    105  CG  PHE d   1       4.168  21.238   4.887  0.00  0.00    -0.056 A 
ATOM    106  CD1 PHE d   1       4.448  21.580   6.209  0.00  0.00    -0.077 A 
ATOM    107  CE1 PHE d   1       5.632  21.167   6.820  0.00  0.00    -0.082 A 
ATOM    108  H70 PHE d   1       3.736  22.175   6.770  0.00  0.00     0.084 H 
ATOM    109  CZ  PHE d   1       6.552  20.404   6.103  0.00  0.00    -0.083 A 
ATOM    110  H72 PHE d   1       5.836  21.439   7.849  0.00  0.00     0.083 H 
ATOM    111  CE2 PHE d   1       6.281  20.059   4.780  0.00  0.00    -0.082 A 
ATOM    112  H74 PHE d   1       7.474  20.080   6.572  0.00  0.00     0.083 H 
ATOM    113  CD2 PHE d   1       5.095  20.475   4.183  0.00  0.00    -0.077 A 
ATOM    114  H73 PHE d   1       6.994  19.467   4.217  0.00  0.00     0.083 H 
ATOM    115  H71 PHE d   1       4.890  20.201   3.155  0.00  0.00     0.084 H 
ENDBRANCH 102 105
ENDBRANCH  97 102
ENDBRANCH  95  97
ENDBRANCH  91  93
BRANCH  91 116
ATOM    116  CB  ASP d   1       4.071  27.477   5.370  0.00  0.00     0.043 C 
ATOM    117  H64 ASP d   1       4.539  27.701   4.400  0.00  0.00     0.052 H 
ATOM    118  H65 ASP d   1       4.500  28.131   6.143  0.00  0.00     0.052 H 
BRANCH 116 119
ATOM    119  CG  ASP d   1       2.587  27.755   5.268  0.00  0.00     0.175 C 
ATOM    120  OD1 ASP d   1       1.883  27.021   4.540  0.00  0.00    -0.648 OA
ATOM    121  OD2 ASP d   1       2.125  28.717   5.917  0.00  0.00    -0.648 OA
ENDBRANCH 116 119
ENDBRANCH  91 116
ENDBRANCH  89  91
ENDBRANCH  85  87
BRANCH  85 122
ATOM    122  CB  ILE d   1       8.275  23.641   6.383  0.00  0.00    -0.030 C 
ATOM    123  H53 ILE d   1       7.937  22.759   6.947  0.00  0.00     0.043 H 
BRANCH 122 124
ATOM    124  CG1 ILE d   1       9.808  23.661   6.370  0.00  0.00    -0.063 C 
ATOM    125  H54 ILE d   1      10.162  23.619   7.410  0.00  0.00     0.033 H 
ATOM    126  H55 ILE d   1      10.137  24.604   5.908  0.00  0.00     0.033 H 
BRANCH 124 127
ATOM    127  CD1 ILE d   1      10.438  22.512   5.606  0.00  0.00    -0.076 C 
ATOM    128  H59 ILE d   1      11.534  22.602   5.646  0.00  0.00     0.027 H 
ATOM    129  H60 ILE d   1      10.106  22.543   4.558  0.00  0.00     0.027 H 
ATOM    130  H61 ILE d   1      10.132  21.558   6.060  0.00  0.00     0.027 H 
ENDBRANCH 124 127
ENDBRANCH 122 124
BRANCH 122 131
ATOM    131  CG2 ILE d   1       7.726  23.552   4.956  0.00  0.00    -0.071 C 
ATOM    132  H56 ILE d   1       6.627  23.539   4.986  0.00  0.00     0.028 H 
ATOM    133  H57 ILE d   1       8.091  22.630   4.480  0.00  0.00     0.028 H 
ATOM    134  H58 ILE d   1       8.066  24.423   4.377  0.00  0.00     0.028 H 
ENDBRANCH 122 131
ENDBRANCH  85 122
ENDBRANCH  83  85
ENDBRANCH  79  81
BRANCH  79 135
ATOM    135  CB  GLU d   1       8.432  26.943  11.133  0.00  0.00    -0.029 C 
ATOM    136  H47 GLU d   1       8.929  27.847  10.751  0.00  0.00     0.037 H 
ATOM    137  H48 GLU d   1       8.544  26.897  12.226  0.00  0.00     0.037 H 
BRANCH 135 138
ATOM    138  CG  GLU d   1       6.943  27.035  10.804  0.00  0.00     0.018 C 
ATOM    139  H49 GLU d   1       6.434  26.156  11.226  0.00  0.00     0.049 H 
ATOM    140  H50 GLU d   1       6.823  27.038   9.710  0.00  0.00     0.049 H 
BRANCH 138 141
ATOM    141  CD  GLU d   1       6.297  28.287  11.366  0.00  0.00     0.172 C 
ATOM    142  OE1 GLU d   1       6.658  29.397  10.920  0.00  0.00    -0.648 OA
ATOM    143  OE2 GLU d   1       5.434  28.163  12.262  0.00  0.00    -0.648 OA
ENDBRANCH 138 141
ENDBRANCH 135 138
ENDBRANCH  79 135
ENDBRANCH  77  79
ENDBRANCH   1  75
BRANCH   1 144
ATOM    144  CB  GLN d   1      13.438  24.976  10.029  0.00  0.00    -0.030 C 
ATOM    145  H39 GLN d   1      14.513  24.990  10.262  0.00  0.00     0.037 H 
ATOM    146  H40 GLN d   1      13.129  25.967   9.664  0.00  0.00     0.037 H 
BRANCH 144 147
ATOM    147  CG  GLN d   1      13.206  23.966   8.916  0.00  0.00     0.011 C 
ATOM    148  H41 GLN d   1      12.127  23.915   8.708  0.00  0.00     0.047 H 
ATOM    149  H42 GLN d   1      13.561  22.982   9.255  0.00  0.00     0.047 H 
BRANCH 147 150
ATOM    150  CD  GLN d   1      13.933  24.328   7.628  0.00  0.00     0.215 C 
ATOM    151  OE1 GLN d   1      13.834  23.623   6.627  0.00  0.00    -0.274 OA
ATOM    152  NE2 GLN d   1      14.661  25.435   7.651  0.00  0.00    -0.370 N 
ATOM    153  H43 GLN d   1      15.161  25.722   6.834  0.00  0.00     0.159 HD
ATOM    154  H44 GLN d   1      14.711  25.983   8.486  0.00  0.00     0.159 HD
ENDBRANCH 147 150
ENDBRANCH 144 147
ENDBRANCH   1 144
TORSDOF 42
