REMARK WARNING: 32 MAX_TORS EXCEEDED!!!
REMARK  50 active torsions:
REMARK  status: ('A' for Active; 'I' for Inactive)
REMARK    1  A    between atoms: N_1  and  CA_2 
REMARK    2  A    between atoms: CA_2  and  C_3 
REMARK    3  A    between atoms: CA_2  and  CB_5 
REMARK       I    between atoms: C_3  and  N_10 
REMARK    4  A    between atoms: CB_5  and  CG_6 
REMARK    5  A    between atoms: CG_6  and  CD_7 
REMARK    6  A    between atoms: CA_11  and  C_12 
REMARK       I    between atoms: C_12  and  N_17 
REMARK    7  A    between atoms: N_17  and  CA_18 
REMARK    8  A    between atoms: CA_18  and  C_19 
REMARK    9  A    between atoms: CA_18  and  CB_21 
REMARK       I    between atoms: C_19  and  N_26 
REMARK   10  A    between atoms: CB_21  and  CG_22 
REMARK   11  A    between atoms: CG_22  and  CD_23 
REMARK       I    between atoms: CD_23  and  NE2_25 
REMARK   12  A    between atoms: N_26  and  CA_27 
REMARK   13  A    between atoms: CA_27  and  C_28 
REMARK   14  A    between atoms: CA_27  and  CB_30 
REMARK       I    between atoms: C_28  and  N_38 
REMARK   15  A    between atoms: CB_30  and  CG_31 
REMARK   16  A    between atoms: CZ_36  and  OH_37 
REMARK   17  A    between atoms: N_38  and  CA_39 
REMARK   18  A    between atoms: CA_39  and  C_40 
REMARK   19  A    between atoms: CA_39  and  CB_42 
REMARK       I    between atoms: C_40  and  N_47 
REMARK   20  A    between atoms: CB_42  and  CG_43 
REMARK   21  A    between atoms: CG_43  and  CD_44 
REMARK   22  A    between atoms: N_47  and  CA_48 
REMARK   23  A    between atoms: CA_48  and  C_49 
REMARK   24  A    between atoms: CA_48  and  CB_51 
REMARK       I    between atoms: C_49  and  N_56 
REMARK   25  A    between atoms: CB_51  and  CG_52 
REMARK   26  A    between atoms: CG_52  and  CD_53 
REMARK   27  A    between atoms: N_56  and  CA_57 
REMARK   28  A    between atoms: CA_57  and  C_58 
REMARK   29  A    between atoms: CA_57  and  CB_60 
REMARK       I    between atoms: C_58  and  N_64 
REMARK   30  A    between atoms: CB_60  and  CG1_61 
REMARK   31  A    between atoms: CB_60  and  CG2_62 
REMARK   32  A    between atoms: CG1_61  and  CD1_63 
REMARK   33  A    between atoms: CA_65  and  C_66 
REMARK       I    between atoms: C_66  and  N_71 
REMARK   34  A    between atoms: N_71  and  CA_72 
REMARK   35  A    between atoms: CA_72  and  C_73 
REMARK   36  A    between atoms: CA_72  and  CB_75 
REMARK       I    between atoms: C_73  and  N_79 
REMARK   37  A    between atoms: CB_75  and  CG1_76 
REMARK   38  A    between atoms: CB_75  and  CG2_77 
REMARK   39  A    between atoms: CG1_76  and  CD1_78 
REMARK   40  A    between atoms: N_79  and  CA_80 
REMARK   41  A    between atoms: CA_80  and  C_81 
REMARK   42  A    between atoms: CA_80  and  CB_83 
REMARK       I    between atoms: C_81  and  N_91 
REMARK   43  A    between atoms: CB_83  and  CG_84 
REMARK   44  A    between atoms: CZ_89  and  OH_90 
REMARK   45  A    between atoms: N_91  and  CA_92 
REMARK   46  A    between atoms: CA_92  and  C_93 
REMARK   47  A    between atoms: CA_92  and  CB_95 
REMARK   48  A    between atoms: CB_95  and  CG_96 
REMARK   49  A    between atoms: CG_96  and  CD1_97 
REMARK   50  A    between atoms: CG_96  and  CD2_98 
ROOT
ATOM      1  CA  GLU d   1      33.130  39.921   0.254  0.00  0.00     0.090 C 
ATOM      2  H40 GLU d   1      33.613  40.736   0.814  0.00  0.00     0.087 H 
ENDROOT
BRANCH   1   3
ATOM      3  N   GLU d   1      33.629  39.931  -1.120  0.00  0.00    -0.346 N 
ATOM      4  C   GLU d   1      34.509  40.827  -1.554  0.00  0.00     0.241 C 
ATOM      5  O   GLU d   1      34.897  41.759  -0.853  0.00  0.00    -0.271 OA
ATOM      6  H39 GLU d   1      33.295  39.237  -1.758  0.00  0.00     0.163 HD
BRANCH   4   7
ATOM      7  CA  GLU d   1      35.127  40.528  -2.934  0.00  0.00     0.090 C 
ATOM      8  H34 GLU d   1      34.348  40.066  -3.558  0.00  0.00     0.087 H 
BRANCH   7   9
ATOM      9  N   GLU d   1      35.604  41.719  -3.651  0.00  0.00    -0.346 N 
ATOM     10  C   PTR d   1      34.751  42.505  -4.297  0.00  0.00     0.241 C 
ATOM     11  O   PTR d   1      33.555  42.210  -4.426  0.00  0.00    -0.271 OA
ATOM     12  H33 GLU d   1      36.579  41.939  -3.652  0.00  0.00     0.163 HD
BRANCH  10  13
ATOM     13  CA  PTR d   1      35.312  43.843  -4.818  0.00  0.00     0.093 C 
ATOM     14  H25 PTR d   1      36.394  43.711  -4.967  0.00  0.00     0.088 H 
BRANCH  13  15
ATOM     15  N   PTR d   1      34.749  44.276  -6.105  0.00  0.00    -0.346 N 
ATOM     16  C   GLN d   1      35.476  44.352  -7.221  0.00  0.00     0.241 C 
ATOM     17  O   GLN d   1      36.706  44.194  -7.250  0.00  0.00    -0.271 OA
ATOM     18  H24 PTR d   1      33.781  44.524  -6.146  0.00  0.00     0.163 HD
BRANCH  16  19
ATOM     19  CA  GLN d   1      34.671  44.559  -8.507  0.00  0.00     0.090 C 
ATOM     20  H17 GLN d   1      33.623  44.674  -8.192  0.00  0.00     0.087 H 
BRANCH  19  21
ATOM     21  N   GLN d   1      34.970  45.735  -9.335  0.00  0.00    -0.346 N 
ATOM     22  C   PRO d   1      34.834  46.994  -8.909  0.00  0.00     0.241 C 
ATOM     23  O   PRO d   1      34.436  47.297  -7.788  0.00  0.00    -0.271 OA
ATOM     24  H16 GLN d   1      35.293  45.585 -10.269  0.00  0.00     0.163 HD
BRANCH  22  25
ATOM     25  CA  PRO d   1      35.155  48.097  -9.912  0.00  0.00     0.091 C 
ATOM     26  N   PRO d   1      34.189  49.205  -9.854  0.00  0.00    -0.337 N 
ATOM     27  C   GLU d   1      32.940  49.079 -10.371  0.00  0.00     0.251 C 
ATOM     28  CD  PRO d   1      34.791  50.392  -9.208  0.00  0.00    -0.001 C 
ATOM     29  O   GLU d   1      32.550  48.018 -10.866  0.00  0.00    -0.271 OA
ATOM     30  CG  PRO d   1      36.078  49.825  -8.598  0.00  0.00    -0.048 C 
ATOM     31  H14 PRO d   1      34.129  50.799  -8.430  0.00  0.00     0.064 H 
ATOM     32  H15 PRO d   1      35.014  51.176  -9.947  0.00  0.00     0.064 H 
ATOM     33  CB  PRO d   1      36.474  48.764  -9.564  0.00  0.00    -0.036 C 
ATOM     34  H12 PRO d   1      36.854  50.601  -8.524  0.00  0.00     0.035 H 
ATOM     35  H13 PRO d   1      35.888  49.400  -7.601  0.00  0.00     0.035 H 
ATOM     36  H10 PRO d   1      36.943  49.201 -10.458  0.00  0.00     0.036 H 
ATOM     37  H11 PRO d   1      37.167  48.047  -9.100  0.00  0.00     0.036 H 
ATOM     38  H9  PRO d   1      35.188  47.666 -10.924  0.00  0.00     0.087 H 
BRANCH  27  39
ATOM     39  CA  GLU d   1      31.918  50.228 -10.121  0.00  0.00     0.176 C 
ATOM     40  H4  GLU d   1      30.917  49.814 -10.314  0.00  0.00     0.099 H 
BRANCH  39  41
ATOM     41  N   GLU d   1      31.930  50.707  -8.701  0.00  0.00    -0.066 N 
ATOM     42  H1  GLU d   1      31.255  51.447  -8.590  0.00  0.00     0.275 HD
ATOM     43  H2  GLU d   1      32.848  51.053  -8.471  0.00  0.00     0.275 HD
ATOM     44  H3  GLU d   1      31.695  49.943  -8.087  0.00  0.00     0.275 HD
ENDBRANCH  39  41
BRANCH  39  45
ATOM     45  CB  GLU d   1      32.126  51.413 -11.110  0.00  0.00    -0.021 C 
ATOM     46  H5  GLU d   1      33.195  51.672 -11.112  0.00  0.00     0.037 H 
ATOM     47  H6  GLU d   1      31.541  52.270 -10.744  0.00  0.00     0.037 H 
BRANCH  45  48
ATOM     48  CG  GLU d   1      31.693  51.126 -12.589  0.00  0.00     0.018 C 
ATOM     49  H7  GLU d   1      30.643  50.799 -12.580  0.00  0.00     0.049 H 
ATOM     50  H8  GLU d   1      32.326  50.315 -12.979  0.00  0.00     0.049 H 
BRANCH  48  51
ATOM     51  CD  GLU d   1      31.813  52.343 -13.558  0.00  0.00     0.172 C 
ATOM     52  OE1 GLU d   1      32.924  52.942 -13.664  0.00  0.00    -0.648 OA
ATOM     53  OE2 GLU d   1      30.813  52.634 -14.287  0.00  0.00    -0.648 OA
ENDBRANCH  48  51
ENDBRANCH  45  48
ENDBRANCH  39  45
ENDBRANCH  27  39
ENDBRANCH  22  25
ENDBRANCH  19  21
BRANCH  19  54
ATOM     54  CB  GLN d   1      34.764  43.280  -9.361  0.00  0.00    -0.030 C 
ATOM     55  H18 GLN d   1      35.784  43.218  -9.768  0.00  0.00     0.037 H 
ATOM     56  H19 GLN d   1      34.044  43.372 -10.188  0.00  0.00     0.037 H 
BRANCH  54  57
ATOM     57  CG  GLN d   1      34.467  41.956  -8.616  0.00  0.00     0.011 C 
ATOM     58  H20 GLN d   1      34.482  42.160  -7.535  0.00  0.00     0.047 H 
ATOM     59  H21 GLN d   1      35.261  41.237  -8.865  0.00  0.00     0.047 H 
BRANCH  57  60
ATOM     60  CD  GLN d   1      33.108  41.312  -8.965  0.00  0.00     0.215 C 
ATOM     61  OE1 GLN d   1      32.699  41.272 -10.133  0.00  0.00    -0.274 OA
ATOM     62  NE2 GLN d   1      32.453  40.718  -7.953  0.00  0.00    -0.370 N 
ATOM     63  H22 GLN d   1      31.568  40.283  -8.117  0.00  0.00     0.159 HD
ATOM     64  H23 GLN d   1      32.851  40.711  -7.036  0.00  0.00     0.159 HD
ENDBRANCH  57  60
ENDBRANCH  54  57
ENDBRANCH  19  54
ENDBRANCH  16  19
ENDBRANCH  13  15
BRANCH  13  65
ATOM     65  CB  PTR d   1      35.107  44.914  -3.752  0.00  0.00    -0.014 C 
ATOM     66  H26 PTR d   1      35.357  44.480  -2.773  0.00  0.00     0.043 H 
ATOM     67  H27 PTR d   1      34.048  45.213  -3.761  0.00  0.00     0.043 H 
BRANCH  65  68
ATOM     68  CG  PTR d   1      35.956  46.156  -3.954  0.00  0.00    -0.056 A 
ATOM     69  CD1 PTR d   1      37.215  46.263  -3.377  0.00  0.00    -0.074 A 
ATOM     70  CE1 PTR d   1      37.942  47.418  -3.469  0.00  0.00    -0.051 A 
ATOM     71  H28 PTR d   1      37.629  45.415  -2.844  0.00  0.00     0.084 H 
ATOM     72  CZ  PTR d   1      37.416  48.513  -4.130  0.00  0.00     0.065 A 
ATOM     73  H30 PTR d   1      38.929  47.475  -3.024  0.00  0.00     0.087 H 
ATOM     74  CE2 PTR d   1      36.169  48.435  -4.713  0.00  0.00    -0.051 A 
ATOM     75  CD2 PTR d   1      35.453  47.258  -4.635  0.00  0.00    -0.074 A 
ATOM     76  H31 PTR d   1      35.754  49.293  -5.229  0.00  0.00     0.087 H 
ATOM     77  H29 PTR d   1      34.482  47.192  -5.113  0.00  0.00     0.084 H 
BRANCH  72  78
ATOM     78  OH  PTR d   1      38.104  49.716  -4.151  0.00  0.00    -0.361 OA
ATOM     79  H32 PTR d   1      38.940  49.609  -3.713  0.00  0.00     0.217 HD
ENDBRANCH  72  78
ENDBRANCH  65  68
ENDBRANCH  13  65
ENDBRANCH  10  13
ENDBRANCH   7   9
BRANCH   7  80
ATOM     80  CB  GLU d   1      36.258  39.501  -2.732  0.00  0.00    -0.029 C 
ATOM     81  H35 GLU d   1      35.801  38.523  -2.522  0.00  0.00     0.037 H 
ATOM     82  H36 GLU d   1      36.860  39.818  -1.867  0.00  0.00     0.037 H 
BRANCH  80  83
ATOM     83  CG  GLU d   1      37.170  39.348  -3.905  0.00  0.00     0.018 C 
ATOM     84  H37 GLU d   1      37.930  38.588  -3.670  0.00  0.00     0.049 H 
ATOM     85  H38 GLU d   1      37.663  40.311  -4.103  0.00  0.00     0.049 H 
BRANCH  83  86
ATOM     86  CD  GLU d   1      36.416  38.922  -5.137  0.00  0.00     0.172 C 
ATOM     87  OE1 GLU d   1      35.635  37.949  -5.037  0.00  0.00    -0.648 OA
ATOM     88  OE2 GLU d   1      36.551  39.570  -6.200  0.00  0.00    -0.648 OA
ENDBRANCH  83  86
ENDBRANCH  80  83
ENDBRANCH   7  80
ENDBRANCH   4   7
ENDBRANCH   1   3
BRANCH   1  89
ATOM     89  C   GLU d   1      33.437  38.601   0.923  0.00  0.00     0.241 C 
ATOM     90  O   GLU d   1      33.505  37.560   0.271  0.00  0.00    -0.271 OA
ATOM     91  N   ILE d   1      33.486  38.634   2.241  0.00  0.00    -0.346 N 
ATOM     92  H45 ILE d   1      33.481  39.520   2.705  0.00  0.00     0.163 HD
BRANCH  91  93
ATOM     93  CA  ILE d   1      33.547  37.429   3.032  0.00  0.00     0.092 C 
ATOM     94  H46 ILE d   1      34.159  36.682   2.505  0.00  0.00     0.088 H 
BRANCH  93  95
ATOM     95  C   ILE d   1      32.133  36.884   3.199  0.00  0.00     0.243 C 
ATOM     96  O   ILE d   1      31.209  37.626   3.522  0.00  0.00    -0.271 OA
ATOM     97  N   PRO d   1      31.908  35.652   2.753  0.00  0.00    -0.337 N 
ATOM     98  CA  PRO d   1      30.551  35.107   2.765  0.00  0.00     0.091 C 
ATOM     99  CD  PRO d   1      32.905  34.649   2.313  0.00  0.00    -0.001 C 
ATOM    100  CB  PRO d   1      30.660  33.818   1.951  0.00  0.00    -0.036 C 
ATOM    101  H56 PRO d   1      29.862  35.808   2.271  0.00  0.00     0.087 H 
ATOM    102  CG  PRO d   1      32.067  33.375   2.142  0.00  0.00    -0.048 C 
ATOM    103  H57 PRO d   1      30.454  34.011   0.888  0.00  0.00     0.036 H 
ATOM    104  H58 PRO d   1      29.959  33.059   2.329  0.00  0.00     0.036 H 
ATOM    105  H59 PRO d   1      32.410  32.809   1.263  0.00  0.00     0.035 H 
ATOM    106  H60 PRO d   1      32.148  32.743   3.039  0.00  0.00     0.035 H 
ATOM    107  H61 PRO d   1      33.686  34.508   3.075  0.00  0.00     0.064 H 
ATOM    108  H62 PRO d   1      33.370  34.946   1.361  0.00  0.00     0.064 H 
BRANCH  98 109
ATOM    109  C   PRO d   1      30.040  34.843   4.168  0.00  0.00     0.241 C 
ATOM    110  O   PRO d   1      30.782  34.920   5.139  0.00  0.00    -0.271 OA
ATOM    111  N   ILE d   1      28.744  34.625   4.299  0.00  0.00    -0.346 N 
ATOM    112  H63 ILE d   1      28.117  34.828   3.547  0.00  0.00     0.163 HD
BRANCH 111 113
ATOM    113  CA  ILE d   1      28.238  34.082   5.561  0.00  0.00     0.092 C 
ATOM    114  H64 ILE d   1      28.975  34.256   6.359  0.00  0.00     0.088 H 
BRANCH 113 115
ATOM    115  C   ILE d   1      28.044  32.583   5.339  0.00  0.00     0.241 C 
ATOM    116  O   ILE d   1      27.871  32.149   4.195  0.00  0.00    -0.271 OA
ATOM    117  N   TYR d   1      28.117  31.781   6.396  0.00  0.00    -0.346 N 
ATOM    118  H74 TYR d   1      28.443  32.129   7.275  0.00  0.00     0.163 HD
BRANCH 117 119
ATOM    119  CA  TYR d   1      27.713  30.380   6.255  0.00  0.00     0.093 C 
ATOM    120  H75 TYR d   1      27.961  30.067   5.230  0.00  0.00     0.088 H 
BRANCH 119 121
ATOM    121  C   TYR d   1      26.188  30.154   6.459  0.00  0.00     0.241 C 
ATOM    122  O   TYR d   1      25.623  30.552   7.488  0.00  0.00    -0.271 OA
ATOM    123  N   LEU d   1      25.536  29.559   5.457  0.00  0.00    -0.345 N 
ATOM    124  H83 LEU d   1      26.062  29.238   4.669  0.00  0.00     0.163 HD
BRANCH 123 125
ATOM    125  CA  LEU d   1      24.079  29.355   5.460  0.00  0.00     0.096 C 
ATOM    126  H84 LEU d   1      23.680  29.839   6.364  0.00  0.00     0.089 H 
BRANCH 125 127
ATOM    127  C   LEU d   1      23.680  27.883   5.513  0.00  0.00     0.196 C 
ATOM    128  O   LEU d   1      23.540  27.227   4.449  0.00  0.00    -0.646 OA
ATOM    129  OXT LEU d   1      23.594  27.367   6.645  0.00  0.00    -0.646 OA
ENDBRANCH 125 127
BRANCH 125 130
ATOM    130  CB  LEU d   1      23.443  30.028   4.243  0.00  0.00    -0.034 C 
ATOM    131  H85 LEU d   1      22.673  29.357   3.834  0.00  0.00     0.037 H 
ATOM    132  H86 LEU d   1      24.224  30.193   3.487  0.00  0.00     0.037 H 
BRANCH 130 133
ATOM    133  CG  LEU d   1      22.793  31.369   4.570  0.00  0.00    -0.059 C 
ATOM    134  H87 LEU d   1      23.528  32.020   5.065  0.00  0.00     0.038 H 
BRANCH 133 135
ATOM    135  CD1 LEU d   1      22.309  32.067   3.284  0.00  0.00    -0.073 C 
ATOM    136  H88 LEU d   1      21.845  33.030   3.542  0.00  0.00     0.028 H 
ATOM    137  H89 LEU d   1      21.571  31.429   2.776  0.00  0.00     0.028 H 
ATOM    138  H90 LEU d   1      23.166  32.240   2.616  0.00  0.00     0.028 H 
ENDBRANCH 133 135
BRANCH 133 139
ATOM    139  CD2 LEU d   1      21.644  31.093   5.529  0.00  0.00    -0.073 C 
ATOM    140  H91 LEU d   1      22.031  30.596   6.431  0.00  0.00     0.028 H 
ATOM    141  H92 LEU d   1      20.906  30.441   5.039  0.00  0.00     0.028 H 
ATOM    142  H93 LEU d   1      21.165  32.042   5.811  0.00  0.00     0.028 H 
ENDBRANCH 133 139
ENDBRANCH 130 133
ENDBRANCH 125 130
ENDBRANCH 123 125
ENDBRANCH 119 121
BRANCH 119 143
ATOM    143  CB  TYR d   1      28.497  29.502   7.222  0.00  0.00    -0.014 C 
ATOM    144  H76 TYR d   1      28.161  29.723   8.246  0.00  0.00     0.043 H 
ATOM    145  H77 TYR d   1      29.566  29.745   7.127  0.00  0.00     0.043 H 
BRANCH 143 146
ATOM    146  CG  TYR d   1      28.317  28.025   6.967  0.00  0.00    -0.056 A 
ATOM    147  CD1 TYR d   1      28.803  27.440   5.802  0.00  0.00    -0.074 A 
ATOM    148  CE1 TYR d   1      28.588  26.109   5.531  0.00  0.00    -0.051 A 
ATOM    149  H78 TYR d   1      29.361  28.044   5.096  0.00  0.00     0.084 H 
ATOM    150  CZ  TYR d   1      27.891  25.333   6.432  0.00  0.00     0.065 A 
ATOM    151  H80 TYR d   1      28.965  25.672   4.613  0.00  0.00     0.087 H 
ATOM    152  CE2 TYR d   1      27.386  25.880   7.591  0.00  0.00    -0.051 A 
ATOM    153  CD2 TYR d   1      27.606  27.225   7.857  0.00  0.00    -0.074 A 
ATOM    154  H81 TYR d   1      26.824  25.268   8.287  0.00  0.00     0.087 H 
ATOM    155  H79 TYR d   1      27.218  27.659   8.772  0.00  0.00     0.084 H 
BRANCH 150 156
ATOM    156  OH  TYR d   1      27.804  23.987   6.204  0.00  0.00    -0.361 OA
ATOM    157  H82 TYR d   1      28.199  23.783   5.364  0.00  0.00     0.217 HD
ENDBRANCH 150 156
ENDBRANCH 143 146
ENDBRANCH 119 143
ENDBRANCH 117 119
ENDBRANCH 113 115
BRANCH 113 158
ATOM    158  CB  ILE d   1      26.874  34.720   5.980  0.00  0.00    -0.030 C 
ATOM    159  H65 ILE d   1      26.263  33.934   6.447  0.00  0.00     0.043 H 
BRANCH 158 160
ATOM    160  CG1 ILE d   1      26.109  35.233   4.760  0.00  0.00    -0.063 C 
ATOM    161  H66 ILE d   1      26.368  34.605   3.895  0.00  0.00     0.033 H 
ATOM    162  H67 ILE d   1      26.416  36.271   4.565  0.00  0.00     0.033 H 
BRANCH 160 163
ATOM    163  CD1 ILE d   1      24.590  35.201   4.948  0.00  0.00    -0.076 C 
ATOM    164  H71 ILE d   1      24.100  35.581   4.039  0.00  0.00     0.027 H 
ATOM    165  H72 ILE d   1      24.313  35.833   5.805  0.00  0.00     0.027 H 
ATOM    166  H73 ILE d   1      24.265  34.167   5.135  0.00  0.00     0.027 H 
ENDBRANCH 160 163
ENDBRANCH 158 160
BRANCH 158 167
ATOM    167  CG2 ILE d   1      27.098  35.815   7.024  0.00  0.00    -0.071 C 
ATOM    168  H68 ILE d   1      27.650  35.399   7.879  0.00  0.00     0.028 H 
ATOM    169  H69 ILE d   1      26.126  36.199   7.367  0.00  0.00     0.028 H 
ATOM    170  H70 ILE d   1      27.679  36.635   6.577  0.00  0.00     0.028 H 
ENDBRANCH 158 167
ENDBRANCH 113 158
ENDBRANCH 111 113
ENDBRANCH  98 109
ENDBRANCH  93  95
BRANCH  93 171
ATOM    171  CB  ILE d   1      34.187  37.714   4.389  0.00  0.00    -0.030 C 
ATOM    172  H47 ILE d   1      33.632  38.518   4.894  0.00  0.00     0.043 H 
BRANCH 171 173
ATOM    173  CG1 ILE d   1      35.644  38.152   4.170  0.00  0.00    -0.063 C 
ATOM    174  H48 ILE d   1      35.640  39.041   3.523  0.00  0.00     0.033 H 
ATOM    175  H49 ILE d   1      36.175  37.333   3.663  0.00  0.00     0.033 H 
BRANCH 173 176
ATOM    176  CD1 ILE d   1      36.384  38.485   5.403  0.00  0.00    -0.076 C 
ATOM    177  H53 ILE d   1      37.410  38.785   5.145  0.00  0.00     0.027 H 
ATOM    178  H54 ILE d   1      36.414  37.605   6.062  0.00  0.00     0.027 H 
ATOM    179  H55 ILE d   1      35.879  39.314   5.921  0.00  0.00     0.027 H 
ENDBRANCH 173 176
ENDBRANCH 171 173
BRANCH 171 180
ATOM    180  CG2 ILE d   1      34.162  36.469   5.252  0.00  0.00    -0.071 C 
ATOM    181  H50 ILE d   1      33.120  36.153   5.410  0.00  0.00     0.028 H 
ATOM    182  H51 ILE d   1      34.631  36.687   6.223  0.00  0.00     0.028 H 
ATOM    183  H52 ILE d   1      34.717  35.663   4.749  0.00  0.00     0.028 H 
ENDBRANCH 171 180
ENDBRANCH  93 171
ENDBRANCH  91  93
ENDBRANCH   1  89
BRANCH   1 184
ATOM    184  CB  GLU d   1      31.619  40.116   0.279  0.00  0.00    -0.029 C 
ATOM    185  H41 GLU d   1      31.324  40.426   1.292  0.00  0.00     0.037 H 
ATOM    186  H42 GLU d   1      31.140  39.156   0.035  0.00  0.00     0.037 H 
BRANCH 184 187
ATOM    187  CG  GLU d   1      31.137  41.144  -0.688  0.00  0.00     0.018 C 
ATOM    188  H43 GLU d   1      31.232  40.744  -1.708  0.00  0.00     0.049 H 
ATOM    189  H44 GLU d   1      31.760  42.045  -0.588  0.00  0.00     0.049 H 
BRANCH 187 190
ATOM    190  CD  GLU d   1      29.703  41.517  -0.445  0.00  0.00     0.172 C 
ATOM    191  OE1 GLU d   1      29.373  41.870   0.709  0.00  0.00    -0.648 OA
ATOM    192  OE2 GLU d   1      28.916  41.464  -1.417  0.00  0.00    -0.648 OA
ENDBRANCH 187 190
ENDBRANCH 184 187
ENDBRANCH   1 184
TORSDOF 50
