REMARK  0 active torsions:
REMARK  status: ('A' for Active; 'I' for Inactive)
ROOT
ATOM      1  C   U66 d   1      15.484 134.723  -3.596  0.00  0.00     0.004 A 
ATOM      2  C1  U66 d   1      15.853 136.091  -3.871  0.00  0.00     0.048 A 
ATOM      3  C2  U66 d   1      14.166 134.228  -3.954  0.00  0.00    -0.024 A 
ATOM      4  C3  U66 d   1      16.352 133.808  -2.979  0.00  0.00    -0.037 A 
ATOM      5  N   U66 d   1      17.162 136.606  -3.546  0.00  0.00    -0.315 N 
ATOM      6  C4  U66 d   1      14.892 136.941  -4.496  0.00  0.00    -0.056 A 
ATOM      7  C5  U66 d   1      13.799 132.867  -3.687  0.00  0.00    -0.070 A 
ATOM      8  C6  U66 d   1      13.242 135.105  -4.574  0.00  0.00    -0.072 A 
ATOM      9  C7  U66 d   1      16.015 132.447  -2.711  0.00  0.00     0.077 A 
ATOM     10  C8  U66 d   1      17.537 137.259  -2.355  0.00  0.00     0.255 C 
ATOM     11  C9  U66 d   1      18.295 136.486  -4.448  0.00  0.00     0.005 C 
ATOM     12  C10 U66 d   1      13.600 136.449  -4.840  0.00  0.00    -0.080 A 
ATOM     13  C11 U66 d   1      14.726 131.973  -3.071  0.00  0.00    -0.049 A 
ATOM     14  O   U66 d   1      16.935 131.526  -2.137  0.00  0.00    -0.309 OA
ATOM     15  C12 U66 d   1      19.069 137.473  -2.393  0.00  0.00     0.179 C 
ATOM     16  O13 U66 d   1      16.827 137.510  -1.400  0.00  0.00    -0.271 OA
ATOM     17  C14 U66 d   1      19.487 136.493  -3.511  0.00  0.00    -0.015 C 
ATOM     18  C15 U66 d   1      18.323 131.862  -2.181  0.00  0.00     0.097 A 
ATOM     19  N16 U66 d   1      19.725 137.178  -1.084  0.00  0.00    -0.062 N 
ATOM     20  C17 U66 d   1      19.108 132.053  -3.394  0.00  0.00     0.078 A 
ATOM     21  C18 U66 d   1      18.955 132.018  -0.914  0.00  0.00    -0.041 A 
ATOM     22  C19 U66 d   1      19.442 135.865  -0.444  0.00  0.00     0.087 C 
ATOM     23  C20 U66 d   1      20.477 132.405  -3.274  0.00  0.00    -0.059 A 
ATOM     24  C21 U66 d   1      18.519 131.894  -4.704  0.00  0.00     0.102 C 
ATOM     25  C22 U66 d   1      20.343 132.364  -0.816  0.00  0.00    -0.037 A 
ATOM     26  C23 U66 d   1      20.205 135.678   0.855  0.00  0.00    -0.003 C 
ATOM     27  C24 U66 d   1      21.085 132.561  -2.005  0.00  0.00    -0.074 A 
ATOM     28  N25 U66 d   1      17.982 131.760  -5.723  0.00  0.00    -0.191 NA
ATOM     29  C26 U66 d   1      21.063 132.531   0.502  0.00  0.00     0.024 C 
ATOM     30  C27 U66 d   1      19.886 134.481   1.696  0.00  0.00     0.032 A 
ATOM     31  N28 U66 d   1      20.252 133.160   1.541  0.00  0.00    -0.339 N 
ATOM     32  C29 U66 d   1      19.128 134.472   2.842  0.00  0.00     0.025 A 
ATOM     33  C30 U66 d   1      19.704 132.456   2.587  0.00  0.00     0.066 A 
ATOM     34  NZ  U66 d   1      19.009 133.228   3.402  0.00  0.00    -0.254 NA
ATOM     35  H1  U66 d   1      17.337 134.156  -2.689  0.00  0.00     0.089 H 
ATOM     36  H2  U66 d   1      15.148 137.972  -4.711  0.00  0.00     0.087 H 
ATOM     37  H3  U66 d   1      12.810 132.515  -3.955  0.00  0.00     0.085 H 
ATOM     38  H4  U66 d   1      12.256 134.745  -4.846  0.00  0.00     0.084 H 
ATOM     39  H5  U66 d   1      18.336 137.336  -5.145  0.00  0.00     0.065 H 
ATOM     40  H6  U66 d   1      18.247 135.547  -5.018  0.00  0.00     0.065 H 
ATOM     41  H7  U66 d   1      12.883 137.111  -5.311  0.00  0.00     0.083 H 
ATOM     42  H8  U66 d   1      14.448 130.943  -2.880  0.00  0.00     0.087 H 
ATOM     43  H9  U66 d   1      19.309 138.508  -2.676  0.00  0.00     0.099 H 
ATOM     44  H10 U66 d   1      20.390 136.850  -4.028  0.00  0.00     0.039 H 
ATOM     45  H11 U66 d   1      19.671 135.488  -3.103  0.00  0.00     0.039 H 
ATOM     46  H12 U66 d   1      19.439 137.895  -0.436  0.00  0.00     0.278 HD
ATOM     47  H13 U66 d   1      20.721 137.233  -1.228  0.00  0.00     0.278 HD
ATOM     48  H14 U66 d   1      18.377 131.873  -0.009  0.00  0.00     0.088 H 
ATOM     49  H15 U66 d   1      19.729 135.063  -1.141  0.00  0.00     0.076 H 
ATOM     50  H16 U66 d   1      18.364 135.800  -0.233  0.00  0.00     0.076 H 
ATOM     51  H17 U66 d   1      21.068 132.557  -4.170  0.00  0.00     0.086 H 
ATOM     52  H18 U66 d   1      20.021 136.569   1.473  0.00  0.00     0.044 H 
ATOM     53  H19 U66 d   1      21.274 135.623   0.601  0.00  0.00     0.044 H 
ATOM     54  H20 U66 d   1      22.132 132.835  -1.943  0.00  0.00     0.084 H 
ATOM     55  H21 U66 d   1      21.954 133.153   0.334  0.00  0.00     0.072 H 
ATOM     56  H22 U66 d   1      21.371 131.537   0.857  0.00  0.00     0.072 H 
ATOM     57  H23 U66 d   1      18.668 135.365   3.263  0.00  0.00     0.117 H 
ATOM     58  H24 U66 d   1      19.829 131.383   2.727  0.00  0.00     0.143 H 
ENDROOT
TORSDOF 0
