REMARK  0 active torsions:
REMARK  status: ('A' for Active; 'I' for Inactive)
ROOT
ATOM      1  C1  U49 d   1      15.293 134.420  -3.062  0.00  0.00     0.004 A 
ATOM      2  C2  U49 d   1      15.577 135.803  -2.882  0.00  0.00     0.048 A 
ATOM      3  C3  U49 d   1      14.187 134.006  -3.899  0.00  0.00    -0.024 A 
ATOM      4  C4  U49 d   1      16.062 133.417  -2.456  0.00  0.00    -0.037 A 
ATOM      5  N5  U49 d   1      16.691 136.106  -2.035  0.00  0.00    -0.315 N 
ATOM      6  C6  U49 d   1      14.757 136.786  -3.542  0.00  0.00    -0.056 A 
ATOM      7  C7  U49 d   1      13.913 132.617  -4.066  0.00  0.00    -0.070 A 
ATOM      8  C8  U49 d   1      13.388 134.998  -4.546  0.00  0.00    -0.072 A 
ATOM      9  C9  U49 d   1      15.818 132.045  -2.625  0.00  0.00     0.077 A 
ATOM     10  C10 U49 d   1      17.977 136.596  -2.570  0.00  0.00     0.005 C 
ATOM     11  C11 U49 d   1      16.673 136.111  -0.631  0.00  0.00     0.255 C 
ATOM     12  C12 U49 d   1      13.675 136.379  -4.368  0.00  0.00    -0.080 A 
ATOM     13  C13 U49 d   1      14.723 131.634  -3.428  0.00  0.00    -0.049 A 
ATOM     14  O14 U49 d   1      16.714 131.054  -2.132  0.00  0.00    -0.309 OA
ATOM     15  C15 U49 d   1      18.669 137.266  -1.374  0.00  0.00    -0.015 C 
ATOM     16  C17 U49 d   1      18.090 136.370  -0.280  0.00  0.00     0.180 C 
ATOM     17  C18 U49 d   1      18.093 131.440  -2.174  0.00  0.00     0.097 A 
ATOM     18  C20 U49 d   1      18.831 131.682  -3.383  0.00  0.00     0.078 A 
ATOM     19  C21 U49 d   1      18.733 131.586  -0.924  0.00  0.00    -0.041 A 
ATOM     20  C22 U49 d   1      19.638 135.025   0.728  0.00  0.00     0.121 C 
ATOM     21  C23 U49 d   1      20.192 132.075  -3.300  0.00  0.00    -0.059 A 
ATOM     22  C24 U49 d   1      18.174 131.516  -4.658  0.00  0.00     0.102 C 
ATOM     23  C25 U49 d   1      20.107 131.973  -0.830  0.00  0.00    -0.037 A 
ATOM     24  C26 U49 d   1      19.446 133.921   1.707  0.00  0.00     0.056 A 
ATOM     25  C27 U49 d   1      20.831 132.223  -2.032  0.00  0.00    -0.074 A 
ATOM     26  N28 U49 d   1      17.581 131.373  -5.627  0.00  0.00    -0.191 NA
ATOM     27  C29 U49 d   1      20.829 132.128   0.505  0.00  0.00     0.024 C 
ATOM     28  N30 U49 d   1      19.982 132.655   1.582  0.00  0.00    -0.338 N 
ATOM     29  C31 U49 d   1      18.752 133.881   2.898  0.00  0.00     0.027 A 
ATOM     30  C32 U49 d   1      19.597 131.941   2.674  0.00  0.00     0.066 A 
ATOM     31  N33 U49 d   1      18.849 132.664   3.489  0.00  0.00    -0.254 NA
ATOM     32  O39 U49 d   1      15.757 135.966   0.124  0.00  0.00    -0.271 OA
ATOM     33  N54 U49 d   1      18.678 136.077   0.967  0.00  0.00    -0.057 N 
ATOM     34  H1  U49 d   1      16.889 133.717  -1.823  0.00  0.00     0.089 H 
ATOM     35  H2  U49 d   1      14.966 137.841  -3.408  0.00  0.00     0.087 H 
ATOM     36  H3  U49 d   1      13.079 132.305  -4.685  0.00  0.00     0.085 H 
ATOM     37  H4  U49 d   1      12.559 134.696  -5.176  0.00  0.00     0.084 H 
ATOM     38  H5  U49 d   1      17.809 137.323  -3.378  0.00  0.00     0.065 H 
ATOM     39  H6  U49 d   1      18.583 135.760  -2.950  0.00  0.00     0.065 H 
ATOM     40  H7  U49 d   1      13.065 137.125  -4.865  0.00  0.00     0.083 H 
ATOM     41  H8  U49 d   1      14.504 130.580  -3.555  0.00  0.00     0.087 H 
ATOM     42  H9  U49 d   1      18.372 138.318  -1.254  0.00  0.00     0.039 H 
ATOM     43  H10 U49 d   1      19.765 137.199  -1.433  0.00  0.00     0.039 H 
ATOM     44  H11 U49 d   1      18.473 135.434  -0.713  0.00  0.00     0.099 H 
ATOM     45  H12 U49 d   1      18.171 131.401  -0.016  0.00  0.00     0.088 H 
ATOM     46  H13 U49 d   1      19.502 134.634  -0.291  0.00  0.00     0.085 H 
ATOM     47  H14 U49 d   1      20.655 135.431   0.833  0.00  0.00     0.085 H 
ATOM     48  H15 U49 d   1      20.752 132.265  -4.208  0.00  0.00     0.086 H 
ATOM     49  H16 U49 d   1      21.870 132.527  -1.983  0.00  0.00     0.084 H 
ATOM     50  H17 U49 d   1      21.676 132.815   0.363  0.00  0.00     0.072 H 
ATOM     51  H18 U49 d   1      21.205 131.141   0.812  0.00  0.00     0.072 H 
ATOM     52  H19 U49 d   1      18.196 134.721   3.312  0.00  0.00     0.117 H 
ATOM     53  H20 U49 d   1      19.871 130.903   2.854  0.00  0.00     0.143 H 
ATOM     54  H21 U49 d   1      17.975 135.766   1.619  0.00  0.00     0.278 HD
ATOM     55  H22 U49 d   1      19.140 136.894   1.335  0.00  0.00     0.278 HD
ENDROOT
TORSDOF 0
