REMARK WARNING: 32 MAX_TORS EXCEEDED!!!
REMARK  40 active torsions:
REMARK  status: ('A' for Active; 'I' for Inactive)
REMARK    1  A    between atoms: N_1  and  CA_2 
REMARK    2  A    between atoms: CA_2  and  C_3 
REMARK    3  A    between atoms: CA_2  and  CB_5 
REMARK       I    between atoms: C_3  and  N_10 
REMARK    4  A    between atoms: CB_5  and  CG_6 
REMARK    5  A    between atoms: CG_6  and  CD_7 
REMARK    6  A    between atoms: N_10  and  CA_11 
REMARK    7  A    between atoms: CA_11  and  C_12 
REMARK    8  A    between atoms: CA_11  and  CB_14 
REMARK       I    between atoms: C_12  and  N_19 
REMARK    9  A    between atoms: CB_14  and  CG_15 
REMARK   10  A    between atoms: CG_15  and  CD_16 
REMARK       I    between atoms: CD_16  and  NE2_18 
REMARK   11  A    between atoms: N_19  and  CA_20 
REMARK   12  A    between atoms: CA_20  and  C_21 
REMARK   13  A    between atoms: CA_20  and  CB_23 
REMARK       I    between atoms: C_21  and  N_31 
REMARK   14  A    between atoms: CB_23  and  CG_24 
REMARK   15  A    between atoms: CZ_29  and  OH_30 
REMARK   16  A    between atoms: N_31  and  CA_32 
REMARK   17  A    between atoms: CA_32  and  C_33 
REMARK   18  A    between atoms: CA_32  and  CB_35 
REMARK       I    between atoms: C_33  and  N_40 
REMARK   19  A    between atoms: CB_35  and  CG_36 
REMARK   20  A    between atoms: CG_36  and  CD_37 
REMARK   21  A    between atoms: CD_37  and  CE_38 
REMARK   22  A    between atoms: CE_38  and  NZ_39 
REMARK   23  A    between atoms: N_40  and  CA_41 
REMARK   24  A    between atoms: CA_41  and  C_42 
REMARK   25  A    between atoms: CA_41  and  CB_44 
REMARK       I    between atoms: C_42  and  N_51 
REMARK   26  A    between atoms: CB_44  and  CG_45 
REMARK   27  A    between atoms: N_51  and  CA_52 
REMARK   28  A    between atoms: CA_52  and  C_53 
REMARK   29  A    between atoms: CA_52  and  CB_55 
REMARK       I    between atoms: C_53  and  N_63 
REMARK   30  A    between atoms: CB_55  and  CG_56 
REMARK   31  A    between atoms: CZ_61  and  OH_62 
REMARK   32  A    between atoms: N_63  and  CA_64 
REMARK   33  A    between atoms: CA_64  and  C_65 
REMARK   34  A    between atoms: CA_64  and  CB_67 
REMARK       I    between atoms: C_65  and  N_69 
REMARK   35  A    between atoms: CB_67  and  OG_68 
REMARK   36  A    between atoms: N_69  and  CA_70 
REMARK   37  A    between atoms: CA_70  and  C_71 
REMARK   38  A    between atoms: CA_70  and  CB_73 
REMARK   39  A    between atoms: CB_73  and  CG1_74 
REMARK   40  A    between atoms: CB_73  and  CG2_75 
ROOT
ATOM      1  CA  LYS d   1      42.934  60.482  -3.001  0.00  0.00     0.089 C 
ATOM      2  H27 LYS d   1      42.217  59.967  -2.344  0.00  0.00     0.087 H 
ENDROOT
BRANCH   1   3
ATOM      3  N   LYS d   1      44.286  59.974  -2.734  0.00  0.00    -0.346 N 
ATOM      4  C   TYR d   1      44.487  58.744  -2.262  0.00  0.00     0.241 C 
ATOM      5  O   TYR d   1      43.559  58.010  -1.940  0.00  0.00    -0.271 OA
ATOM      6  H26 LYS d   1      45.074  60.565  -2.910  0.00  0.00     0.163 HD
BRANCH   4   7
ATOM      7  CA  TYR d   1      45.943  58.270  -2.093  0.00  0.00     0.093 C 
ATOM      8  H18 TYR d   1      46.591  59.132  -1.877  0.00  0.00     0.088 H 
BRANCH   7   9
ATOM      9  N   TYR d   1      46.017  57.306  -1.005  0.00  0.00    -0.346 N 
ATOM     10  C   GLN d   1      46.168  57.666   0.261  0.00  0.00     0.241 C 
ATOM     11  O   GLN d   1      46.288  58.839   0.614  0.00  0.00    -0.271 OA
ATOM     12  H17 TYR d   1      45.951  56.332  -1.222  0.00  0.00     0.163 HD
BRANCH  10  13
ATOM     13  CA  GLN d   1      46.177  56.515   1.264  0.00  0.00     0.090 C 
ATOM     14  H10 GLN d   1      46.774  55.696   0.837  0.00  0.00     0.087 H 
BRANCH  13  15
ATOM     15  N   GLN d   1      46.757  56.893   2.538  0.00  0.00    -0.346 N 
ATOM     16  C   GLU d   1      48.065  56.923   2.755  0.00  0.00     0.249 C 
ATOM     17  O   GLU d   1      48.915  56.681   1.888  0.00  0.00    -0.271 OA
ATOM     18  H9  GLN d   1      46.143  57.142   3.287  0.00  0.00     0.163 HD
BRANCH  16  19
ATOM     19  CA  GLU d   1      48.461  57.323   4.165  0.00  0.00     0.176 C 
ATOM     20  H4  GLU d   1      47.652  57.030   4.851  0.00  0.00     0.099 H 
BRANCH  19  21
ATOM     21  N   GLU d   1      49.714  56.642   4.609  0.00  0.00    -0.066 N 
ATOM     22  H1  GLU d   1      49.941  56.934   5.547  0.00  0.00     0.275 HD
ATOM     23  H2  GLU d   1      50.469  56.889   3.988  0.00  0.00     0.275 HD
ATOM     24  H3  GLU d   1      49.578  55.643   4.592  0.00  0.00     0.275 HD
ENDBRANCH  19  21
BRANCH  19  25
ATOM     25  CB  GLU d   1      48.621  58.839   4.215  0.00  0.00    -0.021 C 
ATOM     26  H5  GLU d   1      47.813  59.300   3.628  0.00  0.00     0.037 H 
ATOM     27  H6  GLU d   1      49.593  59.107   3.775  0.00  0.00     0.037 H 
BRANCH  25  28
ATOM     28  CG  GLU d   1      48.563  59.367   5.608  0.00  0.00     0.018 C 
ATOM     29  H7  GLU d   1      49.582  59.386   6.021  0.00  0.00     0.049 H 
ATOM     30  H8  GLU d   1      47.934  58.698   6.214  0.00  0.00     0.049 H 
BRANCH  28  31
ATOM     31  CD  GLU d   1      47.990  60.757   5.670  0.00  0.00     0.172 C 
ATOM     32  OE1 GLU d   1      48.215  61.546   4.724  0.00  0.00    -0.648 OA
ATOM     33  OE2 GLU d   1      47.310  61.052   6.673  0.00  0.00    -0.648 OA
ENDBRANCH  28  31
ENDBRANCH  25  28
ENDBRANCH  19  25
ENDBRANCH  16  19
ENDBRANCH  13  15
BRANCH  13  34
ATOM     34  CB  GLN d   1      44.749  56.009   1.523  0.00  0.00    -0.030 C 
ATOM     35  H11 GLN d   1      44.226  56.772   2.118  0.00  0.00     0.037 H 
ATOM     36  H12 GLN d   1      44.824  55.078   2.104  0.00  0.00     0.037 H 
BRANCH  34  37
ATOM     37  CG  GLN d   1      43.899  55.719   0.291  0.00  0.00     0.011 C 
ATOM     38  H13 GLN d   1      43.955  56.582  -0.389  0.00  0.00     0.047 H 
ATOM     39  H14 GLN d   1      42.856  55.568   0.608  0.00  0.00     0.047 H 
BRANCH  37  40
ATOM     40  CD  GLN d   1      44.360  54.500  -0.441  0.00  0.00     0.215 C 
ATOM     41  OE1 GLN d   1      43.752  53.428  -0.347  0.00  0.00    -0.274 OA
ATOM     42  NE2 GLN d   1      45.453  54.645  -1.183  0.00  0.00    -0.370 N 
ATOM     43  H15 GLN d   1      45.814  53.868  -1.698  0.00  0.00     0.159 HD
ATOM     44  H16 GLN d   1      45.914  55.531  -1.226  0.00  0.00     0.159 HD
ENDBRANCH  37  40
ENDBRANCH  34  37
ENDBRANCH  13  34
ENDBRANCH  10  13
ENDBRANCH   7   9
BRANCH   7  45
ATOM     45  CB  TYR d   1      46.406  57.577  -3.371  0.00  0.00    -0.014 C 
ATOM     46  H19 TYR d   1      45.697  56.767  -3.596  0.00  0.00     0.043 H 
ATOM     47  H20 TYR d   1      47.403  57.151  -3.186  0.00  0.00     0.043 H 
BRANCH  45  48
ATOM     48  CG  TYR d   1      46.497  58.469  -4.585  0.00  0.00    -0.056 A 
ATOM     49  CD1 TYR d   1      47.305  59.609  -4.586  0.00  0.00    -0.074 A 
ATOM     50  CE1 TYR d   1      47.423  60.402  -5.728  0.00  0.00    -0.051 A 
ATOM     51  H21 TYR d   1      47.847  59.881  -3.688  0.00  0.00     0.084 H 
ATOM     52  CZ  TYR d   1      46.730  60.054  -6.888  0.00  0.00     0.065 A 
ATOM     53  H23 TYR d   1      48.051  61.285  -5.714  0.00  0.00     0.087 H 
ATOM     54  CE2 TYR d   1      45.918  58.928  -6.898  0.00  0.00    -0.051 A 
ATOM     55  CD2 TYR d   1      45.808  58.145  -5.755  0.00  0.00    -0.074 A 
ATOM     56  H24 TYR d   1      45.371  58.660  -7.795  0.00  0.00     0.087 H 
ATOM     57  H22 TYR d   1      45.175  57.265  -5.772  0.00  0.00     0.084 H 
BRANCH  52  58
ATOM     58  OH  TYR d   1      46.859  60.807  -8.043  0.00  0.00    -0.361 OA
ATOM     59  H25 TYR d   1      47.443  61.538  -7.879  0.00  0.00     0.217 HD
ENDBRANCH  52  58
ENDBRANCH  45  48
ENDBRANCH   7  45
ENDBRANCH   4   7
ENDBRANCH   1   3
BRANCH   1  60
ATOM     60  C   LYS d   1      42.629  60.074  -4.441  0.00  0.00     0.241 C 
ATOM     61  O   LYS d   1      43.205  60.605  -5.380  0.00  0.00    -0.271 OA
ATOM     62  N   PHE d   1      41.746  59.108  -4.633  0.00  0.00    -0.346 N 
ATOM     63  H39 PHE d   1      41.296  58.677  -3.851  0.00  0.00     0.163 HD
BRANCH  62  64
ATOM     64  CA  PHE d   1      41.429  58.672  -5.995  0.00  0.00     0.093 C 
ATOM     65  H40 PHE d   1      42.346  58.732  -6.600  0.00  0.00     0.088 H 
BRANCH  64  66
ATOM     66  C   PHE d   1      40.366  59.555  -6.626  0.00  0.00     0.241 C 
ATOM     67  O   PHE d   1      39.445  60.031  -5.950  0.00  0.00    -0.271 OA
ATOM     68  N   TYR d   1      40.497  59.789  -7.923  0.00  0.00    -0.346 N 
ATOM     69  H48 TYR d   1      41.292  59.432  -8.414  0.00  0.00     0.163 HD
BRANCH  68  70
ATOM     70  CA  TYR d   1      39.488  60.565  -8.642  0.00  0.00     0.093 C 
ATOM     71  H49 TYR d   1      38.764  60.953  -7.910  0.00  0.00     0.088 H 
BRANCH  70  72
ATOM     72  C   TYR d   1      38.748  59.615  -9.546  0.00  0.00     0.241 C 
ATOM     73  O   TYR d   1      38.278  58.586  -9.035  0.00  0.00    -0.271 OA
ATOM     74  N   SER d   1      38.580  59.868 -10.791  0.00  0.00    -0.344 N 
ATOM     75  H57 SER d   1      38.971  60.649 -11.277  0.00  0.00     0.163 HD
BRANCH  74  76
ATOM     76  CA  SER d   1      37.769  58.888 -11.365  0.00  0.00     0.109 C 
ATOM     77  H58 SER d   1      37.781  58.005 -10.710  0.00  0.00     0.090 H 
BRANCH  76  78
ATOM     78  C   SER d   1      38.237  58.493 -12.705  0.00  0.00     0.243 C 
ATOM     79  O   SER d   1      39.010  59.176 -13.369  0.00  0.00    -0.271 OA
ATOM     80  N   VAL d   1      37.746  57.351 -13.146  0.00  0.00    -0.345 N 
ATOM     81  H62 VAL d   1      37.130  56.834 -12.551  0.00  0.00     0.163 HD
BRANCH  80  82
ATOM     82  CA  VAL d   1      38.059  56.812 -14.455  0.00  0.00     0.101 C 
ATOM     83  H63 VAL d   1      39.064  57.158 -14.738  0.00  0.00     0.089 H 
BRANCH  82  84
ATOM     84  C   VAL d   1      37.059  57.316 -15.484  0.00  0.00     0.312 C 
ATOM     85  O   VAL d   1      36.541  58.089 -15.675  0.00  0.00    -0.260 OA
ATOM     86  OXT VAL d   1      38.354  57.302 -16.631  0.00  0.00    -0.148 OA
ENDBRANCH  82  84
BRANCH  82  87
ATOM     87  CB  VAL d   1      38.053  55.284 -14.464  0.00  0.00    -0.032 C 
ATOM     88  H64 VAL d   1      38.776  54.937 -15.216  0.00  0.00     0.042 H 
BRANCH  87  89
ATOM     89  CG1 VAL d   1      38.476  54.746 -13.100  0.00  0.00    -0.071 C 
ATOM     90  H65 VAL d   1      38.467  53.646 -13.121  0.00  0.00     0.028 H 
ATOM     91  H66 VAL d   1      37.775  55.104 -12.331  0.00  0.00     0.028 H 
ATOM     92  H67 VAL d   1      39.490  55.100 -12.865  0.00  0.00     0.028 H 
ENDBRANCH  87  89
BRANCH  87  93
ATOM     93  CG2 VAL d   1      36.670  54.754 -14.841  0.00  0.00    -0.071 C 
ATOM     94  H68 VAL d   1      36.381  55.151 -15.825  0.00  0.00     0.028 H 
ATOM     95  H69 VAL d   1      35.936  55.075 -14.087  0.00  0.00     0.028 H 
ATOM     96  H70 VAL d   1      36.697  53.655 -14.883  0.00  0.00     0.028 H 
ENDBRANCH  87  93
ENDBRANCH  82  87
ENDBRANCH  80  82
ENDBRANCH  76  78
BRANCH  76  97
ATOM     97  CB  SER d   1      36.333  59.388 -11.505  0.00  0.00     0.044 C 
ATOM     98  H59 SER d   1      35.965  59.699 -10.516  0.00  0.00     0.077 H 
ATOM     99  H60 SER d   1      35.706  58.570 -11.889  0.00  0.00     0.077 H 
BRANCH  97 100
ATOM    100  OG  SER d   1      36.247  60.488 -12.393  0.00  0.00    -0.398 OA
ATOM    101  H61 SER d   1      36.782  61.201 -12.065  0.00  0.00     0.209 HD
ENDBRANCH  97 100
ENDBRANCH  76  97
ENDBRANCH  74  76
ENDBRANCH  70  72
BRANCH  70 102
ATOM    102  CB  TYR d   1      40.111  61.773  -9.323  0.00  0.00    -0.014 C 
ATOM    103  H50 TYR d   1      39.371  62.215 -10.006  0.00  0.00     0.043 H 
ATOM    104  H51 TYR d   1      40.988  61.441  -9.898  0.00  0.00     0.043 H 
BRANCH 102 105
ATOM    105  CG  TYR d   1      40.554  62.840  -8.322  0.00  0.00    -0.056 A 
ATOM    106  CD1 TYR d   1      40.176  62.760  -6.979  0.00  0.00    -0.074 A 
ATOM    107  CE1 TYR d   1      40.579  63.715  -6.052  0.00  0.00    -0.051 A 
ATOM    108  H52 TYR d   1      39.554  61.934  -6.652  0.00  0.00     0.084 H 
ATOM    109  CZ  TYR d   1      41.372  64.780  -6.455  0.00  0.00     0.065 A 
ATOM    110  H54 TYR d   1      40.274  63.627  -5.016  0.00  0.00     0.087 H 
ATOM    111  CE2 TYR d   1      41.767  64.887  -7.780  0.00  0.00    -0.051 A 
ATOM    112  CD2 TYR d   1      41.354  63.915  -8.710  0.00  0.00    -0.074 A 
ATOM    113  H55 TYR d   1      42.391  65.715  -8.098  0.00  0.00     0.087 H 
ATOM    114  H53 TYR d   1      41.663  64.003  -9.745  0.00  0.00     0.084 H 
BRANCH 109 115
ATOM    115  OH  TYR d   1      41.774  65.716  -5.538  0.00  0.00    -0.361 OA
ATOM    116  H56 TYR d   1      41.418  65.495  -4.685  0.00  0.00     0.217 HD
ENDBRANCH 109 115
ENDBRANCH 102 105
ENDBRANCH  70 102
ENDBRANCH  68  70
ENDBRANCH  64  66
BRANCH  64 117
ATOM    117  CB  PHE d   1      40.920  57.217  -5.999  0.00  0.00    -0.014 C 
ATOM    118  H41 PHE d   1      40.573  56.974  -7.014  0.00  0.00     0.043 H 
ATOM    119  H42 PHE d   1      40.078  57.142  -5.296  0.00  0.00     0.043 H 
BRANCH 117 120
ATOM    120  CG  PHE d   1      41.953  56.218  -5.603  0.00  0.00    -0.056 A 
ATOM    121  CD1 PHE d   1      42.169  55.912  -4.259  0.00  0.00    -0.077 A 
ATOM    122  CE1 PHE d   1      43.182  55.009  -3.888  0.00  0.00    -0.082 A 
ATOM    123  H43 PHE d   1      41.552  56.373  -3.496  0.00  0.00     0.084 H 
ATOM    124  CZ  PHE d   1      43.967  54.418  -4.870  0.00  0.00    -0.083 A 
ATOM    125  H45 PHE d   1      43.349  54.776  -2.843  0.00  0.00     0.083 H 
ATOM    126  CE2 PHE d   1      43.747  54.716  -6.211  0.00  0.00    -0.082 A 
ATOM    127  H47 PHE d   1      44.752  53.724  -4.591  0.00  0.00     0.083 H 
ATOM    128  CD2 PHE d   1      42.745  55.607  -6.569  0.00  0.00    -0.077 A 
ATOM    129  H46 PHE d   1      44.358  54.252  -6.976  0.00  0.00     0.083 H 
ATOM    130  H44 PHE d   1      42.577  55.830  -7.617  0.00  0.00     0.084 H 
ENDBRANCH 117 120
ENDBRANCH  64 117
ENDBRANCH  62  64
ENDBRANCH   1  60
BRANCH   1 131
ATOM    131  CB  LYS d   1      42.848  61.974  -2.672  0.00  0.00    -0.038 C 
ATOM    132  H28 LYS d   1      41.920  62.371  -3.109  0.00  0.00     0.036 H 
ATOM    133  H29 LYS d   1      43.713  62.478  -3.127  0.00  0.00     0.036 H 
BRANCH 131 134
ATOM    134  CG  LYS d   1      42.844  62.282  -1.184  0.00  0.00    -0.061 C 
ATOM    135  H30 LYS d   1      43.704  61.784  -0.713  0.00  0.00     0.033 H 
ATOM    136  H31 LYS d   1      41.912  61.901  -0.742  0.00  0.00     0.033 H 
BRANCH 134 137
ATOM    137  CD  LYS d   1      42.937  63.778  -0.929  0.00  0.00    -0.043 C 
ATOM    138  H32 LYS d   1      43.991  64.087  -0.988  0.00  0.00     0.035 H 
ATOM    139  H33 LYS d   1      42.547  63.995   0.076  0.00  0.00     0.035 H 
BRANCH 137 140
ATOM    140  CE  LYS d   1      42.133  64.563  -1.953  0.00  0.00     0.080 C 
ATOM    141  H34 LYS d   1      41.964  63.928  -2.835  0.00  0.00     0.075 H 
ATOM    142  H35 LYS d   1      42.706  65.455  -2.247  0.00  0.00     0.075 H 
BRANCH 140 143
ATOM    143  NZ  LYS d   1      40.815  64.994  -1.411  0.00  0.00    -0.079 N 
ATOM    144  H36 LYS d   1      40.314  65.510  -2.117  0.00  0.00     0.274 HD
ATOM    145  H37 LYS d   1      40.959  65.582  -0.605  0.00  0.00     0.274 HD
ATOM    146  H38 LYS d   1      40.280  64.183  -1.144  0.00  0.00     0.274 HD
ENDBRANCH 140 143
ENDBRANCH 137 140
ENDBRANCH 134 137
ENDBRANCH 131 134
ENDBRANCH   1 131
TORSDOF 40
