REMARK WARNING: 32 MAX_TORS EXCEEDED!!!
REMARK  40 active torsions:
REMARK  status: ('A' for Active; 'I' for Inactive)
REMARK    1  A    between atoms: N_1  and  CA_2 
REMARK    2  A    between atoms: CA_2  and  C_3 
REMARK    3  A    between atoms: CA_2  and  CB_5 
REMARK       I    between atoms: C_3  and  N_10 
REMARK    4  A    between atoms: CB_5  and  CG_6 
REMARK    5  A    between atoms: CG_6  and  CD_7 
REMARK    6  A    between atoms: N_10  and  CA_11 
REMARK    7  A    between atoms: CA_11  and  C_12 
REMARK    8  A    between atoms: CA_11  and  CB_14 
REMARK       I    between atoms: C_12  and  N_19 
REMARK    9  A    between atoms: CB_14  and  CG_15 
REMARK   10  A    between atoms: CG_15  and  CD_16 
REMARK       I    between atoms: CD_16  and  NE2_18 
REMARK   11  A    between atoms: N_19  and  CA_20 
REMARK   12  A    between atoms: CA_20  and  C_21 
REMARK   13  A    between atoms: CA_20  and  CB_23 
REMARK       I    between atoms: C_21  and  N_31 
REMARK   14  A    between atoms: CB_23  and  CG_24 
REMARK   15  A    between atoms: CZ_29  and  OH_30 
REMARK   16  A    between atoms: N_31  and  CA_32 
REMARK   17  A    between atoms: CA_32  and  C_33 
REMARK   18  A    between atoms: CA_32  and  CB_35 
REMARK       I    between atoms: C_33  and  N_40 
REMARK   19  A    between atoms: CB_35  and  CG_36 
REMARK   20  A    between atoms: CG_36  and  CD_37 
REMARK   21  A    between atoms: CD_37  and  CE_38 
REMARK   22  A    between atoms: CE_38  and  NZ_39 
REMARK   23  A    between atoms: N_40  and  CA_41 
REMARK   24  A    between atoms: CA_41  and  C_42 
REMARK   25  A    between atoms: CA_41  and  CB_44 
REMARK       I    between atoms: C_42  and  N_51 
REMARK   26  A    between atoms: CB_44  and  CG_45 
REMARK   27  A    between atoms: N_51  and  CA_52 
REMARK   28  A    between atoms: CA_52  and  C_53 
REMARK   29  A    between atoms: CA_52  and  CB_55 
REMARK       I    between atoms: C_53  and  N_63 
REMARK   30  A    between atoms: CB_55  and  CG_56 
REMARK   31  A    between atoms: CZ_61  and  OH_62 
REMARK   32  A    between atoms: N_63  and  CA_64 
REMARK   33  A    between atoms: CA_64  and  C_65 
REMARK   34  A    between atoms: CA_64  and  CB_67 
REMARK       I    between atoms: C_65  and  N_69 
REMARK   35  A    between atoms: CB_67  and  OG_68 
REMARK   36  A    between atoms: N_69  and  CA_70 
REMARK   37  A    between atoms: CA_70  and  C_71 
REMARK   38  A    between atoms: CA_70  and  CB_73 
REMARK   39  A    between atoms: CB_73  and  CG1_74 
REMARK   40  A    between atoms: CB_73  and  CG2_75 
ROOT
ATOM      1  CA  LYS d   1      42.972  60.203  -3.500  0.00  0.00     0.089 C 
ATOM      2  H27 LYS d   1      42.237  59.691  -2.862  0.00  0.00     0.087 H 
ENDROOT
BRANCH   1   3
ATOM      3  N   LYS d   1      44.315  59.703  -3.220  0.00  0.00    -0.346 N 
ATOM      4  C   TYR d   1      44.526  58.510  -2.663  0.00  0.00     0.241 C 
ATOM      5  O   TYR d   1      43.612  57.759  -2.308  0.00  0.00    -0.271 OA
ATOM      6  H26 LYS d   1      45.102  60.274  -3.454  0.00  0.00     0.163 HD
BRANCH   4   7
ATOM      7  CA  TYR d   1      45.989  58.095  -2.471  0.00  0.00     0.093 C 
ATOM      8  H18 TYR d   1      46.612  58.978  -2.266  0.00  0.00     0.088 H 
BRANCH   7   9
ATOM      9  N   TYR d   1      46.053  57.160  -1.356  0.00  0.00    -0.346 N 
ATOM     10  C   GLN d   1      46.164  57.526  -0.086  0.00  0.00     0.241 C 
ATOM     11  O   GLN d   1      46.250  58.695   0.274  0.00  0.00    -0.271 OA
ATOM     12  H17 TYR d   1      46.011  56.182  -1.561  0.00  0.00     0.163 HD
BRANCH  10  13
ATOM     13  CA  GLN d   1      46.183  56.378   0.922  0.00  0.00     0.090 C 
ATOM     14  H10 GLN d   1      46.749  55.545   0.480  0.00  0.00     0.087 H 
BRANCH  13  15
ATOM     15  N   GLN d   1      46.816  56.739   2.181  0.00  0.00    -0.346 N 
ATOM     16  C   GLU d   1      48.134  56.781   2.349  0.00  0.00     0.249 C 
ATOM     17  O   GLU d   1      48.957  56.552   1.447  0.00  0.00    -0.271 OA
ATOM     18  H9  GLN d   1      46.230  56.967   2.959  0.00  0.00     0.163 HD
BRANCH  16  19
ATOM     19  CA  GLU d   1      48.577  57.169   3.750  0.00  0.00     0.176 C 
ATOM     20  H4  GLU d   1      47.859  56.743   4.466  0.00  0.00     0.099 H 
BRANCH  19  21
ATOM     21  N   GLU d   1      49.929  56.642   4.097  0.00  0.00    -0.066 N 
ATOM     22  H1  GLU d   1      50.171  56.928   5.033  0.00  0.00     0.275 HD
ATOM     23  H2  GLU d   1      50.608  57.007   3.448  0.00  0.00     0.275 HD
ATOM     24  H3  GLU d   1      49.921  55.635   4.045  0.00  0.00     0.275 HD
ENDBRANCH  19  21
BRANCH  19  25
ATOM     25  CB  GLU d   1      48.536  58.695   3.869  0.00  0.00    -0.021 C 
ATOM     26  H5  GLU d   1      47.592  59.049   3.429  0.00  0.00     0.037 H 
ATOM     27  H6  GLU d   1      49.383  59.107   3.300  0.00  0.00     0.037 H 
BRANCH  25  28
ATOM     28  CG  GLU d   1      48.621  59.215   5.287  0.00  0.00     0.018 C 
ATOM     29  H7  GLU d   1      49.672  59.193   5.610  0.00  0.00     0.049 H 
ATOM     30  H8  GLU d   1      48.023  58.562   5.940  0.00  0.00     0.049 H 
BRANCH  28  31
ATOM     31  CD  GLU d   1      48.102  60.638   5.411  0.00  0.00     0.172 C 
ATOM     32  OE1 GLU d   1      48.342  61.445   4.484  0.00  0.00    -0.648 OA
ATOM     33  OE2 GLU d   1      47.462  60.954   6.440  0.00  0.00    -0.648 OA
ENDBRANCH  28  31
ENDBRANCH  25  28
ENDBRANCH  19  25
ENDBRANCH  16  19
ENDBRANCH  13  15
BRANCH  13  34
ATOM     34  CB  GLN d   1      44.748  55.912   1.198  0.00  0.00    -0.030 C 
ATOM     35  H11 GLN d   1      44.240  56.695   1.780  0.00  0.00     0.037 H 
ATOM     36  H12 GLN d   1      44.797  54.987   1.792  0.00  0.00     0.037 H 
BRANCH  34  37
ATOM     37  CG  GLN d   1      43.919  55.633  -0.043  0.00  0.00     0.011 C 
ATOM     38  H13 GLN d   1      43.978  56.505  -0.710  0.00  0.00     0.047 H 
ATOM     39  H14 GLN d   1      42.874  55.473   0.260  0.00  0.00     0.047 H 
BRANCH  37  40
ATOM     40  CD  GLN d   1      44.398  54.410  -0.799  0.00  0.00     0.215 C 
ATOM     41  OE1 GLN d   1      43.741  53.370  -0.790  0.00  0.00    -0.274 OA
ATOM     42  NE2 GLN d   1      45.552  54.525  -1.450  0.00  0.00    -0.370 N 
ATOM     43  H15 GLN d   1      45.915  53.749  -1.965  0.00  0.00     0.159 HD
ATOM     44  H16 GLN d   1      46.057  55.388  -1.424  0.00  0.00     0.159 HD
ENDBRANCH  37  40
ENDBRANCH  34  37
ENDBRANCH  13  34
ENDBRANCH  10  13
ENDBRANCH   7   9
BRANCH   7  45
ATOM     45  CB  TYR d   1      46.477  57.388  -3.739  0.00  0.00    -0.014 C 
ATOM     46  H19 TYR d   1      45.815  56.529  -3.921  0.00  0.00     0.043 H 
ATOM     47  H20 TYR d   1      47.500  57.029  -3.551  0.00  0.00     0.043 H 
BRANCH  45  48
ATOM     48  CG  TYR d   1      46.505  58.225  -4.999  0.00  0.00    -0.056 A 
ATOM     49  CD1 TYR d   1      47.369  59.314  -5.117  0.00  0.00    -0.074 A 
ATOM     50  CE1 TYR d   1      47.456  60.039  -6.300  0.00  0.00    -0.051 A 
ATOM     51  H21 TYR d   1      47.983  59.600  -4.271  0.00  0.00     0.084 H 
ATOM     52  CZ  TYR d   1      46.668  59.674  -7.384  0.00  0.00     0.065 A 
ATOM     53  H23 TYR d   1      48.133  60.882  -6.376  0.00  0.00     0.087 H 
ATOM     54  CE2 TYR d   1      45.797  58.595  -7.287  0.00  0.00    -0.051 A 
ATOM     55  CD2 TYR d   1      45.720  57.883  -6.100  0.00  0.00    -0.074 A 
ATOM     56  H24 TYR d   1      45.182  58.312  -8.134  0.00  0.00     0.087 H 
ATOM     57  H22 TYR d   1      45.037  57.045  -6.026  0.00  0.00     0.084 H 
BRANCH  52  58
ATOM     58  OH  TYR d   1      46.759  60.386  -8.561  0.00  0.00    -0.361 OA
ATOM     59  H25 TYR d   1      47.035  59.805  -9.261  0.00  0.00     0.217 HD
ENDBRANCH  52  58
ENDBRANCH  45  48
ENDBRANCH   7  45
ENDBRANCH   4   7
ENDBRANCH   1   3
BRANCH   1  60
ATOM     60  C   LYS d   1      42.696  59.906  -4.974  0.00  0.00     0.241 C 
ATOM     61  O   LYS d   1      43.311  60.501  -5.857  0.00  0.00    -0.271 OA
ATOM     62  N   PHE d   1      41.777  58.982  -5.238  0.00  0.00    -0.346 N 
ATOM     63  H39 PHE d   1      41.299  58.536  -4.481  0.00  0.00     0.163 HD
BRANCH  62  64
ATOM     64  CA  PHE d   1      41.451  58.604  -6.611  0.00  0.00     0.093 C 
ATOM     65  H40 PHE d   1      42.373  58.688  -7.205  0.00  0.00     0.088 H 
BRANCH  64  66
ATOM     66  C   PHE d   1      40.381  59.473  -7.265  0.00  0.00     0.241 C 
ATOM     67  O   PHE d   1      39.635  60.174  -6.590  0.00  0.00    -0.271 OA
ATOM     68  N   TYR d   1      40.328  59.411  -8.592  0.00  0.00    -0.346 N 
ATOM     69  H48 TYR d   1      41.014  58.867  -9.075  0.00  0.00     0.163 HD
BRANCH  68  70
ATOM     70  CA  TYR d   1      39.310  60.105  -9.370  0.00  0.00     0.093 C 
ATOM     71  H49 TYR d   1      38.473  60.397  -8.718  0.00  0.00     0.088 H 
BRANCH  70  72
ATOM     72  C   TYR d   1      38.856  59.077 -10.397  0.00  0.00     0.241 C 
ATOM     73  O   TYR d   1      39.648  58.262 -10.852  0.00  0.00    -0.271 OA
ATOM     74  N   SER d   1      37.579  59.122 -10.750  0.00  0.00    -0.344 N 
ATOM     75  H57 SER d   1      36.996  59.831 -10.353  0.00  0.00     0.163 HD
BRANCH  74  76
ATOM     76  CA  SER d   1      36.992  58.181 -11.692  0.00  0.00     0.109 C 
ATOM     77  H58 SER d   1      36.879  57.236 -11.141  0.00  0.00     0.090 H 
BRANCH  76  78
ATOM     78  C   SER d   1      37.774  57.837 -12.962  0.00  0.00     0.243 C 
ATOM     79  O   SER d   1      38.567  58.620 -13.486  0.00  0.00    -0.271 OA
ATOM     80  N   VAL d   1      37.521  56.627 -13.440  0.00  0.00    -0.344 N 
ATOM     81  H62 VAL d   1      36.884  56.042 -12.938  0.00  0.00     0.163 HD
BRANCH  80  82
ATOM     82  CA  VAL d   1      38.121  56.109 -14.654  0.00  0.00     0.099 C 
ATOM     83  H63 VAL d   1      39.175  56.417 -14.715  0.00  0.00     0.090 H 
BRANCH  82  84
ATOM     84  C   VAL d   1      37.335  56.693 -15.851  0.00  0.00     0.197 C 
ATOM     85  O   VAL d   1      37.762  56.512 -17.011  0.00  0.00    -0.646 OA
ATOM     86  OXT VAL d   1      36.284  57.336 -15.615  0.00  0.00    -0.646 OA
ENDBRANCH  82  84
BRANCH  82  87
ATOM     87  CB  VAL d   1      38.036  54.559 -14.648  0.00  0.00    -0.032 C 
ATOM     88  H64 VAL d   1      36.987  54.262 -14.499  0.00  0.00     0.042 H 
BRANCH  87  89
ATOM     89  CG1 VAL d   1      38.518  54.005 -15.946  0.00  0.00    -0.071 C 
ATOM     90  H65 VAL d   1      38.451  52.907 -15.924  0.00  0.00     0.028 H 
ATOM     91  H66 VAL d   1      39.564  54.305 -16.107  0.00  0.00     0.028 H 
ATOM     92  H67 VAL d   1      37.895  54.394 -16.765  0.00  0.00     0.028 H 
ENDBRANCH  87  89
BRANCH  87  93
ATOM     93  CG2 VAL d   1      38.884  53.988 -13.508  0.00  0.00    -0.071 C 
ATOM     94  H68 VAL d   1      38.531  54.395 -12.549  0.00  0.00     0.028 H 
ATOM     95  H69 VAL d   1      39.937  54.267 -13.659  0.00  0.00     0.028 H 
ATOM     96  H70 VAL d   1      38.793  52.892 -13.497  0.00  0.00     0.028 H 
ENDBRANCH  87  93
ENDBRANCH  82  87
ENDBRANCH  80  82
ENDBRANCH  76  78
BRANCH  76  97
ATOM     97  CB  SER d   1      35.590  58.660 -12.090  0.00  0.00     0.044 C 
ATOM     98  H59 SER d   1      35.660  59.677 -12.503  0.00  0.00     0.077 H 
ATOM     99  H60 SER d   1      34.946  58.670 -11.198  0.00  0.00     0.077 H 
BRANCH  97 100
ATOM    100  OG  SER d   1      35.019  57.798 -13.068  0.00  0.00    -0.398 OA
ATOM    101  H61 SER d   1      35.571  57.789 -13.841  0.00  0.00     0.209 HD
ENDBRANCH  97 100
ENDBRANCH  76  97
ENDBRANCH  74  76
ENDBRANCH  70  72
BRANCH  70 102
ATOM    102  CB  TYR d   1      39.843  61.355 -10.081  0.00  0.00    -0.014 C 
ATOM    103  H50 TYR d   1      40.684  61.067 -10.729  0.00  0.00     0.043 H 
ATOM    104  H51 TYR d   1      40.191  62.075  -9.326  0.00  0.00     0.043 H 
BRANCH 102 105
ATOM    105  CG  TYR d   1      38.768  62.010 -10.929  0.00  0.00    -0.056 A 
ATOM    106  CD1 TYR d   1      38.529  61.588 -12.244  0.00  0.00    -0.074 A 
ATOM    107  CE1 TYR d   1      37.459  62.101 -12.992  0.00  0.00    -0.051 A 
ATOM    108  H52 TYR d   1      39.184  60.850 -12.692  0.00  0.00     0.084 H 
ATOM    109  CZ  TYR d   1      36.615  63.048 -12.422  0.00  0.00     0.065 A 
ATOM    110  H54 TYR d   1      37.291  61.761 -14.008  0.00  0.00     0.087 H 
ATOM    111  CE2 TYR d   1      36.836  63.491 -11.121  0.00  0.00    -0.051 A 
ATOM    112  CD2 TYR d   1      37.912  62.973 -10.384  0.00  0.00    -0.074 A 
ATOM    113  H55 TYR d   1      36.180  64.233 -10.679  0.00  0.00     0.087 H 
ATOM    114  H53 TYR d   1      38.083  63.326  -9.373  0.00  0.00     0.084 H 
BRANCH 109 115
ATOM    115  OH  TYR d   1      35.540  63.536 -13.142  0.00  0.00    -0.361 OA
ATOM    116  H56 TYR d   1      35.530  63.137 -14.004  0.00  0.00     0.217 HD
ENDBRANCH 109 115
ENDBRANCH 102 105
ENDBRANCH  70 102
ENDBRANCH  68  70
ENDBRANCH  64  66
BRANCH  64 117
ATOM    117  CB  PHE d   1      40.952  57.155  -6.668  0.00  0.00    -0.014 C 
ATOM    118  H41 PHE d   1      40.652  56.934  -7.703  0.00  0.00     0.043 H 
ATOM    119  H42 PHE d   1      40.078  57.065  -6.006  0.00  0.00     0.043 H 
BRANCH 117 120
ATOM    120  CG  PHE d   1      41.967  56.135  -6.246  0.00  0.00    -0.056 A 
ATOM    121  CD1 PHE d   1      42.215  55.892  -4.893  0.00  0.00    -0.077 A 
ATOM    122  CE1 PHE d   1      43.157  54.939  -4.502  0.00  0.00    -0.082 A 
ATOM    123  H43 PHE d   1      41.670  56.449  -4.139  0.00  0.00     0.084 H 
ATOM    124  CZ  PHE d   1      43.864  54.217  -5.471  0.00  0.00    -0.083 A 
ATOM    125  H45 PHE d   1      43.341  54.758  -3.449  0.00  0.00     0.083 H 
ATOM    126  CE2 PHE d   1      43.621  54.456  -6.832  0.00  0.00    -0.082 A 
ATOM    127  H47 PHE d   1      44.596  53.476  -5.171  0.00  0.00     0.083 H 
ATOM    128  CD2 PHE d   1      42.679  55.408  -7.208  0.00  0.00    -0.077 A 
ATOM    129  H46 PHE d   1      44.165  53.901  -7.588  0.00  0.00     0.083 H 
ATOM    130  H44 PHE d   1      42.493  55.590  -8.261  0.00  0.00     0.084 H 
ENDBRANCH 117 120
ENDBRANCH  64 117
ENDBRANCH  62  64
ENDBRANCH   1  60
BRANCH   1 131
ATOM    131  CB  LYS d   1      42.896  61.713  -3.259  0.00  0.00    -0.038 C 
ATOM    132  H28 LYS d   1      42.738  62.211  -4.227  0.00  0.00     0.036 H 
ATOM    133  H29 LYS d   1      43.853  62.044  -2.828  0.00  0.00     0.036 H 
BRANCH 131 134
ATOM    134  CG  LYS d   1      41.781  62.130  -2.321  0.00  0.00    -0.061 C 
ATOM    135  H30 LYS d   1      42.078  61.892  -1.289  0.00  0.00     0.033 H 
ATOM    136  H31 LYS d   1      40.871  61.568  -2.580  0.00  0.00     0.033 H 
BRANCH 134 137
ATOM    137  CD  LYS d   1      41.479  63.627  -2.414  0.00  0.00    -0.043 C 
ATOM    138  H32 LYS d   1      40.624  63.855  -1.761  0.00  0.00     0.035 H 
ATOM    139  H33 LYS d   1      41.220  63.870  -3.455  0.00  0.00     0.035 H 
BRANCH 137 140
ATOM    140  CE  LYS d   1      42.663  64.495  -1.990  0.00  0.00     0.080 C 
ATOM    141  H34 LYS d   1      43.564  64.157  -2.523  0.00  0.00     0.075 H 
ATOM    142  H35 LYS d   1      42.816  64.387  -0.906  0.00  0.00     0.075 H 
BRANCH 140 143
ATOM    143  NZ  LYS d   1      42.422  65.937  -2.307  0.00  0.00    -0.079 N 
ATOM    144  H36 LYS d   1      43.218  66.483  -2.016  0.00  0.00     0.274 HD
ATOM    145  H37 LYS d   1      41.600  66.256  -1.818  0.00  0.00     0.274 HD
ATOM    146  H38 LYS d   1      42.285  66.044  -3.300  0.00  0.00     0.274 HD
ENDBRANCH 140 143
ENDBRANCH 137 140
ENDBRANCH 134 137
ENDBRANCH 131 134
ENDBRANCH   1 131
TORSDOF 40
