REMARK  21 active torsions:
REMARK  status: ('A' for Active; 'I' for Inactive)
REMARK    1  A    between atoms: CA_1  and  CB_2 
REMARK    2  A    between atoms: N2_9  and  CA_1 
REMARK    3  A    between atoms: CA_1  and  C1_10 
REMARK    4  A    between atoms: CB_2  and  CG_3 
REMARK       I    between atoms: C5_20  and  N2_9 
REMARK    5  A    between atoms: C1_10  and  CB1_11 
REMARK    6  A    between atoms: C1_10  and  O1_13 
REMARK    7  A    between atoms: CB1_11  and  N1_12 
REMARK    8  A    between atoms: N1_12  and  C3_14 
REMARK       I    between atoms: N1_12  and  C2_16 
REMARK    9  A    between atoms: C3_14  and  C4_15 
REMARK   10  A    between atoms: C4_15  and  C27_38 
REMARK   11  A    between atoms: C2_16  and  C6_17 
REMARK   12  A    between atoms: C6_17  and  C7_19 
REMARK   13  A    between atoms: C7_19  and  N3_29 
REMARK   14  A    between atoms: C20_45  and  C5_20 
REMARK   15  A    between atoms: O10_48  and  C12_42 
REMARK   16  A    between atoms: C24_43  and  O9_49 
REMARK   17  A    between atoms: C28_47  and  O6_50 
REMARK   18  A    between atoms: C36_53  and  O10_48 
REMARK   19  A    between atoms: O9_49  and  C37_52 
REMARK   20  A    between atoms: O6_50  and  C31_51 
REMARK   21  A    between atoms: C21_57  and  C36_53 
ROOT
ATOM      1  CA  EH5 d   1      16.463   3.506  26.224  0.00  0.00     0.042 C 
ATOM      2  H1  EH5 d   1      17.446   3.978  26.369  0.00  0.00     0.077 H 
ENDROOT
BRANCH   1   3
ATOM      3  CB  EH5 d   1      16.644   2.142  25.549  0.00  0.00    -0.020 C 
ATOM      4  H2  EH5 d   1      17.133   2.298  24.576  0.00  0.00     0.043 H 
ATOM      5  H3  EH5 d   1      15.650   1.697  25.393  0.00  0.00     0.043 H 
BRANCH   3   6
ATOM      6  CG  EH5 d   1      17.462   1.194  26.337  0.00  0.00    -0.056 A 
ATOM      7  CD1 EH5 d   1      18.785   1.516  26.732  0.00  0.00    -0.077 A 
ATOM      8  CE1 EH5 d   1      19.541   0.612  27.477  0.00  0.00    -0.082 A 
ATOM      9  H4  EH5 d   1      19.212   2.472  26.453  0.00  0.00     0.084 H 
ATOM     10  CZ  EH5 d   1      19.005  -0.617  27.848  0.00  0.00    -0.083 A 
ATOM     11  H6  EH5 d   1      20.553   0.868  27.769  0.00  0.00     0.083 H 
ATOM     12  CE2 EH5 d   1      17.703  -0.948  27.469  0.00  0.00    -0.082 A 
ATOM     13  H8  EH5 d   1      19.596  -1.315  28.429  0.00  0.00     0.083 H 
ATOM     14  CD2 EH5 d   1      16.927  -0.035  26.713  0.00  0.00    -0.077 A 
ATOM     15  H7  EH5 d   1      17.284  -1.906  27.754  0.00  0.00     0.083 H 
ATOM     16  H5  EH5 d   1      15.914  -0.294  26.427  0.00  0.00     0.084 H 
ENDBRANCH   3   6
ENDBRANCH   1   3
BRANCH   1  17
ATOM     17  N2  EH5 d   1      15.847   3.274  27.481  0.00  0.00    -0.349 N 
ATOM     18  C5  EH5 d   1      16.363   3.519  28.684  0.00  0.00     0.252 C 
ATOM     19  O3  EH5 d   1      17.501   4.006  28.921  0.00  0.00    -0.268 OA
ATOM     20  H9  EH5 d   1      14.926   2.885  27.461  0.00  0.00     0.163 HD
BRANCH  18  21
ATOM     21  C20 EH5 d   1      15.493   3.169  29.679  0.00  0.00     0.037 A 
ATOM     22  C16 EH5 d   1      15.423   1.813  30.080  0.00  0.00    -0.033 A 
ATOM     23  C24 EH5 d   1      14.557   1.427  31.082  0.00  0.00     0.105 A 
ATOM     24  H31 EH5 d   1      16.053   1.075  29.597  0.00  0.00     0.089 H 
ATOM     25  C12 EH5 d   1      13.729   2.397  31.736  0.00  0.00     0.135 A 
ATOM     26  C28 EH5 d   1      13.778   3.779  31.322  0.00  0.00     0.105 A 
ATOM     27  C34 EH5 d   1      14.667   4.154  30.295  0.00  0.00    -0.033 A 
ATOM     28  H32 EH5 d   1      14.723   5.188  29.974  0.00  0.00     0.089 H 
BRANCH  23  29
ATOM     29  O9  EH5 d   1      14.591   0.073  31.387  0.00  0.00    -0.353 OA
BRANCH  29  30
ATOM     30  C37 EH5 d   1      14.223  -0.943  30.499  0.00  0.00     0.010 C 
ATOM     31  H36 EH5 d   1      14.343  -1.920  30.990  0.00  0.00     0.066 H 
ATOM     32  H37 EH5 d   1      14.864  -0.900  29.606  0.00  0.00     0.066 H 
ATOM     33  H38 EH5 d   1      13.172  -0.808  30.203  0.00  0.00     0.066 H 
ENDBRANCH  29  30
ENDBRANCH  23  29
BRANCH  25  34
ATOM     34  O10 EH5 d   1      13.101   1.935  32.886  0.00  0.00    -0.341 OA
BRANCH  34  35
ATOM     35  C36 EH5 d   1      14.077   2.103  34.009  0.00  0.00     0.050 C 
ATOM     36  H39 EH5 d   1      13.878   1.215  34.626  0.00  0.00     0.082 H 
ATOM     37  H40 EH5 d   1      13.693   2.998  34.520  0.00  0.00     0.082 H 
BRANCH  35  38
ATOM     38  C21 EH5 d   1      15.658   2.276  34.165  0.00  0.00    -0.034 A 
ATOM     39  C17 EH5 d   1      16.483   1.174  34.473  0.00  0.00    -0.075 A 
ATOM     40  C25 EH5 d   1      17.886   1.294  34.608  0.00  0.00    -0.082 A 
ATOM     41  H43 EH5 d   1      16.026   0.201  34.611  0.00  0.00     0.084 H 
ATOM     42  C13 EH5 d   1      18.503   2.528  34.436  0.00  0.00    -0.083 A 
ATOM     43  H42 EH5 d   1      18.482   0.421  34.846  0.00  0.00     0.083 H 
ATOM     44  C29 EH5 d   1      17.721   3.671  34.124  0.00  0.00    -0.082 A 
ATOM     45  H41 EH5 d   1      19.578   2.617  34.540  0.00  0.00     0.083 H 
ATOM     46  C35 EH5 d   1      16.307   3.546  33.990  0.00  0.00    -0.075 A 
ATOM     47  H45 EH5 d   1      18.197   4.635  33.988  0.00  0.00     0.083 H 
ATOM     48  H44 EH5 d   1      15.713   4.421  33.753  0.00  0.00     0.084 H 
ENDBRANCH  35  38
ENDBRANCH  34  35
ENDBRANCH  25  34
BRANCH  26  49
ATOM     49  O6  EH5 d   1      13.033   4.867  31.828  0.00  0.00    -0.353 OA
BRANCH  49  50
ATOM     50  C31 EH5 d   1      13.603   5.980  32.478  0.00  0.00     0.010 C 
ATOM     51  H33 EH5 d   1      12.807   6.680  32.772  0.00  0.00     0.066 H 
ATOM     52  H34 EH5 d   1      14.302   6.485  31.795  0.00  0.00     0.066 H 
ATOM     53  H35 EH5 d   1      14.145   5.644  33.374  0.00  0.00     0.066 H 
ENDBRANCH  49  50
ENDBRANCH  26  49
ENDBRANCH  18  21
ENDBRANCH   1  17
BRANCH   1  54
ATOM     54  C1  EH5 d   1      15.573   4.443  25.376  0.00  0.00     0.070 C 
ATOM     55  H10 EH5 d   1      16.139   4.795  24.501  0.00  0.00     0.088 H 
BRANCH  54  56
ATOM     56  CB1 EH5 d   1      15.152   5.626  26.243  0.00  0.00     0.023 C 
ATOM     57  H11 EH5 d   1      15.829   5.743  27.102  0.00  0.00     0.068 H 
ATOM     58  H12 EH5 d   1      14.120   5.501  26.603  0.00  0.00     0.068 H 
BRANCH  56  59
ATOM     59  N1  EH5 d   1      15.253   6.758  25.348  0.00  0.00    -0.349 N 
ATOM     60  C2  EH5 d   1      16.507   7.349  25.220  0.00  0.00     0.221 C 
ATOM     61  O2  EH5 d   1      17.509   6.946  25.847  0.00  0.00    -0.273 OA
BRANCH  59  62
ATOM     62  C3  EH5 d   1      13.981   7.161  24.714  0.00  0.00     0.001 C 
ATOM     63  H14 EH5 d   1      13.535   6.241  24.308  0.00  0.00     0.064 H 
ATOM     64  H15 EH5 d   1      14.249   7.835  23.887  0.00  0.00     0.064 H 
BRANCH  62  65
ATOM     65  C4  EH5 d   1      12.889   7.854  25.483  0.00  0.00    -0.026 C 
ATOM     66  H16 EH5 d   1      12.301   7.090  26.013  0.00  0.00     0.042 H 
ATOM     67  H17 EH5 d   1      12.243   8.382  24.766  0.00  0.00     0.042 H 
BRANCH  65  68
ATOM     68  C27 EH5 d   1      13.376   8.830  26.471  0.00  0.00    -0.054 A 
ATOM     69  C11 EH5 d   1      13.539   8.429  27.824  0.00  0.00    -0.074 A 
ATOM     70  C23 EH5 d   1      14.001   9.349  28.845  0.00  0.00    -0.047 A 
ATOM     71  H26 EH5 d   1      13.312   7.406  28.101  0.00  0.00     0.084 H 
ATOM     72  C15 EH5 d   1      14.297  10.679  28.488  0.00  0.00     0.105 A 
ATOM     73  H27 EH5 d   1      14.117   9.017  29.870  0.00  0.00     0.087 H 
ATOM     74  C19 EH5 d   1      14.144  11.108  27.136  0.00  0.00     0.105 A 
ATOM     75  O5  EH5 d   1      14.726  11.696  29.230  0.00  0.00    -0.323 OA
ATOM     76  C33 EH5 d   1      13.679  10.171  26.119  0.00  0.00    -0.042 A 
ATOM     77  O8  EH5 d   1      14.495  12.425  27.071  0.00  0.00    -0.323 OA
ATOM     78  H28 EH5 d   1      13.565  10.500  25.092  0.00  0.00     0.088 H 
ATOM     79  C8  EH5 d   1      14.847  12.764  28.359  0.00  0.00     0.115 A 
ATOM     80  H29 EH5 d   1      15.892  13.108  28.362  0.00  0.00     0.118 H 
ATOM     81  H30 EH5 d   1      14.192  13.578  28.703  0.00  0.00     0.118 H 
ENDBRANCH  65  68
ENDBRANCH  62  65
ENDBRANCH  59  62
BRANCH  60  82
ATOM     82  C6  EH5 d   1      16.640   8.523  24.276  0.00  0.00     0.025 C 
ATOM     83  H18 EH5 d   1      16.217   9.414  24.764  0.00  0.00     0.049 H 
ATOM     84  H19 EH5 d   1      16.072   8.302  23.361  0.00  0.00     0.049 H 
BRANCH  82  85
ATOM     85  C7  EH5 d   1      18.054   8.816  23.897  0.00  0.00     0.014 C 
ATOM     86  H20 EH5 d   1      18.418   8.076  23.169  0.00  0.00     0.065 H 
ATOM     87  H21 EH5 d   1      18.701   8.804  24.787  0.00  0.00     0.065 H 
BRANCH  85  88
ATOM     88  N3  EH5 d   1      18.030  10.156  23.299  0.00  0.00    -0.279 N 
ATOM     89  C30 EH5 d   1      18.166  10.464  21.954  0.00  0.00     0.261 A 
ATOM     90  C14 EH5 d   1      18.091  11.850  21.775  0.00  0.00     0.048 A 
ATOM     91  O4  EH5 d   1      18.334   9.618  21.033  0.00  0.00    -0.267 OA
ATOM     92  C22 EH5 d   1      18.165  12.661  20.602  0.00  0.00    -0.067 A 
ATOM     93  C18 EH5 d   1      17.901  12.411  23.045  0.00  0.00     0.048 A 
ATOM     94  C10 EH5 d   1      18.036  14.079  20.774  0.00  0.00    -0.082 A 
ATOM     95  H23 EH5 d   1      18.313  12.223  19.622  0.00  0.00     0.085 H 
ATOM     96  C26 EH5 d   1      17.836  14.648  22.108  0.00  0.00    -0.082 A 
ATOM     97  H22 EH5 d   1      18.087  14.733  19.911  0.00  0.00     0.083 H 
ATOM     98  C32 EH5 d   1      17.769  13.810  23.252  0.00  0.00    -0.067 A 
ATOM     99  H25 EH5 d   1      17.738  15.721  22.224  0.00  0.00     0.083 H 
ATOM    100  H24 EH5 d   1      17.623  14.222  24.244  0.00  0.00     0.085 H 
ATOM    101  C9  EH5 d   1      17.871  11.379  23.942  0.00  0.00     0.261 A 
ATOM    102  O7  EH5 d   1      17.719  11.527  25.166  0.00  0.00    -0.267 OA
ENDBRANCH  85  88
ENDBRANCH  82  85
ENDBRANCH  60  82
ENDBRANCH  56  59
ENDBRANCH  54  56
BRANCH  54 103
ATOM    103  O1  EH5 d   1      14.360   3.761  24.936  0.00  0.00    -0.392 OA
ATOM    104  H13 EH5 d   1      14.595   3.018  24.393  0.00  0.00     0.210 HD
ENDBRANCH  54 103
ENDBRANCH   1  54
TORSDOF 21
