REMARK WARNING: 32 MAX_TORS EXCEEDED!!!
REMARK  40 active torsions:
REMARK  status: ('A' for Active; 'I' for Inactive)
REMARK    1  A    between atoms: N_1  and  CA_2 
REMARK    2  A    between atoms: CA_2  and  CB_3 
REMARK    3  A    between atoms: CA_2  and  C_5 
REMARK    4  A    between atoms: CB_3  and  OG_4 
REMARK    5  A    between atoms: OG_4  and  P_7 
REMARK       I    between atoms: C_5  and  N_11 
REMARK    6  A    between atoms: N_11  and  CA_12 
REMARK    7  A    between atoms: CA_12  and  C_13 
REMARK    8  A    between atoms: CA_12  and  CB_15 
REMARK       I    between atoms: C_13  and  N_19 
REMARK    9  A    between atoms: CB_15  and  CG_16 
REMARK   10  A    between atoms: N_19  and  CA_20 
REMARK   11  A    between atoms: CA_20  and  C_21 
REMARK   12  A    between atoms: CA_20  and  CB_23 
REMARK       I    between atoms: C_21  and  N_28 
REMARK   13  A    between atoms: CB_23  and  CG_24 
REMARK   14  A    between atoms: CG_24  and  CD_25 
REMARK   15  A    between atoms: N_28  and  CA_29 
REMARK   16  A    between atoms: CA_29  and  C_30 
REMARK   17  A    between atoms: CA_29  and  CB_32 
REMARK       I    between atoms: C_30  and  N_36 
REMARK   18  A    between atoms: CB_32  and  CG_33 
REMARK   19  A    between atoms: N_36  and  CA_37 
REMARK   20  A    between atoms: CA_37  and  C_38 
REMARK   21  A    between atoms: CA_37  and  CB_40 
REMARK       I    between atoms: C_38  and  N_44 
REMARK   22  A    between atoms: CB_40  and  CG_41 
REMARK   23  A    between atoms: CG_41  and  CD1_42 
REMARK   24  A    between atoms: CG_41  and  CD2_43 
REMARK   25  A    between atoms: N_44  and  CA_45 
REMARK   26  A    between atoms: CA_45  and  C_46 
REMARK   27  A    between atoms: CA_45  and  CB_48 
REMARK       I    between atoms: C_46  and  N_52 
REMARK   28  A    between atoms: CB_48  and  CG_49 
REMARK   29  A    between atoms: CG_49  and  CD1_50 
REMARK   30  A    between atoms: CG_49  and  CD2_51 
REMARK   31  A    between atoms: N_52  and  CA_53 
REMARK   32  A    between atoms: CA_53  and  C_54 
REMARK   33  A    between atoms: CA_53  and  CB_56 
REMARK       I    between atoms: C_54  and  N_62 
REMARK   34  A    between atoms: CB_56  and  CG_57 
REMARK   35  A    between atoms: N_62  and  CA_63 
REMARK   36  A    between atoms: CA_63  and  C_64 
REMARK   37  A    between atoms: CA_63  and  CB_66 
REMARK   38  A    between atoms: CB_66  and  CG1_67 
REMARK   39  A    between atoms: CB_66  and  CG2_68 
REMARK   40  A    between atoms: CG1_67  and  CD1_69 
ROOT
ATOM      1  CA  LEU d   1      42.886   9.410  50.547  0.00  0.00     0.089 C 
ATOM      2  H22 LEU d   1      41.804   9.591  50.463  0.00  0.00     0.087 H 
ENDROOT
BRANCH   1   3
ATOM      3  N   LEU d   1      43.391  10.152  51.692  0.00  0.00    -0.346 N 
ATOM      4  C   ASP d   1      42.934   9.912  52.917  0.00  0.00     0.241 C 
ATOM      5  O   ASP d   1      42.074   9.062  53.158  0.00  0.00    -0.271 OA
ATOM      6  H21 LEU d   1      44.092  10.852  51.556  0.00  0.00     0.163 HD
BRANCH   4   7
ATOM      7  CA  ASP d   1      43.528  10.746  54.044  0.00  0.00     0.098 C 
ATOM      8  H18 ASP d   1      43.731  11.770  53.697  0.00  0.00     0.088 H 
BRANCH   7   9
ATOM      9  N   ASP d   1      42.537  10.765  55.116  0.00  0.00    -0.346 N 
ATOM     10  C   GLU d   1      41.683  11.772  55.273  0.00  0.00     0.241 C 
ATOM     11  O   GLU d   1      41.681  12.768  54.552  0.00  0.00    -0.271 OA
ATOM     12  H17 ASP d   1      42.499   9.995  55.753  0.00  0.00     0.163 HD
BRANCH  10  13
ATOM     13  CA  GLU d   1      40.679  11.634  56.413  0.00  0.00     0.090 C 
ATOM     14  H12 GLU d   1      41.205  11.508  57.371  0.00  0.00     0.087 H 
BRANCH  13  15
ATOM     15  N   GLU d   1      39.853  12.838  56.455  0.00  0.00    -0.346 N 
ATOM     16  C   ASP d   1      40.241  13.988  57.000  0.00  0.00     0.241 C 
ATOM     17  O   ASP d   1      41.327  14.146  57.551  0.00  0.00    -0.271 OA
ATOM     18  H11 GLU d   1      38.940  12.795  56.049  0.00  0.00     0.163 HD
BRANCH  16  19
ATOM     19  CA  ASP d   1      39.232  15.134  56.908  0.00  0.00     0.098 C 
ATOM     20  H8  ASP d   1      38.243  14.743  57.189  0.00  0.00     0.088 H 
BRANCH  19  21
ATOM     21  N   ASP d   1      39.564  16.233  57.798  0.00  0.00    -0.345 N 
ATOM     22  C   SEP d   1      39.196  16.260  59.073  0.00  0.00     0.251 C 
ATOM     23  O   SEP d   1      38.613  15.328  59.615  0.00  0.00    -0.271 OA
ATOM     24  H7  ASP d   1      40.092  17.001  57.435  0.00  0.00     0.163 HD
BRANCH  22  25
ATOM     25  CA  SEP d   1      39.615  17.498  59.843  0.00  0.00     0.196 C 
ATOM     26  H4  SEP d   1      39.770  17.125  60.866  0.00  0.00     0.102 H 
BRANCH  25  27
ATOM     27  N   SEP d   1      40.948  18.002  59.440  0.00  0.00    -0.064 N 
ATOM     28  H1  SEP d   1      41.175  18.822  59.981  0.00  0.00     0.275 HD
ATOM     29  H2  SEP d   1      40.936  18.239  58.460  0.00  0.00     0.275 HD
ATOM     30  H3  SEP d   1      41.641  17.289  59.605  0.00  0.00     0.275 HD
ENDBRANCH  25  27
BRANCH  25  31
ATOM     31  CB  SEP d   1      38.553  18.585  60.022  0.00  0.00     0.067 C 
ATOM     32  H5  SEP d   1      38.662  19.336  59.226  0.00  0.00     0.079 H 
ATOM     33  H6  SEP d   1      38.686  19.067  61.002  0.00  0.00     0.079 H 
BRANCH  31  34
ATOM     34  OG  SEP d   1      37.258  18.010  59.953  0.00  0.00    -0.280 OA
BRANCH  34  35
ATOM     35  P   SEP d   1      36.047  18.857  59.665  0.00  0.00     0.422 P 
ATOM     36  O1P SEP d   1      34.921  18.428  60.540  0.00  0.00    -0.617 OA
ATOM     37  O2P SEP d   1      35.654  18.685  58.241  0.00  0.00    -0.617 OA
ATOM     38  O3P SEP d   1      36.360  20.288  59.928  0.00  0.00    -0.617 OA
ENDBRANCH  34  35
ENDBRANCH  31  34
ENDBRANCH  25  31
ENDBRANCH  22  25
ENDBRANCH  19  21
BRANCH  19  39
ATOM     39  CB  ASP d   1      39.163  15.674  55.473  0.00  0.00     0.043 C 
ATOM     40  H9  ASP d   1      40.157  16.055  55.194  0.00  0.00     0.052 H 
ATOM     41  H10 ASP d   1      38.433  16.497  55.443  0.00  0.00     0.052 H 
BRANCH  39  42
ATOM     42  CG  ASP d   1      38.748  14.624  54.463  0.00  0.00     0.175 C 
ATOM     43  OD1 ASP d   1      37.861  13.809  54.784  0.00  0.00    -0.648 OA
ATOM     44  OD2 ASP d   1      39.303  14.630  53.347  0.00  0.00    -0.648 OA
ENDBRANCH  39  42
ENDBRANCH  19  39
ENDBRANCH  16  19
ENDBRANCH  13  15
BRANCH  13  45
ATOM     45  CB  GLU d   1      39.806  10.410  56.131  0.00  0.00    -0.029 C 
ATOM     46  H13 GLU d   1      40.471   9.566  55.894  0.00  0.00     0.037 H 
ATOM     47  H14 GLU d   1      39.176  10.636  55.258  0.00  0.00     0.037 H 
BRANCH  45  48
ATOM     48  CG  GLU d   1      38.897   9.984  57.265  0.00  0.00     0.018 C 
ATOM     49  H15 GLU d   1      38.391  10.875  57.666  0.00  0.00     0.049 H 
ATOM     50  H16 GLU d   1      39.509   9.523  58.054  0.00  0.00     0.049 H 
BRANCH  48  51
ATOM     51  CD  GLU d   1      37.842   8.983  56.816  0.00  0.00     0.172 C 
ATOM     52  OE1 GLU d   1      38.149   8.106  55.975  0.00  0.00    -0.648 OA
ATOM     53  OE2 GLU d   1      36.699   9.074  57.310  0.00  0.00    -0.648 OA
ENDBRANCH  48  51
ENDBRANCH  45  48
ENDBRANCH  13  45
ENDBRANCH  10  13
ENDBRANCH   7   9
BRANCH   7  54
ATOM     54  CB  ASP d   1      44.831  10.098  54.525  0.00  0.00     0.043 C 
ATOM     55  H19 ASP d   1      45.488   9.941  53.657  0.00  0.00     0.052 H 
ATOM     56  H20 ASP d   1      44.593   9.128  54.985  0.00  0.00     0.052 H 
BRANCH  54  57
ATOM     57  CG  ASP d   1      45.565  10.948  55.540  0.00  0.00     0.175 C 
ATOM     58  OD1 ASP d   1      45.907  12.101  55.204  0.00  0.00    -0.648 OA
ATOM     59  OD2 ASP d   1      45.804  10.465  56.668  0.00  0.00    -0.648 OA
ENDBRANCH  54  57
ENDBRANCH   7  54
ENDBRANCH   4   7
ENDBRANCH   1   3
BRANCH   1  60
ATOM     60  C   LEU d   1      43.119   7.918  50.727  0.00  0.00     0.241 C 
ATOM     61  O   LEU d   1      44.238   7.490  51.008  0.00  0.00    -0.271 OA
ATOM     62  N   LEU d   1      42.058   7.133  50.573  0.00  0.00    -0.346 N 
ATOM     63  H32 LEU d   1      41.173   7.546  50.358  0.00  0.00     0.163 HD
BRANCH  62  64
ATOM     64  CA  LEU d   1      42.151   5.684  50.710  0.00  0.00     0.089 C 
ATOM     65  H33 LEU d   1      42.533   5.435  51.711  0.00  0.00     0.087 H 
BRANCH  64  66
ATOM     66  C   LEU d   1      43.099   5.147  49.649  0.00  0.00     0.241 C 
ATOM     67  O   LEU d   1      43.172   5.685  48.545  0.00  0.00    -0.271 OA
ATOM     68  N   HIS d   1      43.823   4.086  49.980  0.00  0.00    -0.346 N 
ATOM     69  H43 HIS d   1      43.728   3.689  50.893  0.00  0.00     0.163 HD
BRANCH  68  70
ATOM     70  CA  HIS d   1      44.754   3.492  49.033  0.00  0.00     0.094 C 
ATOM     71  H44 HIS d   1      44.602   3.982  48.060  0.00  0.00     0.088 H 
BRANCH  70  72
ATOM     72  C   HIS d   1      44.505   1.999  48.838  0.00  0.00     0.241 C 
ATOM     73  O   HIS d   1      44.446   1.228  49.797  0.00  0.00    -0.271 OA
ATOM     74  N   ILE d   1      44.344   1.615  47.575  0.00  0.00    -0.344 N 
ATOM     75  H50 ILE d   1      44.410   2.307  46.856  0.00  0.00     0.163 HD
BRANCH  74  76
ATOM     76  CA  ILE d   1      44.076   0.235  47.186  0.00  0.00     0.099 C 
ATOM     77  H51 ILE d   1      43.503  -0.251  47.989  0.00  0.00     0.090 H 
BRANCH  76  78
ATOM     78  C   ILE d   1      45.369  -0.540  46.963  0.00  0.00     0.197 C 
ATOM     79  O   ILE d   1      45.660  -0.973  45.824  0.00  0.00    -0.646 OA
ATOM     80  OXT ILE d   1      46.106  -0.706  47.958  0.00  0.00    -0.646 OA
ENDBRANCH  76  78
BRANCH  76  81
ATOM     81  CB  ILE d   1      43.255   0.201  45.889  0.00  0.00    -0.029 C 
ATOM     82  H52 ILE d   1      43.895   0.518  45.052  0.00  0.00     0.043 H 
BRANCH  81  83
ATOM     83  CG1 ILE d   1      42.077   1.169  46.008  0.00  0.00    -0.063 C 
ATOM     84  H53 ILE d   1      42.428   2.085  46.506  0.00  0.00     0.033 H 
ATOM     85  H54 ILE d   1      41.297   0.694  46.622  0.00  0.00     0.033 H 
BRANCH  83  86
ATOM     86  CD1 ILE d   1      41.474   1.549  44.685  0.00  0.00    -0.076 C 
ATOM     87  H58 ILE d   1      40.637   2.244  44.849  0.00  0.00     0.027 H 
ATOM     88  H59 ILE d   1      41.106   0.645  44.177  0.00  0.00     0.027 H 
ATOM     89  H60 ILE d   1      42.237   2.036  44.060  0.00  0.00     0.027 H 
ENDBRANCH  83  86
ENDBRANCH  81  83
BRANCH  81  90
ATOM     90  CG2 ILE d   1      42.758  -1.209  45.617  0.00  0.00    -0.070 C 
ATOM     91  H55 ILE d   1      43.617  -1.891  45.535  0.00  0.00     0.028 H 
ATOM     92  H56 ILE d   1      42.188  -1.222  44.676  0.00  0.00     0.028 H 
ATOM     93  H57 ILE d   1      42.109  -1.535  46.443  0.00  0.00     0.028 H 
ENDBRANCH  81  90
ENDBRANCH  76  81
ENDBRANCH  74  76
ENDBRANCH  70  72
BRANCH  70  94
ATOM     94  CB  HIS d   1      46.195   3.764  49.479  0.00  0.00     0.002 C 
ATOM     95  H45 HIS d   1      46.866   3.099  48.915  0.00  0.00     0.046 H 
ATOM     96  H46 HIS d   1      46.276   3.541  50.553  0.00  0.00     0.046 H 
BRANCH  94  97
ATOM     97  CG  HIS d   1      46.630   5.181  49.254  0.00  0.00     0.030 A 
ATOM     98  ND1 HIS d   1      47.789   5.702  49.789  0.00  0.00    -0.353 N 
ATOM     99  CE1 HIS d   1      47.916   6.964  49.416  0.00  0.00     0.063 A 
ATOM    100  H47 HIS d   1      48.453   5.188  50.386  0.00  0.00     0.166 HD
ATOM    101  NE2 HIS d   1      46.881   7.282  48.658  0.00  0.00    -0.254 NA
ATOM    102  H49 HIS d   1      48.735   7.629  49.687  0.00  0.00     0.143 H 
ATOM    103  CD2 HIS d   1      46.062   6.185  48.541  0.00  0.00     0.025 A 
ATOM    104  H48 HIS d   1      45.130   6.132  47.980  0.00  0.00     0.117 H 
ENDBRANCH  94  97
ENDBRANCH  70  94
ENDBRANCH  68  70
ENDBRANCH  64  66
BRANCH  64 105
ATOM    105  CB  LEU d   1      40.780   5.042  50.515  0.00  0.00    -0.035 C 
ATOM    106  H34 LEU d   1      40.464   5.225  49.477  0.00  0.00     0.037 H 
ATOM    107  H35 LEU d   1      40.076   5.530  51.205  0.00  0.00     0.037 H 
BRANCH 105 108
ATOM    108  CG  LEU d   1      40.719   3.536  50.767  0.00  0.00    -0.059 C 
ATOM    109  H36 LEU d   1      41.726   3.108  50.652  0.00  0.00     0.038 H 
BRANCH 108 110
ATOM    110  CD1 LEU d   1      40.231   3.291  52.188  0.00  0.00    -0.073 C 
ATOM    111  H37 LEU d   1      40.184   2.209  52.378  0.00  0.00     0.028 H 
ATOM    112  H38 LEU d   1      39.230   3.729  52.312  0.00  0.00     0.028 H 
ATOM    113  H39 LEU d   1      40.927   3.759  52.900  0.00  0.00     0.028 H 
ENDBRANCH 108 110
BRANCH 108 114
ATOM    114  CD2 LEU d   1      39.786   2.878  49.768  0.00  0.00    -0.073 C 
ATOM    115  H40 LEU d   1      40.152   3.064  48.747  0.00  0.00     0.028 H 
ATOM    116  H41 LEU d   1      38.776   3.299  49.878  0.00  0.00     0.028 H 
ATOM    117  H42 LEU d   1      39.754   1.794  49.955  0.00  0.00     0.028 H 
ENDBRANCH 108 114
ENDBRANCH 105 108
ENDBRANCH  64 105
ENDBRANCH  62  64
ENDBRANCH   1  60
BRANCH   1 118
ATOM    118  CB  LEU d   1      43.566   9.880  49.259  0.00  0.00    -0.035 C 
ATOM    119  H23 LEU d   1      44.653   9.774  49.389  0.00  0.00     0.037 H 
ATOM    120  H24 LEU d   1      43.316  10.941  49.109  0.00  0.00     0.037 H 
BRANCH 118 121
ATOM    121  CG  LEU d   1      43.161   9.113  47.996  0.00  0.00    -0.059 C 
ATOM    122  H25 LEU d   1      43.454   8.059  48.109  0.00  0.00     0.038 H 
BRANCH 121 123
ATOM    123  CD1 LEU d   1      41.654   9.186  47.821  0.00  0.00    -0.073 C 
ATOM    124  H26 LEU d   1      41.363   8.635  46.914  0.00  0.00     0.028 H 
ATOM    125  H27 LEU d   1      41.346  10.238  47.726  0.00  0.00     0.028 H 
ATOM    126  H28 LEU d   1      41.161   8.738  48.696  0.00  0.00     0.028 H 
ENDBRANCH 121 123
BRANCH 121 127
ATOM    127  CD2 LEU d   1      43.873   9.689  46.785  0.00  0.00    -0.073 C 
ATOM    128  H29 LEU d   1      44.961   9.625  46.935  0.00  0.00     0.028 H 
ATOM    129  H30 LEU d   1      43.582  10.742  46.655  0.00  0.00     0.028 H 
ATOM    130  H31 LEU d   1      43.592   9.117  45.888  0.00  0.00     0.028 H 
ENDBRANCH 121 127
ENDBRANCH 118 121
ENDBRANCH   1 118
TORSDOF 40
