REMARK  23 active torsions:
REMARK  status: ('A' for Active; 'I' for Inactive)
REMARK    1  A    between atoms: N4B_18  and  C1A_1 
REMARK    2  A    between atoms: C2A_2  and  O2A_8 
REMARK    3  A    between atoms: C3A_3  and  O3A_9 
REMARK    4  A    between atoms: C4A_4  and  O4A_10 
REMARK    5  A    between atoms: C5A_5  and  C6A_6 
REMARK    6  A    between atoms: C6A_6  and  O6A_11 
REMARK    7  A    between atoms: O4C_30  and  C1B_12 
REMARK    8  A    between atoms: C2B_13  and  O2B_19 
REMARK    9  A    between atoms: C3B_14  and  O3B_20 
REMARK   10  A    between atoms: C4B_15  and  N4B_18 
REMARK   11  A    between atoms: C5B_16  and  C6B_17 
REMARK   12  A    between atoms: O4D_42  and  C1C_22 
REMARK   13  A    between atoms: C2C_23  and  O2C_28 
REMARK   14  A    between atoms: C3C_24  and  O3C_29 
REMARK   15  A    between atoms: C4C_25  and  O4C_30 
REMARK   16  A    between atoms: C5C_26  and  C6C_27 
REMARK   17  A    between atoms: C6C_27  and  O6C_32 
REMARK   18  A    between atoms: C1D_33  and  O1D_39 
REMARK   19  A    between atoms: C2D_34  and  O2D_40 
REMARK   20  A    between atoms: C3D_35  and  O3D_41 
REMARK   21  A    between atoms: O4D_42  and  C4D_36 
REMARK   22  A    between atoms: C5D_37  and  C6D_38 
REMARK   23  A    between atoms: C6D_38  and  O6D_44 
ROOT
ATOM      1  C1B ACR d   1      37.307  49.595  29.466  0.00  0.00     0.159 C 
ATOM      2  C2B ACR d   1      38.444  49.787  30.494  0.00  0.00     0.110 C 
ATOM      3  C3B ACR d   1      39.284  48.481  30.637  0.00  0.00     0.094 C 
ATOM      4  C4B ACR d   1      38.342  47.343  31.098  0.00  0.00     0.154 C 
ATOM      5  C5B ACR d   1      37.210  47.156  29.978  0.00  0.00     0.068 C 
ATOM      6  O5B ACR d   1      36.463  48.445  29.812  0.00  0.00    -0.351 OA
ATOM      7  H12 ACR d   1      36.697  50.510  29.447  0.00  0.00     0.133 H 
ATOM      8  H13 ACR d   1      38.002  50.020  31.474  0.00  0.00     0.094 H 
ATOM      9  H14 ACR d   1      39.733  48.215  29.669  0.00  0.00     0.090 H 
ATOM     10  H15 ACR d   1      37.873  47.618  32.054  0.00  0.00     0.092 H 
ATOM     11  H16 ACR d   1      37.703  46.892  29.031  0.00  0.00     0.086 H 
ENDROOT
BRANCH   1  12
ATOM     12  O4C ACR d   1      37.804  49.328  28.165  0.00  0.00    -0.348 OA
BRANCH  12  13
ATOM     13  C4C ACR d   1      36.953  49.252  26.965  0.00  0.00     0.096 C 
ATOM     14  C3C ACR d   1      36.123  50.571  26.687  0.00  0.00     0.092 C 
ATOM     15  C2C ACR d   1      35.310  50.371  25.365  0.00  0.00     0.110 C 
ATOM     16  H26 ACR d   1      36.801  51.432  26.598  0.00  0.00     0.091 H 
ATOM     17  C1C ACR d   1      36.348  50.149  24.213  0.00  0.00     0.159 C 
ATOM     18  H25 ACR d   1      34.653  49.494  25.460  0.00  0.00     0.094 H 
ATOM     19  O5C ACR d   1      37.146  48.975  24.534  0.00  0.00    -0.348 OA
ATOM     20  H24 ACR d   1      35.827  49.998  23.256  0.00  0.00     0.133 H 
ATOM     21  C5C ACR d   1      37.908  49.057  25.805  0.00  0.00     0.089 C 
ATOM     22  H28 ACR d   1      38.605  49.907  25.761  0.00  0.00     0.090 H 
ATOM     23  H27 ACR d   1      36.262  48.400  27.054  0.00  0.00     0.091 H 
BRANCH  14  24
ATOM     24  O3C ACR d   1      35.201  50.786  27.719  0.00  0.00    -0.390 OA
ATOM     25  H32 ACR d   1      34.606  50.047  27.769  0.00  0.00     0.210 HD
ENDBRANCH  14  24
BRANCH  15  26
ATOM     26  O2C ACR d   1      34.530  51.516  25.066  0.00  0.00    -0.388 OA
ATOM     27  H31 ACR d   1      35.101  52.268  24.961  0.00  0.00     0.210 HD
ENDBRANCH  15  26
BRANCH  17  28
ATOM     28  O4D ACR d   1      37.197  51.312  24.130  0.00  0.00    -0.348 OA
BRANCH  28  29
ATOM     29  C4D ACR d   1      37.497  51.941  22.828  0.00  0.00     0.096 C 
ATOM     30  C3D ACR d   1      36.964  53.395  22.773  0.00  0.00     0.092 C 
ATOM     31  C2D ACR d   1      37.307  54.013  21.388  0.00  0.00     0.110 C 
ATOM     32  H36 ACR d   1      37.429  53.990  23.573  0.00  0.00     0.091 H 
ATOM     33  C1D ACR d   1      38.855  54.015  21.198  0.00  0.00     0.156 C 
ATOM     34  H35 ACR d   1      36.842  53.403  20.600  0.00  0.00     0.094 H 
ATOM     35  O5D ACR d   1      39.381  52.624  21.337  0.00  0.00    -0.349 OA
ATOM     36  H34 ACR d   1      39.088  54.386  20.189  0.00  0.00     0.133 H 
ATOM     37  C5D ACR d   1      39.041  51.972  22.644  0.00  0.00     0.089 C 
ATOM     38  H38 ACR d   1      39.482  52.557  23.464  0.00  0.00     0.090 H 
ATOM     39  H37 ACR d   1      37.035  51.352  22.022  0.00  0.00     0.091 H 
BRANCH  30  40
ATOM     40  O3D ACR d   1      35.551  53.392  22.937  0.00  0.00    -0.390 OA
ATOM     41  H43 ACR d   1      35.332  53.006  23.777  0.00  0.00     0.210 HD
ENDBRANCH  30  40
BRANCH  31  42
ATOM     42  O2D ACR d   1      36.828  55.355  21.282  0.00  0.00    -0.388 OA
ATOM     43  H42 ACR d   1      37.230  55.888  21.958  0.00  0.00     0.210 HD
ENDBRANCH  31  42
BRANCH  33  44
ATOM     44  O1D ACR d   1      39.471  54.861  22.147  0.00  0.00    -0.369 OA
ATOM     45  H41 ACR d   1      39.131  55.743  22.051  0.00  0.00     0.212 HD
ENDBRANCH  33  44
BRANCH  37  46
ATOM     46  C6D ACR d   1      39.642  50.543  22.670  0.00  0.00     0.043 C 
ATOM     47  H39 ACR d   1      39.582  50.152  23.696  0.00  0.00     0.078 H 
ATOM     48  H40 ACR d   1      40.696  50.596  22.359  0.00  0.00     0.078 H 
BRANCH  46  49
ATOM     49  O6D ACR d   1      38.951  49.652  21.798  0.00  0.00    -0.398 OA
ATOM     50  H44 ACR d   1      39.350  48.791  21.845  0.00  0.00     0.209 HD
ENDBRANCH  46  49
ENDBRANCH  37  46
ENDBRANCH  28  29
ENDBRANCH  17  28
BRANCH  21  51
ATOM     51  C6C ACR d   1      38.702  47.749  25.994  0.00  0.00     0.043 C 
ATOM     52  H29 ACR d   1      38.088  46.899  25.661  0.00  0.00     0.078 H 
ATOM     53  H30 ACR d   1      38.952  47.626  27.058  0.00  0.00     0.078 H 
BRANCH  51  54
ATOM     54  O6C ACR d   1      39.884  47.789  25.242  0.00  0.00    -0.398 OA
ATOM     55  H33 ACR d   1      40.416  48.521  25.530  0.00  0.00     0.209 HD
ENDBRANCH  51  54
ENDBRANCH  21  51
ENDBRANCH  12  13
ENDBRANCH   1  12
BRANCH   2  56
ATOM     56  O2B ACR d   1      39.247  50.895  30.082  0.00  0.00    -0.388 OA
ATOM     57  H22 ACR d   1      39.928  51.048  30.726  0.00  0.00     0.210 HD
ENDBRANCH   2  56
BRANCH   3  58
ATOM     58  O3B ACR d   1      40.323  48.714  31.597  0.00  0.00    -0.391 OA
ATOM     59  H23 ACR d   1      40.835  47.921  31.706  0.00  0.00     0.210 HD
ENDBRANCH   3  58
BRANCH   5  60
ATOM     60  C6B ACR d   1      36.193  46.083  30.307  0.00  0.00    -0.050 C 
ATOM     61  H17 ACR d   1      35.454  46.016  29.494  0.00  0.00     0.031 H 
ATOM     62  H18 ACR d   1      35.682  46.338  31.247  0.00  0.00     0.031 H 
ATOM     63  H19 ACR d   1      36.704  45.115  30.418  0.00  0.00     0.031 H 
ENDBRANCH   5  60
BRANCH   4  64
ATOM     64  N4B ACR d   1      39.110  46.070  31.279  0.00  0.00    -0.056 N 
ATOM     65  H20 ACR d   1      38.765  45.386  30.624  0.00  0.00     0.278 HD
ATOM     66  H21 ACR d   1      40.085  46.249  31.095  0.00  0.00     0.278 HD
BRANCH  64  67
ATOM     67  C1A ACR d   1      38.972  45.522  32.671  0.00  0.00     0.146 C 
ATOM     68  C2A ACR d   1      40.355  45.130  33.282  0.00  0.00     0.093 C 
ATOM     69  C3A ACR d   1      40.946  43.872  32.590  0.00  0.00     0.091 C 
ATOM     70  H2  ACR d   1      40.213  44.887  34.346  0.00  0.00     0.090 H 
ATOM     71  C4A ACR d   1      39.978  42.597  32.690  0.00  0.00     0.086 C 
ATOM     72  H3  ACR d   1      41.099  44.109  31.527  0.00  0.00     0.091 H 
ATOM     73  C5A ACR d   1      38.456  42.974  32.705  0.00  0.00    -0.027 C 
ATOM     74  H4  ACR d   1      40.192  42.068  33.630  0.00  0.00     0.094 H 
ATOM     75  C7A ACR d   1      38.016  44.309  32.683  0.00  0.00    -0.064 C 
ATOM     76  H7  ACR d   1      36.944  44.498  32.674  0.00  0.00     0.080 H 
ATOM     77  H1  ACR d   1      38.535  46.310  33.302  0.00  0.00     0.095 H 
BRANCH  68  78
ATOM     78  O2A ACR d   1      41.195  46.259  33.194  0.00  0.00    -0.390 OA
ATOM     79  H8  ACR d   1      41.339  46.475  32.280  0.00  0.00     0.210 HD
ENDBRANCH  68  78
BRANCH  69  80
ATOM     80  O3A ACR d   1      42.185  43.535  33.163  0.00  0.00    -0.390 OA
ATOM     81  H9  ACR d   1      42.770  44.282  33.111  0.00  0.00     0.210 HD
ENDBRANCH  69  80
BRANCH  71  82
ATOM     82  O4A ACR d   1      40.327  41.755  31.608  0.00  0.00    -0.388 OA
ATOM     83  H10 ACR d   1      39.829  40.948  31.663  0.00  0.00     0.210 HD
ENDBRANCH  71  82
BRANCH  73  84
ATOM     84  C6A ACR d   1      37.425  41.850  32.754  0.00  0.00     0.039 C 
ATOM     85  H5  ACR d   1      37.811  40.974  32.212  0.00  0.00     0.081 H 
ATOM     86  H6  ACR d   1      36.490  42.189  32.285  0.00  0.00     0.081 H 
BRANCH  84  87
ATOM     87  O6A ACR d   1      37.173  41.494  34.124  0.00  0.00    -0.397 OA
ATOM     88  H11 ACR d   1      37.982  41.202  34.528  0.00  0.00     0.209 HD
ENDBRANCH  84  87
ENDBRANCH  73  84
ENDBRANCH  64  67
ENDBRANCH   4  64
TORSDOF 23
