REMARK  16 active torsions:
REMARK  status: ('A' for Active; 'I' for Inactive)
REMARK    1  A    between atoms: C1_1  and  C2_4 
REMARK    2  A    between atoms: C2_4  and  C3_5 
REMARK    3  A    between atoms: C3_5  and  C4_6 
REMARK    4  A    between atoms: C4_6  and  C5_7 
REMARK    5  A    between atoms: C5_7  and  C6_8 
REMARK    6  A    between atoms: C6_8  and  C7_9 
REMARK    7  A    between atoms: C7_9  and  C8_10 
REMARK    8  A    between atoms: C8_10  and  C9_11 
REMARK    9  A    between atoms: C10_12  and  C11_13 
REMARK   10  A    between atoms: C11_13  and  C12_14 
REMARK   11  A    between atoms: C12_14  and  C13_15 
REMARK   12  A    between atoms: C13_15  and  C14_16 
REMARK   13  A    between atoms: C14_16  and  C15_17 
REMARK   14  A    between atoms: C15_17  and  C16_18 
REMARK   15  A    between atoms: C16_18  and  C17_19 
REMARK   16  A    between atoms: C17_19  and  C18_20 
ROOT
ATOM      1  C9  OLA d   1      27.508  35.518  36.811  0.00  0.00    -0.107 C 
ATOM      2  C10 OLA d   1      27.081  34.387  36.154  0.00  0.00    -0.107 C 
ATOM      3  H15 OLA d   1      28.287  36.120  36.344  0.00  0.00     0.076 H 
ATOM      4  H16 OLA d   1      26.612  34.510  35.179  0.00  0.00     0.076 H 
ENDROOT
BRANCH   2   5
ATOM      5  C11 OLA d   1      27.216  33.049  36.676  0.00  0.00    -0.050 C 
ATOM      6  H17 OLA d   1      26.304  32.768  37.223  0.00  0.00     0.038 H 
ATOM      7  H18 OLA d   1      28.080  32.998  37.354  0.00  0.00     0.038 H 
BRANCH   5   8
ATOM      8  C12 OLA d   1      27.425  32.108  35.504  0.00  0.00    -0.062 C 
ATOM      9  H19 OLA d   1      28.436  32.262  35.099  0.00  0.00     0.033 H 
ATOM     10  H20 OLA d   1      26.680  32.336  34.727  0.00  0.00     0.033 H 
BRANCH   8  11
ATOM     11  C13 OLA d   1      27.277  30.658  35.916  0.00  0.00    -0.065 C 
ATOM     12  H21 OLA d   1      26.313  30.522  36.428  0.00  0.00     0.033 H 
ATOM     13  H22 OLA d   1      28.096  30.389  36.599  0.00  0.00     0.033 H 
BRANCH  11  14
ATOM     14  C14 OLA d   1      27.327  29.759  34.694  0.00  0.00    -0.065 C 
ATOM     15  H23 OLA d   1      28.317  29.846  34.223  0.00  0.00     0.033 H 
ATOM     16  H24 OLA d   1      26.552  30.076  33.981  0.00  0.00     0.033 H 
BRANCH  14  17
ATOM     17  C15 OLA d   1      27.086  28.319  35.079  0.00  0.00    -0.065 C 
ATOM     18  H25 OLA d   1      26.065  28.218  35.476  0.00  0.00     0.033 H 
ATOM     19  H26 OLA d   1      27.811  28.026  35.853  0.00  0.00     0.033 H 
BRANCH  17  20
ATOM     20  C16 OLA d   1      27.245  27.406  33.877  0.00  0.00    -0.065 C 
ATOM     21  H27 OLA d   1      28.299  27.404  33.563  0.00  0.00     0.033 H 
ATOM     22  H28 OLA d   1      26.618  27.780  33.054  0.00  0.00     0.033 H 
BRANCH  20  23
ATOM     23  C17 OLA d   1      26.825  25.989  34.217  0.00  0.00    -0.069 C 
ATOM     24  H29 OLA d   1      26.552  25.449  33.298  0.00  0.00     0.032 H 
ATOM     25  H30 OLA d   1      25.964  26.008  34.901  0.00  0.00     0.032 H 
BRANCH  23  26
ATOM     26  C18 OLA d   1      28.014  25.299  34.894  0.00  0.00    -0.077 C 
ATOM     27  H31 OLA d   1      27.739  24.266  35.153  0.00  0.00     0.027 H 
ATOM     28  H32 OLA d   1      28.284  25.847  35.809  0.00  0.00     0.027 H 
ATOM     29  H33 OLA d   1      28.872  25.288  34.206  0.00  0.00     0.027 H 
ENDBRANCH  23  26
ENDBRANCH  20  23
ENDBRANCH  17  20
ENDBRANCH  14  17
ENDBRANCH  11  14
ENDBRANCH   8  11
ENDBRANCH   5   8
ENDBRANCH   2   5
BRANCH   1  30
ATOM     30  C8  OLA d   1      26.985  35.951  38.079  0.00  0.00    -0.050 C 
ATOM     31  H13 OLA d   1      25.887  35.884  38.074  0.00  0.00     0.038 H 
ATOM     32  H14 OLA d   1      27.387  35.320  38.885  0.00  0.00     0.038 H 
BRANCH  30  33
ATOM     33  C7  OLA d   1      27.413  37.386  38.286  0.00  0.00    -0.062 C 
ATOM     34  H11 OLA d   1      28.338  37.569  37.719  0.00  0.00     0.033 H 
ATOM     35  H12 OLA d   1      26.619  38.053  37.918  0.00  0.00     0.033 H 
BRANCH  33  36
ATOM     36  C6  OLA d   1      27.665  37.680  39.746  0.00  0.00    -0.065 C 
ATOM     37  H9  OLA d   1      26.708  37.883  40.248  0.00  0.00     0.033 H 
ATOM     38  H10 OLA d   1      28.148  36.810  40.215  0.00  0.00     0.033 H 
BRANCH  36  39
ATOM     39  C5  OLA d   1      28.569  38.890  39.878  0.00  0.00    -0.065 C 
ATOM     40  H7  OLA d   1      29.366  38.824  39.123  0.00  0.00     0.033 H 
ATOM     41  H8  OLA d   1      27.975  39.799  39.705  0.00  0.00     0.033 H 
BRANCH  39  42
ATOM     42  C4  OLA d   1      29.201  38.970  41.254  0.00  0.00    -0.065 C 
ATOM     43  H5  OLA d   1      29.851  38.095  41.400  0.00  0.00     0.033 H 
ATOM     44  H6  OLA d   1      29.803  39.889  41.318  0.00  0.00     0.033 H 
BRANCH  42  45
ATOM     45  C3  OLA d   1      28.148  38.992  42.350  0.00  0.00    -0.056 C 
ATOM     46  H3  OLA d   1      27.453  39.822  42.157  0.00  0.00     0.033 H 
ATOM     47  H4  OLA d   1      27.597  38.040  42.331  0.00  0.00     0.033 H 
BRANCH  45  48
ATOM     48  C2  OLA d   1      28.763  39.177  43.732  0.00  0.00     0.016 C 
ATOM     49  H1  OLA d   1      28.166  39.921  44.279  0.00  0.00     0.049 H 
ATOM     50  H2  OLA d   1      28.721  38.213  44.261  0.00  0.00     0.049 H 
BRANCH  48  51
ATOM     51  C1  OLA d   1      30.220  39.651  43.710  0.00  0.00     0.172 C 
ATOM     52  O1  OLA d   1      30.506  40.746  43.256  0.00  0.00    -0.648 OA
ATOM     53  O2  OLA d   1      31.096  38.936  44.164  0.00  0.00    -0.648 OA
ENDBRANCH  48  51
ENDBRANCH  45  48
ENDBRANCH  42  45
ENDBRANCH  39  42
ENDBRANCH  36  39
ENDBRANCH  33  36
ENDBRANCH  30  33
ENDBRANCH   1  30
TORSDOF 16
