REMARK  14 active torsions:
REMARK  status: ('A' for Active; 'I' for Inactive)
REMARK    1  A    between atoms: C1_1  and  B2_2 
REMARK    2  A    between atoms: C1_1  and  C3_3 
REMARK    3  A    between atoms: N1_23  and  C1_1 
REMARK    4  A    between atoms: B2_2  and  O1_29 
REMARK    5  A    between atoms: B2_2  and  O2_30 
REMARK    6  A    between atoms: C3_3  and  C4_4 
REMARK    7  A    between atoms: C4_4  and  C5_5 
REMARK    8  A    between atoms: C5_5  and  N2_24 
REMARK       I    between atoms: N2_24  and  C6_6 
REMARK       I    between atoms: C6_6  and  N4_26 
REMARK    9  A    between atoms: C7_7  and  C8_8 
REMARK       I    between atoms: C8_8  and  N1_23 
REMARK   10  A    between atoms: C14_14  and  C12_12 
REMARK       I    between atoms: C12_12  and  N5_27 
REMARK   11  A    between atoms: C13_13  and  C14_14 
REMARK   12  A    between atoms: C21_21  and  C13_13 
REMARK   13  A    between atoms: C14_14  and  N6_28 
REMARK   14  A    between atoms: C15_15  and  C16_16 
REMARK       I    between atoms: N6_28  and  C15_15 
ROOT
ATOM      1  C7  DP7 d   1      18.149 -13.130  21.224  0.00  0.00     0.091 C 
ATOM      2  C9  DP7 d   1      19.361 -13.057  20.279  0.00  0.00    -0.036 C 
ATOM      3  C10 DP7 d   1      20.042 -14.422  20.284  0.00  0.00    -0.048 C 
ATOM      4  C11 DP7 d   1      19.481 -15.175  21.410  0.00  0.00    -0.001 C 
ATOM      5  C12 DP7 d   1      17.453 -14.893  22.866  0.00  0.00     0.243 C 
ATOM      6  N5  DP7 d   1      18.314 -14.444  21.917  0.00  0.00    -0.337 N 
ATOM      7  O4  DP7 d   1      16.482 -14.191  23.209  0.00  0.00    -0.271 OA
ATOM      8  H8  DP7 d   1      18.201 -12.321  21.967  0.00  0.00     0.087 H 
ATOM      9  H9  DP7 d   1      20.064 -12.287  20.631  0.00  0.00     0.036 H 
ATOM     10  H10 DP7 d   1      19.027 -12.810  19.261  0.00  0.00     0.036 H 
ATOM     11  H11 DP7 d   1      21.128 -14.302  20.413  0.00  0.00     0.035 H 
ATOM     12  H12 DP7 d   1      19.841 -14.948  19.339  0.00  0.00     0.035 H 
ATOM     13  H13 DP7 d   1      20.234 -15.271  22.206  0.00  0.00     0.064 H 
ATOM     14  H14 DP7 d   1      19.175 -16.176  21.072  0.00  0.00     0.064 H 
ENDROOT
BRANCH   1  15
ATOM     15  C8  DP7 d   1      16.813 -12.965  20.430  0.00  0.00     0.240 C 
ATOM     16  N1  DP7 d   1      16.206 -11.767  20.380  0.00  0.00    -0.358 N 
ATOM     17  H26 DP7 d   1      16.612 -10.982  20.848  0.00  0.00     0.162 HD
ATOM     18  O3  DP7 d   1      16.348 -13.961  19.864  0.00  0.00    -0.271 OA
BRANCH  16  19
ATOM     19  C1  DP7 d   1      14.920 -11.605  19.624  0.00  0.00     0.046 C 
ATOM     20  H1  DP7 d   1      14.559 -12.601  19.327  0.00  0.00     0.064 H 
BRANCH  19  21
ATOM     21  B2  DP7 d   1      15.152 -10.778  18.321  0.00  0.00     0.515 B 
BRANCH  21  22
ATOM     22  O1  DP7 d   1      16.312 -11.019  17.508  0.00  0.00    -0.436 OA
ATOM     23  H33 DP7 d   1      16.442 -10.286  16.918  0.00  0.00     0.184 HD
ENDBRANCH  21  22
BRANCH  21  24
ATOM     24  O2  DP7 d   1      14.040 -10.647  17.329  0.00  0.00    -0.436 OA
ATOM     25  H34 DP7 d   1      14.224  -9.923  16.742  0.00  0.00     0.184 HD
ENDBRANCH  21  24
ENDBRANCH  19  21
BRANCH  19  26
ATOM     26  C3  DP7 d   1      13.868 -10.977  20.578  0.00  0.00    -0.047 C 
ATOM     27  H2  DP7 d   1      13.184 -10.368  19.970  0.00  0.00     0.035 H 
ATOM     28  H3  DP7 d   1      14.402 -10.329  21.288  0.00  0.00     0.035 H 
BRANCH  26  29
ATOM     29  C4  DP7 d   1      13.024 -11.960  21.387  0.00  0.00    -0.049 C 
ATOM     30  H4  DP7 d   1      13.654 -12.822  21.653  0.00  0.00     0.035 H 
ATOM     31  H5  DP7 d   1      12.186 -12.297  20.759  0.00  0.00     0.035 H 
BRANCH  29  32
ATOM     32  C5  DP7 d   1      12.460 -11.372  22.658  0.00  0.00     0.009 C 
ATOM     33  H6  DP7 d   1      11.843 -10.498  22.401  0.00  0.00     0.064 H 
ATOM     34  H7  DP7 d   1      13.294 -11.056  23.302  0.00  0.00     0.064 H 
BRANCH  32  35
ATOM     35  N2  DP7 d   1      11.632 -12.334  23.395  0.00  0.00    -0.227 N 
ATOM     36  C6  DP7 d   1      10.687 -12.055  24.408  0.00  0.00     0.665 C 
ATOM     37  N3  DP7 d   1       9.948 -12.974  24.834  0.00  0.00    -0.235 N 
ATOM     38  N4  DP7 d   1      10.554 -10.749  24.957  0.00  0.00    -0.235 N 
ATOM     39  H28 DP7 d   1       9.257 -12.779  25.572  0.00  0.00     0.174 HD
ATOM     40  H29 DP7 d   1      10.032 -13.924  24.446  0.00  0.00     0.174 HD
ATOM     41  H30 DP7 d   1      11.154  -9.984  24.617  0.00  0.00     0.174 HD
ATOM     42  H31 DP7 d   1       9.858 -10.569  25.694  0.00  0.00     0.174 HD
ATOM     43  H27 DP7 d   1      11.754 -13.326  23.145  0.00  0.00     0.177 HD
ENDBRANCH  32  35
ENDBRANCH  29  32
ENDBRANCH  26  29
ENDBRANCH  19  26
ENDBRANCH  16  19
ENDBRANCH   1  15
BRANCH   5  44
ATOM     44  C14 DP7 d   1      17.610 -16.278  23.595  0.00  0.00     0.093 C 
ATOM     45  H17 DP7 d   1      18.279 -16.931  23.015  0.00  0.00     0.088 H 
BRANCH  44  46
ATOM     46  C13 DP7 d   1      18.153 -16.147  25.063  0.00  0.00    -0.014 C 
ATOM     47  H15 DP7 d   1      18.140 -17.147  25.521  0.00  0.00     0.043 H 
ATOM     48  H16 DP7 d   1      17.477 -15.481  25.618  0.00  0.00     0.043 H 
BRANCH  46  49
ATOM     49  C21 DP7 d   1      19.589 -15.582  25.185  0.00  0.00    -0.056 A 
ATOM     50  C20 DP7 d   1      19.853 -14.467  25.980  0.00  0.00    -0.077 A 
ATOM     51  C19 DP7 d   1      21.159 -13.976  26.102  0.00  0.00    -0.082 A 
ATOM     52  H24 DP7 d   1      19.042 -13.977  26.507  0.00  0.00     0.084 H 
ATOM     53  C18 DP7 d   1      22.202 -14.566  25.420  0.00  0.00    -0.083 A 
ATOM     54  H23 DP7 d   1      21.352 -13.122  26.741  0.00  0.00     0.083 H 
ATOM     55  C17 DP7 d   1      21.952 -15.683  24.623  0.00  0.00    -0.082 A 
ATOM     56  H22 DP7 d   1      23.206 -14.166  25.502  0.00  0.00     0.083 H 
ATOM     57  C22 DP7 d   1      20.657 -16.208  24.498  0.00  0.00    -0.077 A 
ATOM     58  H21 DP7 d   1      22.772 -16.153  24.092  0.00  0.00     0.083 H 
ATOM     59  H25 DP7 d   1      20.476 -17.082  23.883  0.00  0.00     0.084 H 
ENDBRANCH  46  49
ENDBRANCH  44  46
BRANCH  44  60
ATOM     60  N6  DP7 d   1      16.240 -16.849  23.665  0.00  0.00    -0.348 N 
ATOM     61  C15 DP7 d   1      15.802 -17.859  22.886  0.00  0.00     0.214 C 
ATOM     62  O5  DP7 d   1      16.513 -18.438  22.050  0.00  0.00    -0.274 OA
ATOM     63  H32 DP7 d   1      15.603 -16.460  24.331  0.00  0.00     0.163 HD
BRANCH  61  64
ATOM     64  C16 DP7 d   1      14.344 -18.279  23.107  0.00  0.00    -0.003 C 
ATOM     65  H18 DP7 d   1      14.093 -19.105  22.425  0.00  0.00     0.040 H 
ATOM     66  H19 DP7 d   1      13.682 -17.424  22.907  0.00  0.00     0.040 H 
ATOM     67  H20 DP7 d   1      14.211 -18.610  24.148  0.00  0.00     0.040 H 
ENDBRANCH  61  64
ENDBRANCH  44  60
ENDBRANCH   5  44
TORSDOF 14
