REMARK  15 active torsions:
REMARK  status: ('A' for Active; 'I' for Inactive)
REMARK    1  A    between atoms: C_2  and  B1_1 
REMARK    2  A    between atoms: B1_1  and  O_27 
REMARK    3  A    between atoms: B1_1  and  O1_28 
REMARK    4  A    between atoms: C_2  and  C2_3 
REMARK    5  A    between atoms: N_23  and  C_2 
REMARK    6  A    between atoms: C2_3  and  C3_4 
REMARK    7  A    between atoms: C3_4  and  C4_5 
REMARK    8  A    between atoms: C4_5  and  C5_6 
REMARK    9  A    between atoms: C5_6  and  N1_24 
REMARK   10  A    between atoms: C6_7  and  C7_8 
REMARK       I    between atoms: C7_8  and  N_23 
REMARK   11  A    between atoms: C13_14  and  C11_12 
REMARK       I    between atoms: C11_12  and  N2_25 
REMARK   12  A    between atoms: C12_13  and  C13_14 
REMARK   13  A    between atoms: C20_21  and  C12_13 
REMARK   14  A    between atoms: C13_14  and  N3_26 
REMARK   15  A    between atoms: C14_15  and  C15_16 
REMARK       I    between atoms: N3_26  and  C14_15 
ROOT
ATOM      1  C6  DI2 d   1      17.851 -12.845  21.077  0.00  0.00     0.091 C 
ATOM      2  C8  DI2 d   1      19.161 -12.617  20.306  0.00  0.00    -0.036 C 
ATOM      3  C9  DI2 d   1      19.835 -13.971  20.148  0.00  0.00    -0.048 C 
ATOM      4  C10 DI2 d   1      19.241 -14.887  21.204  0.00  0.00    -0.001 C 
ATOM      5  C11 DI2 d   1      17.128 -14.732  22.549  0.00  0.00     0.243 C 
ATOM      6  N2  DI2 d   1      18.047 -14.213  21.697  0.00  0.00    -0.337 N 
ATOM      7  O3  DI2 d   1      16.137 -14.053  22.865  0.00  0.00    -0.271 OA
ATOM      8  H10 DI2 d   1      17.725 -12.082  21.860  0.00  0.00     0.087 H 
ATOM      9  H11 DI2 d   1      19.815 -11.934  20.869  0.00  0.00     0.036 H 
ATOM     10  H12 DI2 d   1      18.946 -12.186  19.317  0.00  0.00     0.036 H 
ATOM     11  H13 DI2 d   1      20.920 -13.873  20.300  0.00  0.00     0.035 H 
ATOM     12  H14 DI2 d   1      19.640 -14.376  19.144  0.00  0.00     0.035 H 
ATOM     13  H15 DI2 d   1      19.959 -15.041  22.023  0.00  0.00     0.064 H 
ATOM     14  H16 DI2 d   1      18.976 -15.858  20.762  0.00  0.00     0.064 H 
ENDROOT
BRANCH   1  15
ATOM     15  C7  DI2 d   1      16.610 -12.802  20.126  0.00  0.00     0.240 C 
ATOM     16  N   DI2 d   1      15.882 -11.661  20.120  0.00  0.00    -0.358 N 
ATOM     17  H28 DI2 d   1      16.136 -10.905  20.723  0.00  0.00     0.162 HD
ATOM     18  O2  DI2 d   1      16.397 -13.794  19.407  0.00  0.00    -0.271 OA
BRANCH  16  19
ATOM     19  C   DI2 d   1      14.683 -11.526  19.203  0.00  0.00     0.046 C 
ATOM     20  H1  DI2 d   1      14.423 -12.523  18.817  0.00  0.00     0.064 H 
BRANCH  19  21
ATOM     21  B1  DI2 d   1      14.990 -10.558  17.999  0.00  0.00     0.515 B 
BRANCH  21  22
ATOM     22  O   DI2 d   1      13.820 -10.488  17.157  0.00  0.00    -0.436 OA
ATOM     23  H33 DI2 d   1      13.943  -9.812  16.501  0.00  0.00     0.184 HD
ENDBRANCH  21  22
BRANCH  21  24
ATOM     24  O1  DI2 d   1      16.091 -10.868  17.168  0.00  0.00    -0.436 OA
ATOM     25  H34 DI2 d   1      16.879 -10.921  17.695  0.00  0.00     0.184 HD
ENDBRANCH  21  24
ENDBRANCH  19  21
BRANCH  19  26
ATOM     26  C2  DI2 d   1      13.478 -10.931  19.943  0.00  0.00    -0.049 C 
ATOM     27  H2  DI2 d   1      12.604 -11.083  19.293  0.00  0.00     0.035 H 
ATOM     28  H3  DI2 d   1      13.674  -9.854  20.049  0.00  0.00     0.035 H 
BRANCH  26  29
ATOM     29  C3  DI2 d   1      13.088 -11.440  21.324  0.00  0.00    -0.062 C 
ATOM     30  H4  DI2 d   1      12.850 -10.576  21.962  0.00  0.00     0.033 H 
ATOM     31  H5  DI2 d   1      13.941 -11.987  21.750  0.00  0.00     0.033 H 
BRANCH  29  32
ATOM     32  C4  DI2 d   1      11.877 -12.372  21.293  0.00  0.00    -0.043 C 
ATOM     33  H6  DI2 d   1      12.096 -13.220  20.628  0.00  0.00     0.035 H 
ATOM     34  H7  DI2 d   1      11.009 -11.818  20.906  0.00  0.00     0.035 H 
BRANCH  32  35
ATOM     35  C5  DI2 d   1      11.561 -12.879  22.616  0.00  0.00     0.080 C 
ATOM     36  H8  DI2 d   1      12.411 -12.571  23.243  0.00  0.00     0.075 H 
ATOM     37  H9  DI2 d   1      11.566 -13.973  22.504  0.00  0.00     0.075 H 
BRANCH  35  38
ATOM     38  N1  DI2 d   1      10.425 -12.606  23.397  0.00  0.00    -0.079 N 
ATOM     39  H29 DI2 d   1      10.490 -13.105  24.270  0.00  0.00     0.274 HD
ATOM     40  H30 DI2 d   1       9.598 -12.901  22.902  0.00  0.00     0.274 HD
ATOM     41  H31 DI2 d   1      10.373 -11.616  23.579  0.00  0.00     0.274 HD
ENDBRANCH  35  38
ENDBRANCH  32  35
ENDBRANCH  29  32
ENDBRANCH  26  29
ENDBRANCH  19  26
ENDBRANCH  16  19
ENDBRANCH   1  15
BRANCH   5  42
ATOM     42  C13 DI2 d   1      17.267 -16.140  23.201  0.00  0.00     0.093 C 
ATOM     43  H19 DI2 d   1      17.971 -16.731  22.596  0.00  0.00     0.088 H 
BRANCH  42  44
ATOM     44  C12 DI2 d   1      17.820 -16.093  24.689  0.00  0.00    -0.014 C 
ATOM     45  H17 DI2 d   1      17.888 -17.125  25.063  0.00  0.00     0.043 H 
ATOM     46  H18 DI2 d   1      17.105 -15.527  25.304  0.00  0.00     0.043 H 
BRANCH  44  47
ATOM     47  C20 DI2 d   1      19.218 -15.430  24.835  0.00  0.00    -0.056 A 
ATOM     48  C19 DI2 d   1      19.362 -14.266  25.600  0.00  0.00    -0.077 A 
ATOM     49  C18 DI2 d   1      20.620 -13.681  25.741  0.00  0.00    -0.082 A 
ATOM     50  H26 DI2 d   1      18.498 -13.821  26.081  0.00  0.00     0.084 H 
ATOM     51  C17 DI2 d   1      21.735 -14.232  25.108  0.00  0.00    -0.083 A 
ATOM     52  H25 DI2 d   1      20.733 -12.790  26.348  0.00  0.00     0.083 H 
ATOM     53  C16 DI2 d   1      21.604 -15.385  24.351  0.00  0.00    -0.082 A 
ATOM     54  H24 DI2 d   1      22.704 -13.758  25.209  0.00  0.00     0.083 H 
ATOM     55  C21 DI2 d   1      20.352 -15.995  24.212  0.00  0.00    -0.077 A 
ATOM     56  H23 DI2 d   1      22.473 -15.815  23.866  0.00  0.00     0.083 H 
ATOM     57  H27 DI2 d   1      20.253 -16.901  23.626  0.00  0.00     0.084 H 
ENDBRANCH  44  47
ENDBRANCH  42  44
BRANCH  42  58
ATOM     58  N3  DI2 d   1      15.936 -16.803  23.177  0.00  0.00    -0.348 N 
ATOM     59  C14 DI2 d   1      15.750 -18.007  22.601  0.00  0.00     0.214 C 
ATOM     60  O4  DI2 d   1      16.656 -18.651  22.038  0.00  0.00    -0.274 OA
ATOM     61  H32 DI2 d   1      15.156 -16.342  23.601  0.00  0.00     0.163 HD
BRANCH  59  62
ATOM     62  C15 DI2 d   1      14.332 -18.578  22.625  0.00  0.00    -0.003 C 
ATOM     63  H20 DI2 d   1      14.323 -19.558  22.125  0.00  0.00     0.040 H 
ATOM     64  H21 DI2 d   1      13.651 -17.892  22.100  0.00  0.00     0.040 H 
ATOM     65  H22 DI2 d   1      14.002 -18.696  23.668  0.00  0.00     0.040 H 
ENDBRANCH  59  62
ENDBRANCH  42  58
ENDBRANCH   5  42
TORSDOF 15
