REMARK  16 active torsions:
REMARK  status: ('A' for Active; 'I' for Inactive)
REMARK    1  A    between atoms: C_2  and  B1_1 
REMARK    2  A    between atoms: B1_1  and  O_29 
REMARK    3  A    between atoms: B1_1  and  O1_30 
REMARK    4  A    between atoms: C_2  and  C2_3 
REMARK    5  A    between atoms: N_24  and  C_2 
REMARK    6  A    between atoms: C2_3  and  C3_4 
REMARK    7  A    between atoms: C3_4  and  C4_5 
REMARK    8  A    between atoms: C4_5  and  C5_6 
REMARK    9  A    between atoms: C5_6  and  C6_7 
REMARK   10  A    between atoms: C6_7  and  N2_26 
REMARK   11  A    between atoms: C7_8  and  C8_9 
REMARK       I    between atoms: C8_9  and  N_24 
REMARK   12  A    between atoms: C14_15  and  C12_13 
REMARK       I    between atoms: C12_13  and  N3_27 
REMARK   13  A    between atoms: C13_14  and  C14_15 
REMARK   14  A    between atoms: C21_22  and  C13_14 
REMARK   15  A    between atoms: C14_15  and  N4_28 
REMARK   16  A    between atoms: C15_16  and  C16_17 
REMARK       I    between atoms: N4_28  and  C15_16 
ROOT
ATOM      1  C7  DI3 d   1      18.369 -13.015  21.207  0.00  0.00     0.091 A 
ATOM      2  C9  DI3 d   1      19.574 -12.986  20.210  0.00  0.00    -0.036 A 
ATOM      3  C10 DI3 d   1      20.351 -14.275  20.342  0.00  0.00    -0.048 A 
ATOM      4  C11 DI3 d   1      19.645 -15.148  21.359  0.00  0.00    -0.001 A 
ATOM      5  C12 DI3 d   1      17.688 -14.761  22.869  0.00  0.00     0.243 C 
ATOM      6  N3  DI3 d   1      18.544 -14.347  21.889  0.00  0.00    -0.337 N 
ATOM      7  O3  DI3 d   1      16.752 -14.042  23.241  0.00  0.00    -0.271 OA
ATOM      8  H10 DI3 d   1      18.399 -12.189  21.933  0.00  0.00     0.087 H 
ATOM      9  H11 DI3 d   1      20.229 -12.134  20.447  0.00  0.00     0.036 H 
ATOM     10  H12 DI3 d   1      19.199 -12.885  19.181  0.00  0.00     0.036 H 
ATOM     11  H13 DI3 d   1      21.375 -14.060  20.682  0.00  0.00     0.035 H 
ATOM     12  H14 DI3 d   1      20.388 -14.790  19.370  0.00  0.00     0.035 H 
ATOM     13  H15 DI3 d   1      20.337 -15.428  22.167  0.00  0.00     0.064 H 
ATOM     14  H16 DI3 d   1      19.257 -16.058  20.877  0.00  0.00     0.064 H 
ENDROOT
BRANCH   1  15
ATOM     15  C8  DI3 d   1      17.060 -12.931  20.329  0.00  0.00     0.240 C 
ATOM     16  N   DI3 d   1      16.218 -11.874  20.452  0.00  0.00    -0.358 N 
ATOM     17  H28 DI3 d   1      16.392 -11.159  21.129  0.00  0.00     0.162 HD
ATOM     18  O2  DI3 d   1      16.875 -13.874  19.537  0.00  0.00    -0.271 OA
BRANCH  16  19
ATOM     19  C   DI3 d   1      15.020 -11.802  19.550  0.00  0.00     0.046 C 
ATOM     20  H1  DI3 d   1      14.992 -12.781  19.049  0.00  0.00     0.064 H 
BRANCH  19  21
ATOM     21  B1  DI3 d   1      15.227 -10.739  18.420  0.00  0.00     0.515 B 
BRANCH  21  22
ATOM     22  O   DI3 d   1      13.981 -10.621  17.672  0.00  0.00    -0.436 OA
ATOM     23  H34 DI3 d   1      14.059  -9.919  17.037  0.00  0.00     0.184 HD
ENDBRANCH  21  22
BRANCH  21  24
ATOM     24  O1  DI3 d   1      16.296 -11.027  17.522  0.00  0.00    -0.436 OA
ATOM     25  H35 DI3 d   1      16.373 -10.324  16.887  0.00  0.00     0.184 HD
ENDBRANCH  21  24
ENDBRANCH  19  21
BRANCH  19  26
ATOM     26  C2  DI3 d   1      13.651 -11.649  20.169  0.00  0.00    -0.049 C 
ATOM     27  H2  DI3 d   1      13.332 -12.660  20.463  0.00  0.00     0.035 H 
ATOM     28  H3  DI3 d   1      12.993 -11.275  19.371  0.00  0.00     0.035 H 
BRANCH  26  29
ATOM     29  C3  DI3 d   1      13.403 -10.760  21.373  0.00  0.00    -0.063 C 
ATOM     30  H4  DI3 d   1      13.468  -9.707  21.062  0.00  0.00     0.033 H 
ATOM     31  H5  DI3 d   1      14.169 -10.965  22.135  0.00  0.00     0.033 H 
BRANCH  29  32
ATOM     32  C4  DI3 d   1      11.989 -11.026  21.985  0.00  0.00    -0.059 C 
ATOM     33  H6  DI3 d   1      11.322 -11.423  21.206  0.00  0.00     0.033 H 
ATOM     34  H7  DI3 d   1      11.577 -10.084  22.376  0.00  0.00     0.033 H 
BRANCH  32  35
ATOM     35  C5  DI3 d   1      12.106 -12.062  23.144  0.00  0.00    -0.013 C 
ATOM     36  H8  DI3 d   1      13.099 -11.954  23.605  0.00  0.00     0.044 H 
ATOM     37  H9  DI3 d   1      12.007 -13.071  22.717  0.00  0.00     0.044 H 
BRANCH  35  38
ATOM     38  C6  DI3 d   1      11.057 -11.897  24.226  0.00  0.00     0.068 C 
ATOM     39  N1  DI3 d   1      10.356 -12.883  24.578  0.00  0.00    -0.389 N 
ATOM     40  H29 DI3 d   1       9.643 -12.772  25.313  0.00  0.00     0.157 HD
ATOM     41  H30 DI3 d   1      10.496 -13.800  24.131  0.00  0.00     0.157 HD
BRANCH  38  42
ATOM     42  N2  DI3 d   1      10.839 -10.652  24.859  0.00  0.00    -0.389 N 
ATOM     43  H31 DI3 d   1      10.120 -10.566  25.591  0.00  0.00     0.157 HD
ATOM     44  H32 DI3 d   1      11.399  -9.831  24.588  0.00  0.00     0.157 HD
ENDBRANCH  38  42
ENDBRANCH  35  38
ENDBRANCH  32  35
ENDBRANCH  29  32
ENDBRANCH  26  29
ENDBRANCH  19  26
ENDBRANCH  16  19
ENDBRANCH   1  15
BRANCH   5  45
ATOM     45  C14 DI3 d   1      17.797 -16.176  23.546  0.00  0.00     0.093 C 
ATOM     46  H19 DI3 d   1      18.424 -16.828  22.920  0.00  0.00     0.088 H 
BRANCH  45  47
ATOM     47  C13 DI3 d   1      18.408 -16.150  24.975  0.00  0.00    -0.014 C 
ATOM     48  H17 DI3 d   1      18.530 -17.196  25.294  0.00  0.00     0.043 H 
ATOM     49  H18 DI3 d   1      17.679 -15.650  25.630  0.00  0.00     0.043 H 
BRANCH  47  50
ATOM     50  C21 DI3 d   1      19.767 -15.448  25.189  0.00  0.00    -0.056 A 
ATOM     51  C20 DI3 d   1      19.864 -14.296  25.968  0.00  0.00    -0.077 A 
ATOM     52  C19 DI3 d   1      21.100 -13.684  26.189  0.00  0.00    -0.082 A 
ATOM     53  H26 DI3 d   1      18.969 -13.870  26.408  0.00  0.00     0.084 H 
ATOM     54  C18 DI3 d   1      22.257 -14.210  25.602  0.00  0.00    -0.083 A 
ATOM     55  H25 DI3 d   1      21.163 -12.802  26.815  0.00  0.00     0.083 H 
ATOM     56  C17 DI3 d   1      22.177 -15.342  24.813  0.00  0.00    -0.082 A 
ATOM     57  H24 DI3 d   1      23.215 -13.730  25.766  0.00  0.00     0.083 H 
ATOM     58  C22 DI3 d   1      20.944 -15.966  24.605  0.00  0.00    -0.077 A 
ATOM     59  H23 DI3 d   1      23.072 -15.746  24.355  0.00  0.00     0.083 H 
ATOM     60  H27 DI3 d   1      20.890 -16.857  23.989  0.00  0.00     0.084 H 
ENDBRANCH  47  50
ENDBRANCH  45  47
BRANCH  45  61
ATOM     61  N4  DI3 d   1      16.399 -16.699  23.579  0.00  0.00    -0.348 N 
ATOM     62  C15 DI3 d   1      16.008 -17.805  22.920  0.00  0.00     0.214 C 
ATOM     63  O4  DI3 d   1      16.798 -18.523  22.277  0.00  0.00    -0.274 OA
ATOM     64  H33 DI3 d   1      15.719 -16.202  24.118  0.00  0.00     0.163 HD
BRANCH  62  65
ATOM     65  C16 DI3 d   1      14.528 -18.184  23.017  0.00  0.00    -0.003 C 
ATOM     66  H20 DI3 d   1      14.345 -19.101  22.437  0.00  0.00     0.040 H 
ATOM     67  H21 DI3 d   1      13.913 -17.366  22.614  0.00  0.00     0.040 H 
ATOM     68  H22 DI3 d   1      14.262 -18.358  24.070  0.00  0.00     0.040 H 
ENDBRANCH  62  65
ENDBRANCH  45  61
ENDBRANCH   5  45
TORSDOF 16
