REMARK  16 active torsions:
REMARK  status: ('A' for Active; 'I' for Inactive)
REMARK    1  A    between atoms: C_2  and  B1_1 
REMARK    2  A    between atoms: B1_1  and  O_28 
REMARK    3  A    between atoms: B1_1  and  O1_29 
REMARK    4  A    between atoms: C_2  and  C2_3 
REMARK    5  A    between atoms: N_24  and  C_2 
REMARK    6  A    between atoms: C2_3  and  C3_4 
REMARK    7  A    between atoms: C3_4  and  C4_5 
REMARK    8  A    between atoms: C4_5  and  C5_6 
REMARK    9  A    between atoms: C5_6  and  C6_7 
REMARK   10  A    between atoms: C6_7  and  N1_25 
REMARK   11  A    between atoms: C7_8  and  C8_9 
REMARK       I    between atoms: C8_9  and  N_24 
REMARK   12  A    between atoms: C14_15  and  C12_13 
REMARK       I    between atoms: C12_13  and  N2_26 
REMARK   13  A    between atoms: C13_14  and  C14_15 
REMARK   14  A    between atoms: C21_22  and  C13_14 
REMARK   15  A    between atoms: C14_15  and  N3_27 
REMARK   16  A    between atoms: C15_16  and  C16_17 
REMARK       I    between atoms: N3_27  and  C15_16 
ROOT
ATOM      1  C7  DI4 d   1      17.624 -12.806  21.361  0.00  0.00     0.091 C 
ATOM      2  C9  DI4 d   1      18.907 -12.745  20.495  0.00  0.00    -0.036 C 
ATOM      3  C10 DI4 d   1      19.397 -14.169  20.258  0.00  0.00    -0.048 C 
ATOM      4  C11 DI4 d   1      18.633 -15.063  21.211  0.00  0.00    -0.001 C 
ATOM      5  C12 DI4 d   1      16.901 -14.589  22.967  0.00  0.00     0.243 C 
ATOM      6  N2  DI4 d   1      17.688 -14.187  21.936  0.00  0.00    -0.337 N 
ATOM      7  O3  DI4 d   1      16.084 -13.815  23.464  0.00  0.00    -0.271 OA
ATOM      8  H12 DI4 d   1      17.666 -12.063  22.171  0.00  0.00     0.087 H 
ATOM      9  H13 DI4 d   1      19.682 -12.168  21.020  0.00  0.00     0.036 H 
ATOM     10  H14 DI4 d   1      18.682 -12.265  19.531  0.00  0.00     0.036 H 
ATOM     11  H15 DI4 d   1      20.476 -14.236  20.460  0.00  0.00     0.035 H 
ATOM     12  H16 DI4 d   1      19.199 -14.469  19.218  0.00  0.00     0.035 H 
ATOM     13  H17 DI4 d   1      19.324 -15.545  21.918  0.00  0.00     0.064 H 
ATOM     14  H18 DI4 d   1      18.084 -15.835  20.652  0.00  0.00     0.064 H 
ENDROOT
BRANCH   1  15
ATOM     15  C8  DI4 d   1      16.362 -12.512  20.497  0.00  0.00     0.240 C 
ATOM     16  N   DI4 d   1      15.660 -11.375  20.734  0.00  0.00    -0.358 N 
ATOM     17  H30 DI4 d   1      15.958 -10.754  21.459  0.00  0.00     0.162 HD
ATOM     18  O2  DI4 d   1      16.048 -13.328  19.611  0.00  0.00    -0.271 OA
BRANCH  16  19
ATOM     19  C   DI4 d   1      14.444 -11.037  19.924  0.00  0.00     0.046 C 
ATOM     20  H1  DI4 d   1      14.101 -11.982  19.479  0.00  0.00     0.064 H 
BRANCH  19  21
ATOM     21  B1  DI4 d   1      14.655 -10.045  18.755  0.00  0.00     0.515 B 
BRANCH  21  22
ATOM     22  O   DI4 d   1      13.434 -10.008  17.959  0.00  0.00    -0.436 OA
ATOM     23  H35 DI4 d   1      13.507  -9.327  17.301  0.00  0.00     0.184 HD
ENDBRANCH  21  22
BRANCH  21  24
ATOM     24  O1  DI4 d   1      15.724 -10.326  17.830  0.00  0.00    -0.436 OA
ATOM     25  H36 DI4 d   1      16.548 -10.361  18.301  0.00  0.00     0.184 HD
ENDBRANCH  21  24
ENDBRANCH  19  21
BRANCH  19  26
ATOM     26  C2  DI4 d   1      13.303 -10.497  20.820  0.00  0.00    -0.049 C 
ATOM     27  H2  DI4 d   1      12.804  -9.683  20.274  0.00  0.00     0.035 H 
ATOM     28  H3  DI4 d   1      13.758 -10.098  21.738  0.00  0.00     0.035 H 
BRANCH  26  29
ATOM     29  C3  DI4 d   1      12.235 -11.505  21.230  0.00  0.00    -0.064 C 
ATOM     30  H4  DI4 d   1      12.307 -12.371  20.556  0.00  0.00     0.033 H 
ATOM     31  H5  DI4 d   1      11.251 -11.027  21.110  0.00  0.00     0.033 H 
BRANCH  29  32
ATOM     32  C4  DI4 d   1      12.341 -12.008  22.652  0.00  0.00    -0.064 C 
ATOM     33  H6  DI4 d   1      13.220 -11.554  23.133  0.00  0.00     0.033 H 
ATOM     34  H7  DI4 d   1      12.453 -13.102  22.643  0.00  0.00     0.033 H 
BRANCH  32  35
ATOM     35  C5  DI4 d   1      11.136 -11.651  23.408  0.00  0.00    -0.043 C 
ATOM     36  H8  DI4 d   1      10.316 -11.662  22.675  0.00  0.00     0.035 H 
ATOM     37  H9  DI4 d   1      11.303 -10.621  23.756  0.00  0.00     0.035 H 
BRANCH  35  38
ATOM     38  C6  DI4 d   1      10.641 -12.357  24.540  0.00  0.00     0.080 C 
ATOM     39  H10 DI4 d   1      11.412 -13.092  24.813  0.00  0.00     0.075 H 
ATOM     40  H11 DI4 d   1       9.733 -12.883  24.209  0.00  0.00     0.075 H 
BRANCH  38  41
ATOM     41  N1  DI4 d   1      10.299 -11.670  25.730  0.00  0.00    -0.079 N 
ATOM     42  H31 DI4 d   1       9.970 -12.331  26.416  0.00  0.00     0.274 HD
ATOM     43  H32 DI4 d   1       9.573 -10.999  25.534  0.00  0.00     0.274 HD
ATOM     44  H33 DI4 d   1      11.111 -11.191  26.087  0.00  0.00     0.274 HD
ENDBRANCH  38  41
ENDBRANCH  35  38
ENDBRANCH  32  35
ENDBRANCH  29  32
ENDBRANCH  26  29
ENDBRANCH  19  26
ENDBRANCH  16  19
ENDBRANCH   1  15
BRANCH   5  45
ATOM     45  C14 DI4 d   1      17.000 -16.011  23.616  0.00  0.00     0.093 C 
ATOM     46  H21 DI4 d   1      17.774 -16.578  23.079  0.00  0.00     0.088 H 
BRANCH  45  47
ATOM     47  C13 DI4 d   1      17.412 -15.978  25.138  0.00  0.00    -0.014 C 
ATOM     48  H19 DI4 d   1      17.398 -17.009  25.521  0.00  0.00     0.043 H 
ATOM     49  H20 DI4 d   1      16.671 -15.374  25.683  0.00  0.00     0.043 H 
BRANCH  47  50
ATOM     50  C21 DI4 d   1      18.825 -15.376  25.406  0.00  0.00    -0.056 A 
ATOM     51  C20 DI4 d   1      18.977 -14.325  26.308  0.00  0.00    -0.077 A 
ATOM     52  C19 DI4 d   1      20.237 -13.775  26.552  0.00  0.00    -0.082 A 
ATOM     53  H28 DI4 d   1      18.110 -13.931  26.825  0.00  0.00     0.084 H 
ATOM     54  C18 DI4 d   1      21.354 -14.265  25.873  0.00  0.00    -0.083 A 
ATOM     55  H27 DI4 d   1      20.348 -12.969  27.268  0.00  0.00     0.083 H 
ATOM     56  C17 DI4 d   1      21.215 -15.301  24.964  0.00  0.00    -0.082 A 
ATOM     57  H26 DI4 d   1      22.331 -13.834  26.057  0.00  0.00     0.083 H 
ATOM     58  C22 DI4 d   1      19.955 -15.853  24.718  0.00  0.00    -0.077 A 
ATOM     59  H25 DI4 d   1      22.085 -15.684  24.443  0.00  0.00     0.083 H 
ATOM     60  H29 DI4 d   1      19.848 -16.652  23.994  0.00  0.00     0.084 H 
ENDBRANCH  47  50
ENDBRANCH  45  47
BRANCH  45  61
ATOM     61  N3  DI4 d   1      15.699 -16.691  23.419  0.00  0.00    -0.348 N 
ATOM     62  C15 DI4 d   1      15.633 -17.949  22.933  0.00  0.00     0.214 C 
ATOM     63  O4  DI4 d   1      16.651 -18.546  22.528  0.00  0.00    -0.274 OA
ATOM     64  H34 DI4 d   1      14.854 -16.209  23.650  0.00  0.00     0.163 HD
BRANCH  62  65
ATOM     65  C16 DI4 d   1      14.266 -18.608  22.893  0.00  0.00    -0.003 C 
ATOM     66  H22 DI4 d   1      14.360 -19.622  22.477  0.00  0.00     0.040 H 
ATOM     67  H23 DI4 d   1      13.591 -18.014  22.260  0.00  0.00     0.040 H 
ATOM     68  H24 DI4 d   1      13.857 -18.666  23.912  0.00  0.00     0.040 H 
ENDBRANCH  62  65
ENDBRANCH  45  61
ENDBRANCH   5  45
TORSDOF 16
