REMARK  14 active torsions:
REMARK  status: ('A' for Active; 'I' for Inactive)
REMARK    1  A    between atoms: C_2  and  B1_1 
REMARK    2  A    between atoms: B1_1  and  O_26 
REMARK    3  A    between atoms: B1_1  and  O1_27 
REMARK    4  A    between atoms: C_2  and  C2_3 
REMARK    5  A    between atoms: N_22  and  C_2 
REMARK    6  A    between atoms: C2_3  and  C3_4 
REMARK    7  A    between atoms: C3_4  and  C4_5 
REMARK    8  A    between atoms: C4_5  and  N1_23 
REMARK    9  A    between atoms: C5_7  and  C6_6 
REMARK       I    between atoms: C6_6  and  N_22 
REMARK   10  A    between atoms: C12_13  and  C10_11 
REMARK       I    between atoms: C10_11  and  N2_24 
REMARK   11  A    between atoms: C11_12  and  C12_13 
REMARK   12  A    between atoms: C19_20  and  C11_12 
REMARK   13  A    between atoms: C12_13  and  N3_25 
REMARK   14  A    between atoms: C13_14  and  C14_15 
REMARK       I    between atoms: N3_25  and  C13_14 
ROOT
ATOM      1  C5  DI5 d   1      17.916 -13.083  21.325  0.00  0.00     0.091 C 
ATOM      2  C7  DI5 d   1      19.065 -12.995  20.291  0.00  0.00    -0.036 C 
ATOM      3  C8  DI5 d   1      19.767 -14.358  20.256  0.00  0.00    -0.048 C 
ATOM      4  C9  DI5 d   1      19.366 -15.082  21.534  0.00  0.00    -0.001 C 
ATOM      5  C10 DI5 d   1      17.393 -14.808  23.050  0.00  0.00     0.243 C 
ATOM      6  N2  DI5 d   1      18.188 -14.369  22.047  0.00  0.00    -0.337 N 
ATOM      7  O3  DI5 d   1      16.423 -14.144  23.419  0.00  0.00    -0.271 OA
ATOM      8  H8  DI5 d   1      17.982 -12.250  22.040  0.00  0.00     0.087 H 
ATOM      9  H9  DI5 d   1      19.779 -12.214  20.590  0.00  0.00     0.036 H 
ATOM     10  H10 DI5 d   1      18.657 -12.758  19.297  0.00  0.00     0.036 H 
ATOM     11  H11 DI5 d   1      20.858 -14.223  20.222  0.00  0.00     0.035 H 
ATOM     12  H12 DI5 d   1      19.441 -14.931  19.376  0.00  0.00     0.035 H 
ATOM     13  H13 DI5 d   1      20.185 -15.046  22.268  0.00  0.00     0.064 H 
ATOM     14  H14 DI5 d   1      19.114 -16.131  21.317  0.00  0.00     0.064 H 
ENDROOT
BRANCH   1  15
ATOM     15  C6  DI5 d   1      16.533 -12.983  20.601  0.00  0.00     0.240 C 
ATOM     16  N   DI5 d   1      15.910 -11.792  20.619  0.00  0.00    -0.358 N 
ATOM     17  H26 DI5 d   1      16.337 -11.054  21.141  0.00  0.00     0.162 HD
ATOM     18  O2  DI5 d   1      16.063 -13.978  20.048  0.00  0.00    -0.271 OA
BRANCH  16  19
ATOM     19  C   DI5 d   1      14.620 -11.489  19.912  0.00  0.00     0.046 C 
ATOM     20  H1  DI5 d   1      14.180 -12.424  19.534  0.00  0.00     0.064 H 
BRANCH  19  21
ATOM     21  B1  DI5 d   1      14.888 -10.479  18.717  0.00  0.00     0.515 B 
BRANCH  21  22
ATOM     22  O   DI5 d   1      13.695 -10.282  17.926  0.00  0.00    -0.436 OA
ATOM     23  H31 DI5 d   1      13.861  -9.621  17.264  0.00  0.00     0.184 HD
ENDBRANCH  21  22
BRANCH  21  24
ATOM     24  O1  DI5 d   1      15.916 -10.909  17.812  0.00  0.00    -0.436 OA
ATOM     25  H32 DI5 d   1      16.054 -10.241  17.151  0.00  0.00     0.184 HD
ENDBRANCH  21  24
ENDBRANCH  19  21
BRANCH  19  26
ATOM     26  C2  DI5 d   1      13.629 -10.777  20.857  0.00  0.00    -0.047 C 
ATOM     27  H2  DI5 d   1      12.713 -10.592  20.277  0.00  0.00     0.035 H 
ATOM     28  H3  DI5 d   1      14.087  -9.816  21.135  0.00  0.00     0.035 H 
BRANCH  26  29
ATOM     29  C3  DI5 d   1      13.203 -11.453  22.152  0.00  0.00    -0.042 C 
ATOM     30  H4  DI5 d   1      12.694 -10.704  22.776  0.00  0.00     0.035 H 
ATOM     31  H5  DI5 d   1      14.109 -11.804  22.667  0.00  0.00     0.035 H 
BRANCH  29  32
ATOM     32  C4  DI5 d   1      12.263 -12.645  21.984  0.00  0.00     0.080 C 
ATOM     33  H6  DI5 d   1      12.835 -13.579  22.084  0.00  0.00     0.075 H 
ATOM     34  H7  DI5 d   1      11.795 -12.606  20.989  0.00  0.00     0.075 H 
BRANCH  32  35
ATOM     35  N1  DI5 d   1      11.206 -12.596  23.031  0.00  0.00    -0.079 N 
ATOM     36  H27 DI5 d   1      10.586 -13.383  22.920  0.00  0.00     0.274 HD
ATOM     37  H28 DI5 d   1      10.682 -11.740  22.940  0.00  0.00     0.274 HD
ATOM     38  H29 DI5 d   1      11.634 -12.632  23.943  0.00  0.00     0.274 HD
ENDBRANCH  32  35
ENDBRANCH  29  32
ENDBRANCH  26  29
ENDBRANCH  19  26
ENDBRANCH  16  19
ENDBRANCH   1  15
BRANCH   5  39
ATOM     39  C12 DI5 d   1      17.665 -16.164  23.828  0.00  0.00     0.093 C 
ATOM     40  H17 DI5 d   1      18.328 -16.822  23.247  0.00  0.00     0.088 H 
BRANCH  39  41
ATOM     41  C11 DI5 d   1      18.318 -15.848  25.235  0.00  0.00    -0.014 C 
ATOM     42  H15 DI5 d   1      18.248 -16.763  25.842  0.00  0.00     0.043 H 
ATOM     43  H16 DI5 d   1      17.721 -15.051  25.703  0.00  0.00     0.043 H 
BRANCH  41  44
ATOM     44  C19 DI5 d   1      19.802 -15.389  25.257  0.00  0.00    -0.056 A 
ATOM     45  C18 DI5 d   1      20.189 -14.323  26.087  0.00  0.00    -0.077 A 
ATOM     46  C17 DI5 d   1      21.522 -13.920  26.155  0.00  0.00    -0.082 A 
ATOM     47  H24 DI5 d   1      19.443 -13.808  26.681  0.00  0.00     0.084 H 
ATOM     48  C16 DI5 d   1      22.488 -14.572  25.372  0.00  0.00    -0.083 A 
ATOM     49  H23 DI5 d   1      21.811 -13.106  26.810  0.00  0.00     0.083 H 
ATOM     50  C15 DI5 d   1      22.124 -15.625  24.547  0.00  0.00    -0.082 A 
ATOM     51  H22 DI5 d   1      23.523 -14.251  25.413  0.00  0.00     0.083 H 
ATOM     52  C20 DI5 d   1      20.796 -16.043  24.494  0.00  0.00    -0.077 A 
ATOM     53  H21 DI5 d   1      22.873 -16.123  23.943  0.00  0.00     0.083 H 
ATOM     54  H25 DI5 d   1      20.522 -16.879  23.861  0.00  0.00     0.084 H 
ENDBRANCH  41  44
ENDBRANCH  39  41
BRANCH  39  55
ATOM     55  N3  DI5 d   1      16.327 -16.794  24.012  0.00  0.00    -0.348 N 
ATOM     56  C13 DI5 d   1      15.855 -17.769  23.201  0.00  0.00     0.214 C 
ATOM     57  O4  DI5 d   1      16.518 -18.258  22.273  0.00  0.00    -0.274 OA
ATOM     58  H30 DI5 d   1      15.752 -16.482  24.769  0.00  0.00     0.163 HD
BRANCH  56  59
ATOM     59  C14 DI5 d   1      14.449 -18.314  23.451  0.00  0.00    -0.003 C 
ATOM     60  H18 DI5 d   1      14.221 -19.094  22.710  0.00  0.00     0.040 H 
ATOM     61  H19 DI5 d   1      13.718 -17.497  23.360  0.00  0.00     0.040 H 
ATOM     62  H20 DI5 d   1      14.396 -18.743  24.463  0.00  0.00     0.040 H 
ENDBRANCH  56  59
ENDBRANCH  39  55
ENDBRANCH   5  39
TORSDOF 14
