REMARK  4 active torsions:
REMARK  status: ('A' for Active; 'I' for Inactive)
REMARK    1  A    between atoms: C13_13  and  C18_18 
REMARK    2  A    between atoms: C17_17  and  C20_20 
REMARK    3  A    between atoms: C17_17  and  O17_23 
REMARK    4  A    between atoms: C18_18  and  C19_19 
ROOT
ATOM      1  C20 NOG d   1      17.515  10.414  30.988  0.00  0.00    -0.078 C 
ATOM      2  C21 NOG d   1      17.236  10.776  29.914  0.00  0.00    -0.151 C 
ATOM      3  H27 NOG d   1      16.984  11.104  28.942  0.00  0.00     0.166 H 
ENDROOT
BRANCH   1   4
ATOM      4  C17 NOG d   1      17.836   9.919  32.372  0.00  0.00     0.128 C 
ATOM      5  C13 NOG d   1      19.366   9.641  32.595  0.00  0.00     0.006 C 
ATOM      6  C12 NOG d   1      20.119   8.935  31.435  0.00  0.00    -0.054 C 
ATOM      7  C14 NOG d   1      19.893  11.135  32.649  0.00  0.00    -0.039 C 
ATOM      8  C11 NOG d   1      21.663   9.010  31.626  0.00  0.00    -0.060 C 
ATOM      9  H15 NOG d   1      19.814   7.879  31.402  0.00  0.00     0.034 H 
ATOM     10  H16 NOG d   1      19.852   9.424  30.486  0.00  0.00     0.034 H 
ATOM     11  C9  NOG d   1      22.182  10.484  31.782  0.00  0.00    -0.043 C 
ATOM     12  H13 NOG d   1      21.934   8.444  32.529  0.00  0.00     0.033 H 
ATOM     13  H14 NOG d   1      22.149   8.556  30.749  0.00  0.00     0.033 H 
ATOM     14  C8  NOG d   1      21.416  11.239  32.899  0.00  0.00    -0.045 C 
ATOM     15  C10 NOG d   1      23.746  10.501  31.974  0.00  0.00    -0.028 C 
ATOM     16  H11 NOG d   1      21.968  11.009  30.839  0.00  0.00     0.041 H 
ATOM     17  C7  NOG d   1      21.917  12.702  32.962  0.00  0.00    -0.058 C 
ATOM     18  H10 NOG d   1      21.636  10.760  33.864  0.00  0.00     0.041 H 
ATOM     19  C6  NOG d   1      23.455  12.804  33.172  0.00  0.00    -0.044 C 
ATOM     20  H8  NOG d   1      21.657  13.203  32.018  0.00  0.00     0.034 H 
ATOM     21  H9  NOG d   1      21.414  13.210  33.798  0.00  0.00     0.034 H 
ATOM     22  C5  NOG d   1      24.244  11.966  32.181  0.00  0.00    -0.072 C 
ATOM     23  H6  NOG d   1      23.756  13.856  33.059  0.00  0.00     0.039 H 
ATOM     24  H7  NOG d   1      23.694  12.461  34.190  0.00  0.00     0.039 H 
ATOM     25  C4  NOG d   1      25.314  12.488  31.520  0.00  0.00    -0.036 C 
ATOM     26  C3  NOG d   1      26.139  11.720  30.561  0.00  0.00     0.149 C 
ATOM     27  H5  NOG d   1      25.577  13.528  31.707  0.00  0.00     0.089 H 
ATOM     28  C2  NOG d   1      25.807  10.268  30.326  0.00  0.00    -0.005 C 
ATOM     29  O3  NOG d   1      27.074  12.219  29.975  0.00  0.00    -0.293 OA
ATOM     30  C1  NOG d   1      24.387   9.850  30.697  0.00  0.00    -0.051 C 
ATOM     31  H3  NOG d   1      25.954  10.056  29.257  0.00  0.00     0.044 H 
ATOM     32  H4  NOG d   1      26.505   9.660  30.920  0.00  0.00     0.044 H 
ATOM     33  H1  NOG d   1      24.395   8.761  30.852  0.00  0.00     0.034 H 
ATOM     34  H2  NOG d   1      23.738  10.094  29.843  0.00  0.00     0.034 H 
ATOM     35  H12 NOG d   1      24.015   9.906  32.859  0.00  0.00     0.047 H 
ATOM     36  C15 NOG d   1      18.898  11.808  33.614  0.00  0.00    -0.057 C 
ATOM     37  H17 NOG d   1      19.738  11.592  31.661  0.00  0.00     0.042 H 
ATOM     38  C16 NOG d   1      17.564  11.028  33.414  0.00  0.00    -0.025 C 
ATOM     39  H18 NOG d   1      18.768  12.870  33.359  0.00  0.00     0.033 H 
ATOM     40  H19 NOG d   1      19.246  11.720  34.654  0.00  0.00     0.033 H 
ATOM     41  H20 NOG d   1      16.781  11.708  33.046  0.00  0.00     0.038 H 
ATOM     42  H21 NOG d   1      17.243  10.580  34.366  0.00  0.00     0.038 H 
BRANCH   5  43
ATOM     43  C18 NOG d   1      19.569   8.863  33.950  0.00  0.00    -0.057 C 
ATOM     44  H22 NOG d   1      18.771   9.192  34.632  0.00  0.00     0.033 H 
ATOM     45  H23 NOG d   1      20.545   9.170  34.353  0.00  0.00     0.033 H 
BRANCH  43  46
ATOM     46  C19 NOG d   1      19.549   7.334  33.945  0.00  0.00    -0.076 C 
ATOM     47  H24 NOG d   1      19.705   6.962  34.968  0.00  0.00     0.027 H 
ATOM     48  H25 NOG d   1      20.351   6.959  33.292  0.00  0.00     0.027 H 
ATOM     49  H26 NOG d   1      18.577   6.981  33.571  0.00  0.00     0.027 H 
ENDBRANCH  43  46
ENDBRANCH   5  43
BRANCH   4  50
ATOM     50  O17 NOG d   1      17.013   8.779  32.601  0.00  0.00    -0.377 OA
ATOM     51  H28 NOG d   1      16.099   9.032  32.541  0.00  0.00     0.211 HD
ENDBRANCH   4  50
ENDBRANCH   1   4
TORSDOF 4
