REMARK  5 active torsions:
REMARK  status: ('A' for Active; 'I' for Inactive)
REMARK    1  A    between atoms: C13_5  and  C18_10 
REMARK    2  A    between atoms: C17_9  and  O17_19 
REMARK    3  A    between atoms: C2_11  and  O2_21 
REMARK    4  A    between atoms: C3_12  and  O3_20 
REMARK    5  A    between atoms: O2_21  and  C19_22 
ROOT
ATOM      1  C1  ESM d   1      20.554   9.013  33.405  0.00  0.00    -0.041 A 
ATOM      2  C10 ESM d   1      20.921  10.367  33.441  0.00  0.00    -0.044 A 
ATOM      3  C11 ESM d   1      23.146   9.871  32.325  0.00  0.00    -0.057 C 
ATOM      4  C12 ESM d   1      24.587  10.325  32.146  0.00  0.00    -0.055 C 
ATOM      5  C13 ESM d   1      24.700  11.787  31.669  0.00  0.00    -0.014 C 
ATOM      6  C14 ESM d   1      23.939  12.661  32.661  0.00  0.00    -0.041 C 
ATOM      7  C15 ESM d   1      24.318  14.097  32.230  0.00  0.00    -0.058 C 
ATOM      8  C16 ESM d   1      25.749  13.928  31.697  0.00  0.00    -0.040 C 
ATOM      9  C17 ESM d   1      26.063  12.440  31.788  0.00  0.00     0.043 C 
ATOM     10  C2  ESM d   1      19.263   8.596  33.551  0.00  0.00     0.101 A 
ATOM     11  C3  ESM d   1      18.256   9.521  33.739  0.00  0.00     0.099 A 
ATOM     12  C4  ESM d   1      18.592  10.868  33.795  0.00  0.00    -0.042 A 
ATOM     13  C5  ESM d   1      19.894  11.304  33.654  0.00  0.00    -0.049 A 
ATOM     14  C6  ESM d   1      20.163  12.810  33.727  0.00  0.00    -0.040 C 
ATOM     15  C7  ESM d   1      21.649  13.186  33.701  0.00  0.00    -0.057 C 
ATOM     16  C8  ESM d   1      22.446  12.286  32.754  0.00  0.00    -0.042 C 
ATOM     17  C9  ESM d   1      22.365  10.799  33.261  0.00  0.00    -0.024 C 
ATOM     18  H1  ESM d   1      21.327   8.268  33.255  0.00  0.00     0.088 H 
ATOM     19  H2  ESM d   1      23.143   8.856  32.748  0.00  0.00     0.034 H 
ATOM     20  H3  ESM d   1      22.652   9.860  31.342  0.00  0.00     0.034 H 
ATOM     21  H4  ESM d   1      25.070   9.675  31.402  0.00  0.00     0.034 H 
ATOM     22  H5  ESM d   1      25.108  10.229  33.110  0.00  0.00     0.034 H 
ATOM     23  H6  ESM d   1      24.352  12.497  33.667  0.00  0.00     0.042 H 
ATOM     24  H7  ESM d   1      24.294  14.787  33.086  0.00  0.00     0.033 H 
ATOM     25  H8  ESM d   1      23.643  14.465  31.443  0.00  0.00     0.033 H 
ATOM     26  H9  ESM d   1      26.456  14.505  32.312  0.00  0.00     0.036 H 
ATOM     27  H10 ESM d   1      25.809  14.267  30.652  0.00  0.00     0.036 H 
ATOM     28  H11 ESM d   1      26.521  12.188  32.756  0.00  0.00     0.084 H 
ATOM     29  H15 ESM d   1      17.808  11.599  33.954  0.00  0.00     0.088 H 
ATOM     30  H16 ESM d   1      19.727  13.193  34.661  0.00  0.00     0.040 H 
ATOM     31  H17 ESM d   1      19.671  13.290  32.868  0.00  0.00     0.040 H 
ATOM     32  H18 ESM d   1      22.059  13.086  34.717  0.00  0.00     0.034 H 
ATOM     33  H19 ESM d   1      21.747  14.229  33.367  0.00  0.00     0.034 H 
ATOM     34  H20 ESM d   1      22.001  12.358  31.751  0.00  0.00     0.041 H 
ATOM     35  H21 ESM d   1      22.847  10.754  34.249  0.00  0.00     0.048 H 
ENDROOT
BRANCH  10  36
ATOM     36  O2  ESM d   1      18.804   7.276  33.529  0.00  0.00    -0.353 OA
BRANCH  36  37
ATOM     37  C19 ESM d   1      19.789   6.270  33.355  0.00  0.00     0.010 C 
ATOM     38  H24 ESM d   1      19.307   5.281  33.355  0.00  0.00     0.066 H 
ATOM     39  H25 ESM d   1      20.517   6.323  34.178  0.00  0.00     0.066 H 
ATOM     40  H26 ESM d   1      20.307   6.426  32.397  0.00  0.00     0.066 H 
ENDBRANCH  36  37
ENDBRANCH  10  36
BRANCH  11  41
ATOM     41  O3  ESM d   1      16.971   9.085  33.863  0.00  0.00    -0.358 OA
ATOM     42  H23 ESM d   1      16.627   9.352  34.707  0.00  0.00     0.217 HD
ENDBRANCH  11  41
BRANCH   5  43
ATOM     43  C18 ESM d   1      24.142  11.894  30.219  0.00  0.00    -0.066 C 
ATOM     44  H12 ESM d   1      23.155  11.411  30.169  0.00  0.00     0.028 H 
ATOM     45  H13 ESM d   1      24.831  11.393  29.523  0.00  0.00     0.028 H 
ATOM     46  H14 ESM d   1      24.046  12.954  29.940  0.00  0.00     0.028 H 
ENDBRANCH   5  43
BRANCH   9  47
ATOM     47  O17 ESM d   1      26.981  12.083  30.720  0.00  0.00    -0.395 OA
ATOM     48  H22 ESM d   1      27.782  12.586  30.811  0.00  0.00     0.210 HD
ENDBRANCH   9  47
TORSDOF 5
