REMARK  6 active torsions:
REMARK  status: ('A' for Active; 'I' for Inactive)
REMARK    1  A    between atoms: O4_4  and  C12_1 
REMARK    2  A    between atoms: C11_2  and  O4_4 
REMARK    3  A    between atoms: C10_5  and  C11_2 
REMARK    4  A    between atoms: C9_8  and  C10_5 
REMARK    5  A    between atoms: C7_10  and  C6_13 
REMARK    6  A    between atoms: C3_16  and  O1_11 
ROOT
ATOM      1  N1  HDI d   1     -40.610  41.718   6.431  0.00  0.00    -0.137 NA
ATOM      2  O2  HDI d   1     -41.080  42.313   7.495  0.00  0.00    -0.250 OA
ATOM      3  C9  HDI d   1     -40.880  41.574   8.711  0.00  0.00     0.081 A 
ATOM      4  C8  HDI d   1     -40.168  40.304   8.230  0.00  0.00     0.005 A 
ATOM      5  C7  HDI d   1     -40.089  40.605   6.755  0.00  0.00     0.074 A 
ATOM      6  H6  HDI d   1     -40.200  42.135   9.368  0.00  0.00     0.088 H 
ATOM      7  H7  HDI d   1     -40.761  39.400   8.433  0.00  0.00     0.046 H 
ATOM      8  H8  HDI d   1     -39.170  40.197   8.681  0.00  0.00     0.046 H 
ENDROOT
BRANCH   5   9
ATOM      9  C6  HDI d   1     -39.439  39.663   5.745  0.00  0.00    -0.009 A 
ATOM     10  C1  HDI d   1     -38.616  38.621   6.203  0.00  0.00    -0.068 A 
ATOM     11  C2  HDI d   1     -38.008  37.760   5.310  0.00  0.00    -0.050 A 
ATOM     12  H11 HDI d   1     -38.456  38.491   7.267  0.00  0.00     0.085 H 
ATOM     13  C3  HDI d   1     -38.204  37.917   3.935  0.00  0.00     0.065 A 
ATOM     14  H12 HDI d   1     -37.376  36.959   5.677  0.00  0.00     0.087 H 
ATOM     15  C4  HDI d   1     -39.027  38.958   3.462  0.00  0.00    -0.050 A 
ATOM     16  C5  HDI d   1     -39.637  39.823   4.358  0.00  0.00    -0.068 A 
ATOM     17  H13 HDI d   1     -39.184  39.083   2.397  0.00  0.00     0.087 H 
ATOM     18  H10 HDI d   1     -40.268  40.624   3.991  0.00  0.00     0.085 H 
BRANCH  13  19
ATOM     19  O1  HDI d   1     -37.593  37.054   3.054  0.00  0.00    -0.361 OA
ATOM     20  H9  HDI d   1     -38.255  36.604   2.543  0.00  0.00     0.217 HD
ENDBRANCH  13  19
ENDBRANCH   5   9
BRANCH   3  21
ATOM     21  C10 HDI d   1     -42.179  41.340   9.508  0.00  0.00     0.042 C 
ATOM     22  H4  HDI d   1     -42.881  40.781   8.872  0.00  0.00     0.052 H 
ATOM     23  H5  HDI d   1     -41.937  40.743  10.399  0.00  0.00     0.052 H 
BRANCH  21  24
ATOM     24  C11 HDI d   1     -42.859  42.623   9.960  0.00  0.00     0.260 C 
ATOM     25  O3  HDI d   1     -42.397  43.739   9.698  0.00  0.00    -0.265 OA
BRANCH  24  26
ATOM     26  O4  HDI d   1     -44.019  42.362  10.677  0.00  0.00    -0.326 OA
BRANCH  26  27
ATOM     27  C12 HDI d   1     -44.265  43.120  11.882  0.00  0.00     0.013 C 
ATOM     28  H1  HDI d   1     -45.217  42.798  12.330  0.00  0.00     0.067 H 
ATOM     29  H2  HDI d   1     -44.319  44.191  11.637  0.00  0.00     0.067 H 
ATOM     30  H3  HDI d   1     -43.447  42.949  12.597  0.00  0.00     0.067 H 
ENDBRANCH  26  27
ENDBRANCH  24  26
ENDBRANCH  21  24
ENDBRANCH   3  21
TORSDOF 6
