REMARK  20 active torsions:
REMARK  status: ('A' for Active; 'I' for Inactive)
REMARK    1  A    between atoms: O4_25  and  C1_1 
REMARK    2  A    between atoms: C2_2  and  N2_9 
REMARK    3  A    between atoms: C3_3  and  O3_10 
REMARK    4  A    between atoms: C4_4  and  O4_11 
REMARK    5  A    between atoms: C5_5  and  C6_6 
REMARK    6  A    between atoms: C6_6  and  O6_13 
REMARK    7  A    between atoms: C7_7  and  C8_8 
REMARK       I    between atoms: N2_9  and  C7_7 
REMARK    8  A    between atoms: O4_41  and  C1_15 
REMARK    9  A    between atoms: C2_16  and  N2_23 
REMARK   10  A    between atoms: C3_17  and  O3_24 
REMARK   11  A    between atoms: C4_18  and  O4_25 
REMARK   12  A    between atoms: C5_19  and  C6_20 
REMARK   13  A    between atoms: C6_20  and  O6_27 
REMARK   14  A    between atoms: C7_21  and  C8_22 
REMARK       I    between atoms: N2_23  and  C7_21 
REMARK   15  A    between atoms: C3_31  and  O3_40 
REMARK   16  A    between atoms: C4_32  and  O4_41 
REMARK   17  A    between atoms: C5_33  and  C6_34 
REMARK   18  A    between atoms: C6_34  and  O6_42 
REMARK   19  A    between atoms: N7_39  and  C8_36 
REMARK   20  A    between atoms: N7_39  and  C9_37 
ROOT
ATOM      1  C1  NAA d   1      65.401  30.685  49.045  0.00  0.00     0.154 C 
ATOM      2  C2  NAA d   1      65.378  30.867  50.569  0.00  0.00     0.087 C 
ATOM      3  C3  NAA d   1      65.932  32.245  51.023  0.00  0.00     0.087 C 
ATOM      4  C4  NAA d   1      67.309  32.468  50.299  0.00  0.00     0.095 C 
ATOM      5  C5  NAA d   1      67.207  32.170  48.812  0.00  0.00     0.089 C 
ATOM      6  O5  NAA d   1      66.693  30.871  48.565  0.00  0.00    -0.349 OA
ATOM      7  H15 NAA d   1      64.694  31.369  48.552  0.00  0.00     0.132 H 
ATOM      8  H16 NAA d   1      65.972  30.072  51.044  0.00  0.00     0.084 H 
ATOM      9  H17 NAA d   1      66.133  32.168  52.102  0.00  0.00     0.090 H 
ATOM     10  H18 NAA d   1      68.050  31.793  50.752  0.00  0.00     0.091 H 
ATOM     11  H19 NAA d   1      66.513  32.916  48.399  0.00  0.00     0.090 H 
ENDROOT
BRANCH   1  12
ATOM     12  O4  AMI d   1      65.085  29.375  48.817  0.00  0.00    -0.351 OA
BRANCH  12  13
ATOM     13  C4  AMI d   1      64.571  28.951  47.573  0.00  0.00     0.076 C 
ATOM     14  C3  AMI d   1      65.680  28.438  46.753  0.00  0.00     0.083 C 
ATOM     15  C2  AMI d   1      64.938  27.807  45.637  0.00  0.00     0.066 C 
ATOM     16  H30 NAA d   1      66.281  27.729  47.340  0.00  0.00     0.090 H 
ATOM     17  C1  AMI d   1      63.906  26.974  46.366  0.00  0.00     0.078 C 
ATOM     18  N2  AMI d   1      65.918  26.916  45.091  0.00  0.00    -0.347 N 
ATOM     19  H29 NAA d   1      64.511  28.507  44.904  0.00  0.00     0.080 H 
ATOM     20  C5  AMI d   1      63.650  27.742  47.673  0.00  0.00     0.022 C 
ATOM     21  O7  AMI d   1      64.678  25.785  46.624  0.00  0.00    -0.314 OA
ATOM     22  H28 NAA d   1      62.983  26.783  45.799  0.00  0.00     0.088 H 
ATOM     23  H32 NAA d   1      63.982  27.124  48.520  0.00  0.00     0.051 H 
ATOM     24  C7  AMI d   1      65.767  25.765  45.800  0.00  0.00     0.217 C 
ATOM     25  N7  AMI d   1      66.523  24.638  45.801  0.00  0.00    -0.356 N 
ATOM     26  H41 NAA d   1      66.587  27.105  44.331  0.00  0.00     0.163 HD
ATOM     27  H31 NAA d   1      64.057  29.791  47.083  0.00  0.00     0.088 H 
BRANCH  14  28
ATOM     28  O3  AMI d   1      66.530  29.330  46.077  0.00  0.00    -0.391 OA
ATOM     29  H42 NAA d   1      66.956  29.899  46.707  0.00  0.00     0.210 HD
ENDBRANCH  14  28
BRANCH  20  30
ATOM     30  C6  AMI d   1      62.187  28.040  47.906  0.00  0.00     0.025 C 
ATOM     31  H33 NAA d   1      61.624  27.096  47.951  0.00  0.00     0.074 H 
ATOM     32  H34 NAA d   1      61.803  28.656  47.080  0.00  0.00     0.074 H 
BRANCH  30  33
ATOM     33  O6  AMI d   1      62.033  28.732  49.113  0.00  0.00    -0.400 OA
ATOM     34  H43 NAA d   1      62.519  29.547  49.073  0.00  0.00     0.209 HD
ENDBRANCH  30  33
ENDBRANCH  20  30
BRANCH  25  35
ATOM     35  C8  AMI d   1      67.897  24.695  45.461  0.00  0.00    -0.016 C 
ATOM     36  H35 NAA d   1      68.332  23.686  45.520  0.00  0.00     0.056 H 
ATOM     37  H36 NAA d   1      68.421  25.361  46.162  0.00  0.00     0.056 H 
ATOM     38  H37 NAA d   1      68.006  25.081  44.437  0.00  0.00     0.056 H 
ENDBRANCH  25  35
BRANCH  25  39
ATOM     39  C9  AMI d   1      65.978  23.362  46.124  0.00  0.00    -0.016 C 
ATOM     40  H38 NAA d   1      64.910  23.470  46.365  0.00  0.00     0.056 H 
ATOM     41  H39 NAA d   1      66.510  22.945  46.992  0.00  0.00     0.056 H 
ATOM     42  H40 NAA d   1      66.093  22.686  45.264  0.00  0.00     0.056 H 
ENDBRANCH  25  39
ENDBRANCH  12  13
ENDBRANCH   1  12
BRANCH   2  43
ATOM     43  N2  NAA d   1      63.982  30.753  50.959  0.00  0.00    -0.349 N 
ATOM     44  C7  NAA d   1      63.587  30.054  52.011  0.00  0.00     0.214 C 
ATOM     45  O7  NAA d   1      62.402  29.734  52.190  0.00  0.00    -0.274 OA
ATOM     46  H25 NAA d   1      63.291  31.223  50.409  0.00  0.00     0.163 HD
BRANCH  44  47
ATOM     47  C8  NAA d   1      64.701  29.620  52.953  0.00  0.00    -0.003 C 
ATOM     48  H22 NAA d   1      64.272  29.049  53.790  0.00  0.00     0.040 H 
ATOM     49  H23 NAA d   1      65.219  30.509  53.343  0.00  0.00     0.040 H 
ATOM     50  H24 NAA d   1      65.417  28.988  52.407  0.00  0.00     0.040 H 
ENDBRANCH  44  47
ENDBRANCH   2  43
BRANCH   3  51
ATOM     51  O3  NAA d   1      65.046  33.359  50.866  0.00  0.00    -0.391 OA
ATOM     52  H26 NAA d   1      65.449  34.137  51.234  0.00  0.00     0.210 HD
ENDBRANCH   3  51
BRANCH   5  53
ATOM     53  C6  NAA d   1      68.490  32.206  47.966  0.00  0.00     0.043 C 
ATOM     54  H20 NAA d   1      69.220  31.506  48.398  0.00  0.00     0.078 H 
ATOM     55  H21 NAA d   1      68.902  33.226  47.988  0.00  0.00     0.078 H 
BRANCH  53  56
ATOM     56  O6  NAA d   1      68.239  31.830  46.581  0.00  0.00    -0.398 OA
ATOM     57  H27 NAA d   1      67.888  30.948  46.552  0.00  0.00     0.209 HD
ENDBRANCH  53  56
ENDBRANCH   5  53
BRANCH   4  58
ATOM     58  O4  NAA d   1      67.774  33.850  50.438  0.00  0.00    -0.348 OA
BRANCH  58  59
ATOM     59  C1  NAA d   1      68.329  34.129  51.679  0.00  0.00     0.154 C 
ATOM     60  C2  NAA d   1      69.578  35.015  51.573  0.00  0.00     0.087 C 
ATOM     61  C3  NAA d   1      70.164  35.451  52.866  0.00  0.00     0.086 C 
ATOM     62  H2  NAA d   1      69.334  35.895  50.959  0.00  0.00     0.084 H 
ATOM     63  C4  NAA d   1      69.048  35.847  53.839  0.00  0.00     0.089 C 
ATOM     64  H3  NAA d   1      70.781  36.341  52.673  0.00  0.00     0.090 H 
ATOM     65  C5  NAA d   1      67.903  34.845  53.854  0.00  0.00     0.089 C 
ATOM     66  H4  NAA d   1      68.665  36.849  53.596  0.00  0.00     0.091 H 
ATOM     67  O5  NAA d   1      67.361  34.737  52.523  0.00  0.00    -0.349 OA
ATOM     68  H5  NAA d   1      68.361  33.881  54.120  0.00  0.00     0.090 H 
ATOM     69  H1  NAA d   1      68.632  33.175  52.135  0.00  0.00     0.132 H 
BRANCH  60  70
ATOM     70  N2  NAA d   1      70.641  34.247  50.982  0.00  0.00    -0.349 N 
ATOM     71  C7  NAA d   1      71.154  34.634  49.847  0.00  0.00     0.214 C 
ATOM     72  O7  NAA d   1      71.921  33.917  49.231  0.00  0.00    -0.274 OA
ATOM     73  H11 NAA d   1      70.983  33.425  51.437  0.00  0.00     0.163 HD
BRANCH  71  74
ATOM     74  C8  NAA d   1      70.777  35.971  49.293  0.00  0.00    -0.003 C 
ATOM     75  H8  NAA d   1      71.298  36.132  48.338  0.00  0.00     0.040 H 
ATOM     76  H9  NAA d   1      71.065  36.758  50.006  0.00  0.00     0.040 H 
ATOM     77  H10 NAA d   1      69.690  36.006  49.128  0.00  0.00     0.040 H 
ENDBRANCH  71  74
ENDBRANCH  60  70
BRANCH  61  78
ATOM     78  O3  NAA d   1      71.001  34.465  53.436  0.00  0.00    -0.391 OA
ATOM     79  H12 NAA d   1      71.394  34.806  54.231  0.00  0.00     0.210 HD
ENDBRANCH  61  78
BRANCH  63  80
ATOM     80  O4  NAA d   1      69.653  35.820  55.117  0.00  0.00    -0.390 OA
ATOM     81  H13 NAA d   1      69.979  34.945  55.293  0.00  0.00     0.210 HD
ENDBRANCH  63  80
BRANCH  65  82
ATOM     82  C6  NAA d   1      66.698  35.021  54.817  0.00  0.00     0.043 C 
ATOM     83  H6  NAA d   1      66.194  35.971  54.587  0.00  0.00     0.078 H 
ATOM     84  H7  NAA d   1      67.070  35.044  55.852  0.00  0.00     0.078 H 
BRANCH  82  85
ATOM     85  O6  NAA d   1      65.751  33.949  54.687  0.00  0.00    -0.398 OA
ATOM     86  H14 NAA d   1      65.421  33.926  53.797  0.00  0.00     0.209 HD
ENDBRANCH  82  85
ENDBRANCH  65  82
ENDBRANCH  58  59
ENDBRANCH   4  58
TORSDOF 20
