REMARK  12 active torsions:
REMARK  status: ('A' for Active; 'I' for Inactive)
REMARK    1  A    between atoms: C1_2  and  C2_3 
REMARK    2  A    between atoms: C2_3  and  C3_4 
REMARK    3  A    between atoms: C2_3  and  N8_14 
REMARK    4  A    between atoms: C5_6  and  C51_7 
REMARK    5  A    between atoms: C5_6  and  C52_8 
REMARK    6  A    between atoms: C6_9  and  C61_10 
REMARK       I    between atoms: N8_14  and  C9_15 
REMARK    7  A    between atoms: C9_15  and  C10_17 
REMARK    8  A    between atoms: C10_17  and  N11_18 
REMARK    9  A    between atoms: C10_17  and  C14_21 
REMARK   10  A    between atoms: N11_18  and  O12_19 
REMARK   11  A    between atoms: O12_19  and  C13_20 
REMARK   12  A    between atoms: C17_24  and  N19_26 
ROOT
ATOM      1  C2  PCN d   1      78.119   5.379  30.023  0.00  0.00     0.079 C 
ATOM      2  H2  PCN d   1      77.491   5.637  30.889  0.00  0.00     0.081 H 
ENDROOT
BRANCH   1   3
ATOM      3  C1  PCN d   1      77.650   4.072  29.442  0.00  0.00     0.124 C 
ATOM      4  O1  PCN d   1      78.478   3.149  29.034  0.00  0.00    -0.230 OA
ATOM      5  H1  PCN d   1      76.580   3.890  29.359  0.00  0.00     0.095 H 
ENDBRANCH   1   3
BRANCH   1   6
ATOM      6  C3  PCN d   1      77.956   6.471  28.981  0.00  0.00     0.169 C 
ATOM      7  S4  PCN d   1      78.828   8.066  29.449  0.00  0.00    -0.122 SA
ATOM      8  C5  PCN d   1      79.785   8.137  27.844  0.00  0.00     0.041 C 
ATOM      9  C6  PCN d   1      79.922   6.646  27.563  0.00  0.00     0.201 C 
ATOM     10  N7  PCN d   1      78.565   6.083  27.697  0.00  0.00    -0.044 N 
ATOM     11  H10 PCN d   1      80.593   6.199  28.311  0.00  0.00     0.104 H 
ATOM     12  H11 PCN d   1      77.990   6.425  26.943  0.00  0.00     0.279 HD
ATOM     13  H12 PCN d   1      78.619   5.078  27.648  0.00  0.00     0.279 HD
ATOM     14  H3  PCN d   1      76.881   6.662  28.845  0.00  0.00     0.105 H 
BRANCH   8  15
ATOM     15  C51 PCN d   1      81.121   8.853  28.126  0.00  0.00    -0.058 C 
ATOM     16  H4  PCN d   1      81.709   8.911  27.198  0.00  0.00     0.029 H 
ATOM     17  H5  PCN d   1      81.686   8.290  28.884  0.00  0.00     0.029 H 
ATOM     18  H6  PCN d   1      80.921   9.869  28.497  0.00  0.00     0.029 H 
ENDBRANCH   8  15
BRANCH   8  19
ATOM     19  C52 PCN d   1      78.950   8.868  26.824  0.00  0.00    -0.058 C 
ATOM     20  H7  PCN d   1      79.497   8.920  25.871  0.00  0.00     0.029 H 
ATOM     21  H8  PCN d   1      78.741   9.887  27.183  0.00  0.00     0.029 H 
ATOM     22  H9  PCN d   1      78.002   8.331  26.673  0.00  0.00     0.029 H 
ENDBRANCH   8  19
BRANCH   9  23
ATOM     23  C61 PCN d   1      80.470   6.316  26.149  0.00  0.00     0.206 C 
ATOM     24  O62 PCN d   1      81.660   5.897  26.073  0.00  0.00    -0.646 OA
ATOM     25  O63 PCN d   1      79.664   6.496  25.205  0.00  0.00    -0.646 OA
ENDBRANCH   9  23
ENDBRANCH   1   6
BRANCH   1  26
ATOM     26  N8  PCN d   1      79.497   5.204  30.491  0.00  0.00    -0.345 N 
ATOM     27  C9  PCN d   1      79.989   5.929  31.620  0.00  0.00     0.275 C 
ATOM     28  O91 PCN d   1      79.192   6.627  32.303  0.00  0.00    -0.266 OA
ATOM     29  H13 PCN d   1      80.102   4.567  30.013  0.00  0.00     0.163 HD
BRANCH  27  30
ATOM     30  C10 PCN d   1      81.407   5.742  31.866  0.00  0.00     0.180 C 
BRANCH  30  31
ATOM     31  N11 PCN d   1      82.468   5.825  30.953  0.00  0.00    -0.126 NA
BRANCH  31  32
ATOM     32  O12 PCN d   1      82.100   6.210  29.558  0.00  0.00    -0.261 OA
BRANCH  32  33
ATOM     33  C13 PCN d   1      83.286   6.586  28.837  0.00  0.00     0.031 C 
ATOM     34  H14 PCN d   1      83.016   6.870  27.809  0.00  0.00     0.070 H 
ATOM     35  H15 PCN d   1      83.984   5.736  28.811  0.00  0.00     0.070 H 
ATOM     36  H16 PCN d   1      83.765   7.439  29.339  0.00  0.00     0.070 H 
ENDBRANCH  32  33
ENDBRANCH  31  32
ENDBRANCH  30  31
BRANCH  30  37
ATOM     37  C14 PCN d   1      81.896   5.435  33.190  0.00  0.00     0.102 A 
ATOM     38  C15 PCN d   1      81.295   5.918  34.404  0.00  0.00    -0.011 A 
ATOM     39  S16 PCN d   1      82.055   5.366  35.763  0.00  0.00    -0.062 SA
ATOM     40  H17 PCN d   1      80.430   6.579  34.425  0.00  0.00     0.098 H 
ATOM     41  C17 PCN d   1      83.172   4.542  34.839  0.00  0.00     0.164 A 
ATOM     42  N18 PCN d   1      82.889   4.724  33.503  0.00  0.00    -0.222 NA
BRANCH  41  43
ATOM     43  N19 PCN d   1      84.239   3.766  35.314  0.00  0.00    -0.378 N 
ATOM     44  H18 PCN d   1      84.872   3.298  34.649  0.00  0.00     0.158 HD
ATOM     45  H19 PCN d   1      84.390   3.664  36.328  0.00  0.00     0.158 HD
ENDBRANCH  41  43
ENDBRANCH  30  37
ENDBRANCH  27  30
ENDBRANCH   1  26
TORSDOF 12
