REMARK  6 active torsions:
REMARK  status: ('A' for Active; 'I' for Inactive)
REMARK    1  A    between atoms: C1'_9  and  N1_1 
REMARK    2  A    between atoms: C2'_10  and  O2'_13 
REMARK    3  A    between atoms: C3'_11  and  O3'_14 
REMARK    4  A    between atoms: C4'_12  and  C5'_16 
REMARK    5  A    between atoms: C5'_16  and  O5'_17 
REMARK    6  A    between atoms: O5'_17  and  P_18 
ROOT
ATOM      1  C1' NON d   1      43.186  26.410  26.779  0.00  0.00     0.158 C 
ATOM      2  C2' NON d   1      43.772  26.990  28.064  0.00  0.00     0.106 C 
ATOM      3  C3' NON d   1      45.290  26.892  27.833  0.00  0.00     0.091 C 
ATOM      4  C4' NON d   1      45.369  25.603  27.025  0.00  0.00     0.089 C 
ATOM      5  O4' NON d   1      44.168  25.543  26.244  0.00  0.00    -0.352 OA
ATOM      6  H3  NON d   1      43.102  27.263  26.089  0.00  0.00     0.125 H 
ATOM      7  H4  NON d   1      43.497  26.344  28.911  0.00  0.00     0.094 H 
ATOM      8  H5  NON d   1      45.823  26.776  28.788  0.00  0.00     0.091 H 
ATOM      9  H6  NON d   1      46.239  25.686  26.357  0.00  0.00     0.090 H 
ENDROOT
BRANCH   1  10
ATOM     10  N1  NON d   1      41.840  25.805  26.771  0.00  0.00    -0.187 N 
ATOM     11  N6  NON d   1      40.910  26.266  25.836  0.00  0.00    -0.173 NA
ATOM     12  C5  NON d   1      39.681  25.796  25.732  0.00  0.00     0.087 A 
ATOM     13  C4  NON d   1      39.223  24.747  26.605  0.00  0.00     0.268 A 
ATOM     14  H2  NON d   1      39.008  26.205  24.980  0.00  0.00     0.126 H 
ATOM     15  N3  NON d   1      40.190  24.301  27.538  0.00  0.00    -0.273 N 
ATOM     16  O4  NON d   1      38.127  24.233  26.611  0.00  0.00    -0.266 OA
ATOM     17  C2  NON d   1      41.490  24.773  27.675  0.00  0.00     0.348 A 
ATOM     18  H1  NON d   1      39.909  23.572  28.162  0.00  0.00     0.173 HD
ATOM     19  O2  NON d   1      42.294  24.354  28.500  0.00  0.00    -0.245 OA
ENDBRANCH   1  10
BRANCH   2  20
ATOM     20  O2' NON d   1      43.291  28.319  28.374  0.00  0.00    -0.388 OA
ATOM     21  H7  NON d   1      42.347  28.297  28.478  0.00  0.00     0.210 HD
ENDBRANCH   2  20
BRANCH   4  22
ATOM     22  C5' NON d   1      45.505  24.275  27.780  0.00  0.00     0.059 C 
ATOM     23  H9  NON d   1      45.640  23.453  27.062  0.00  0.00     0.079 H 
ATOM     24  H10 NON d   1      44.600  24.095  28.379  0.00  0.00     0.079 H 
BRANCH  22  25
ATOM     25  O5' NON d   1      46.644  24.354  28.641  0.00  0.00    -0.280 OA
BRANCH  25  26
ATOM     26  P   NON d   1      46.980  23.327  29.823  0.00  0.00     0.422 P 
ATOM     27  O3P NON d   1      47.430  21.954  29.005  0.00  0.00    -0.617 OA
ATOM     28  O2P NON d   1      48.205  23.801  30.479  0.00  0.00    -0.617 OA
ATOM     29  O1P NON d   1      45.961  23.144  30.921  0.00  0.00    -0.617 OA
ENDBRANCH  25  26
ENDBRANCH  22  25
ENDBRANCH   4  22
BRANCH   3  30
ATOM     30  O3' NON d   1      45.831  28.072  27.153  0.00  0.00    -0.390 OA
ATOM     31  H8  NON d   1      46.767  27.965  27.033  0.00  0.00     0.210 HD
ENDBRANCH   3  30
TORSDOF 6
