REMARK  10 active torsions:
REMARK  status: ('A' for Active; 'I' for Inactive)
REMARK    1  A    between atoms: C5_5  and  C10_10 
REMARK    2  A    between atoms: N7_7  and  C17_15 
REMARK    3  A    between atoms: C8_8  and  C11_11 
REMARK       I    between atoms: C11_11  and  N12_12 
REMARK    4  A    between atoms: N12_12  and  C13_13 
REMARK    5  A    between atoms: C13_13  and  C14_14 
REMARK    6  A    between atoms: C17_15  and  C18_16 
REMARK    7  A    between atoms: C24_20  and  C31_27 
REMARK    8  A    between atoms: C27_23  and  C33_29 
REMARK    9  A    between atoms: C29_25  and  C37_30 
REMARK   10  A    between atoms: C31_27  and  N32_28 
ROOT
ATOM      1  C1  CMI d   1       3.995   9.827  26.030  0.00  0.00    -0.080 A 
ATOM      2  C2  CMI d   1       5.122   9.017  25.736  0.00  0.00    -0.056 A 
ATOM      3  C3  CMI d   1       5.483   8.774  24.394  0.00  0.00     0.046 A 
ATOM      4  C4  CMI d   1       4.722   9.354  23.337  0.00  0.00    -0.001 A 
ATOM      5  C5  CMI d   1       3.625  10.163  23.636  0.00  0.00    -0.049 A 
ATOM      6  C6  CMI d   1       3.244  10.396  24.977  0.00  0.00    -0.076 A 
ATOM      7  N7  CMI d   1       6.491   8.015  23.843  0.00  0.00    -0.337 N 
ATOM      8  C8  CMI d   1       6.420   8.083  22.479  0.00  0.00     0.104 A 
ATOM      9  C9  CMI d   1       5.318   8.912  22.137  0.00  0.00    -0.039 A 
ATOM     10  H1  CMI d   1       3.711  10.009  27.060  0.00  0.00     0.083 H 
ATOM     11  H2  CMI d   1       5.705   8.585  26.541  0.00  0.00     0.087 H 
ATOM     12  H3  CMI d   1       2.378  11.010  25.197  0.00  0.00     0.084 H 
ATOM     13  H4  CMI d   1       4.992   9.162  21.128  0.00  0.00     0.088 H 
ENDROOT
BRANCH   8  14
ATOM     14  C11 CMI d   1       7.334   7.478  21.579  0.00  0.00     0.268 C 
ATOM     15  N12 CMI d   1       6.817   6.898  20.473  0.00  0.00    -0.351 N 
ATOM     16  H8  CMI d   1       5.842   6.995  20.273  0.00  0.00     0.163 HD
ATOM     17  O45 CMI d   1       8.551   7.522  21.787  0.00  0.00    -0.266 OA
BRANCH  15  18
ATOM     18  C13 CMI d   1       7.672   6.129  19.565  0.00  0.00     0.019 C 
ATOM     19  H9  CMI d   1       8.701   6.502  19.677  0.00  0.00     0.071 H 
ATOM     20  H10 CMI d   1       7.324   6.315  18.538  0.00  0.00     0.071 H 
BRANCH  18  21
ATOM     21  C14 CMI d   1       7.697   4.635  19.780  0.00  0.00    -0.040 A 
ATOM     22  C26 CMI d   1       8.520   3.895  18.926  0.00  0.00    -0.070 A 
ATOM     23  C27 CMI d   1       8.665   2.522  19.128  0.00  0.00    -0.061 A 
ATOM     24  H17 CMI d   1       9.042   4.385  18.112  0.00  0.00     0.085 H 
ATOM     25  C28 CMI d   1       7.968   1.870  20.146  0.00  0.00    -0.071 A 
ATOM     26  C29 CMI d   1       7.122   2.579  20.988  0.00  0.00    -0.061 A 
ATOM     27  H18 CMI d   1       8.088   0.801  20.280  0.00  0.00     0.085 H 
ATOM     28  C30 CMI d   1       6.985   3.975  20.813  0.00  0.00    -0.070 A 
ATOM     29  H19 CMI d   1       6.335   4.542  21.470  0.00  0.00     0.085 H 
BRANCH  23  30
ATOM     30  C33 CMI d   1       9.601   1.761  18.300  0.00  0.00    -0.051 C 
ATOM     31  H22 CMI d   1      10.057   2.429  17.554  0.00  0.00     0.033 H 
ATOM     32  H23 CMI d   1       9.062   0.952  17.786  0.00  0.00     0.033 H 
ATOM     33  H24 CMI d   1      10.388   1.331  18.937  0.00  0.00     0.033 H 
ENDBRANCH  23  30
BRANCH  26  34
ATOM     34  C37 CMI d   1       6.397   1.847  22.043  0.00  0.00    -0.051 C 
ATOM     35  H25 CMI d   1       6.655   0.779  21.992  0.00  0.00     0.033 H 
ATOM     36  H26 CMI d   1       5.314   1.970  21.896  0.00  0.00     0.033 H 
ATOM     37  H27 CMI d   1       6.681   2.246  23.028  0.00  0.00     0.033 H 
ENDBRANCH  26  34
ENDBRANCH  18  21
ENDBRANCH  15  18
ENDBRANCH   8  14
BRANCH   7  38
ATOM     38  C17 CMI d   1       7.406   7.173  24.629  0.00  0.00     0.024 C 
ATOM     39  H11 CMI d   1       7.685   6.299  24.021  0.00  0.00     0.072 H 
ATOM     40  H12 CMI d   1       6.880   6.837  25.535  0.00  0.00     0.072 H 
BRANCH  38  41
ATOM     41  C18 CMI d   1       8.651   7.878  25.041  0.00  0.00    -0.039 A 
ATOM     42  C21 CMI d   1       9.134   9.013  24.364  0.00  0.00    -0.075 A 
ATOM     43  C22 CMI d   1      10.358   9.581  24.710  0.00  0.00    -0.082 A 
ATOM     44  H13 CMI d   1       8.547   9.450  23.564  0.00  0.00     0.084 H 
ATOM     45  C23 CMI d   1      11.085   9.004  25.754  0.00  0.00    -0.069 A 
ATOM     46  H14 CMI d   1      10.737  10.449  24.182  0.00  0.00     0.083 H 
ATOM     47  C24 CMI d   1      10.598   7.885  26.472  0.00  0.00     0.007 A 
ATOM     48  H15 CMI d   1      12.048   9.424  26.022  0.00  0.00     0.085 H 
ATOM     49  C25 CMI d   1       9.362   7.330  26.105  0.00  0.00    -0.062 A 
ATOM     50  H16 CMI d   1       8.964   6.480  26.647  0.00  0.00     0.085 H 
BRANCH  47  51
ATOM     51  C31 CMI d   1      11.390   7.282  27.566  0.00  0.00     0.102 C 
ATOM     52  N53 CMI d   1      10.842   6.428  28.426  0.00  0.00    -0.385 N 
ATOM     53  H28 CMI d   1       9.842   6.191  28.350  0.00  0.00     0.157 HD
ATOM     54  H29 CMI d   1      11.417   6.004  29.168  0.00  0.00     0.157 HD
BRANCH  51  55
ATOM     55  N32 CMI d   1      12.692   7.559  27.704  0.00  0.00    -0.385 N 
ATOM     56  H20 CMI d   1      13.231   7.132  28.471  0.00  0.00     0.157 HD
ATOM     57  H21 CMI d   1      13.155   8.200  27.044  0.00  0.00     0.157 HD
ENDBRANCH  51  55
ENDBRANCH  47  51
ENDBRANCH  38  41
ENDBRANCH   7  38
BRANCH   5  58
ATOM     58  C10 CMI d   1       2.867  10.855  22.581  0.00  0.00    -0.050 C 
ATOM     59  H5  CMI d   1       3.273  10.579  21.597  0.00  0.00     0.033 H 
ATOM     60  H6  CMI d   1       2.953  11.943  22.721  0.00  0.00     0.033 H 
ATOM     61  H7  CMI d   1       1.809  10.560  22.637  0.00  0.00     0.033 H 
ENDBRANCH   5  58
TORSDOF 10
