REMARK  11 active torsions:
REMARK  status: ('A' for Active; 'I' for Inactive)
REMARK    1  A    between atoms: C20_10  and  N18_8 
REMARK    2  A    between atoms: C19_9  and  C21_11 
REMARK    3  A    between atoms: C28_16  and  C20_10 
REMARK       I    between atoms: C21_11  and  N22_12 
REMARK    4  A    between atoms: N22_12  and  C23_13 
REMARK    5  A    between atoms: C23_13  and  C24_14 
REMARK    6  A    between atoms: C31_17  and  C36_22 
REMARK    7  A    between atoms: C36_22  and  N37_23 
REMARK    8  A    between atoms: C40_26  and  N44_30 
REMARK    9  A    between atoms: N44_30  and  C45_31 
REMARK   10  A    between atoms: N44_30  and  C49_32 
REMARK   11  A    between atoms: N44_30  and  C53_33 
ROOT
ATOM      1  C11 IMA d   1      19.515   6.941  32.146  0.00  0.00    -0.082 A 
ATOM      2  C12 IMA d   1      19.527   7.131  30.740  0.00  0.00    -0.081 A 
ATOM      3  C13 IMA d   1      20.317   6.318  29.919  0.00  0.00    -0.056 A 
ATOM      4  C14 IMA d   1      21.117   5.320  30.504  0.00  0.00     0.045 A 
ATOM      5  C15 IMA d   1      21.149   5.115  31.924  0.00  0.00    -0.007 A 
ATOM      6  C16 IMA d   1      20.325   5.939  32.746  0.00  0.00    -0.071 A 
ATOM      7  C17 IMA d   1      22.085   4.079  32.191  0.00  0.00    -0.041 A 
ATOM      8  N18 IMA d   1      21.996   4.427  29.965  0.00  0.00    -0.338 N 
ATOM      9  C19 IMA d   1      22.590   3.699  30.925  0.00  0.00     0.090 A 
ATOM     10  H1  IMA d   1      18.883   7.565  32.767  0.00  0.00     0.083 H 
ATOM     11  H2  IMA d   1      18.919   7.912  30.298  0.00  0.00     0.083 H 
ATOM     12  H3  IMA d   1      20.312   6.456  28.844  0.00  0.00     0.087 H 
ATOM     13  H4  IMA d   1      20.317   5.802  33.821  0.00  0.00     0.084 H 
ATOM     14  H5  IMA d   1      22.355   3.666  33.162  0.00  0.00     0.088 H 
ENDROOT
BRANCH   9  15
ATOM     15  C21 IMA d   1      23.626   2.791  30.618  0.00  0.00     0.202 C 
ATOM     16  N22 IMA d   1      24.858   2.979  31.106  0.00  0.00    -0.362 N 
ATOM     17  H8  IMA d   1      25.146   3.866  31.468  0.00  0.00     0.162 HD
ATOM     18  O27 IMA d   1      23.466   1.793  29.620  0.00  0.00    -0.170 OA
BRANCH  16  19
ATOM     19  C23 IMA d   1      25.763   1.836  31.088  0.00  0.00     0.018 C 
ATOM     20  H9  IMA d   1      25.191   0.939  30.810  0.00  0.00     0.071 H 
ATOM     21  H10 IMA d   1      26.184   1.705  32.096  0.00  0.00     0.071 H 
BRANCH  19  22
ATOM     22  C24 IMA d   1      26.905   2.008  30.104  0.00  0.00    -0.040 A 
ATOM     23  C42 IMA d   1      27.971   1.107  30.249  0.00  0.00    -0.073 A 
ATOM     24  C41 IMA d   1      29.095   1.191  29.420  0.00  0.00    -0.049 A 
ATOM     25  H21 IMA d   1      27.923   0.338  31.011  0.00  0.00     0.084 H 
ATOM     26  C40 IMA d   1      29.151   2.158  28.384  0.00  0.00     0.135 A 
ATOM     27  H20 IMA d   1      29.928   0.513  29.570  0.00  0.00     0.086 H 
ATOM     28  C39 IMA d   1      28.069   3.093  28.270  0.00  0.00    -0.049 A 
ATOM     29  C43 IMA d   1      26.947   3.022  29.123  0.00  0.00    -0.073 A 
ATOM     30  H19 IMA d   1      28.114   3.869  27.514  0.00  0.00     0.086 H 
ATOM     31  H22 IMA d   1      26.134   3.732  29.027  0.00  0.00     0.084 H 
BRANCH  26  32
ATOM     32  N44 IMA d   1      30.284   2.127  27.463  0.00  0.00    -0.049 N 
BRANCH  32  33
ATOM     33  C45 IMA d   1      30.320   0.886  26.667  0.00  0.00     0.072 C 
ATOM     34  H23 IMA d   1      31.187   0.909  25.991  0.00  0.00     0.069 H 
ATOM     35  H24 IMA d   1      29.396   0.803  26.076  0.00  0.00     0.069 H 
ATOM     36  H25 IMA d   1      30.403   0.021  27.341  0.00  0.00     0.069 H 
ENDBRANCH  32  33
BRANCH  32  37
ATOM     37  C49 IMA d   1      31.580   2.206  28.156  0.00  0.00     0.072 C 
ATOM     38  H26 IMA d   1      31.612   3.118  28.770  0.00  0.00     0.069 H 
ATOM     39  H27 IMA d   1      32.392   2.235  27.414  0.00  0.00     0.069 H 
ATOM     40  H28 IMA d   1      31.705   1.324  28.802  0.00  0.00     0.069 H 
ENDBRANCH  32  37
BRANCH  32  41
ATOM     41  C53 IMA d   1      30.355   3.250  26.523  0.00  0.00     0.072 C 
ATOM     42  H29 IMA d   1      29.426   3.296  25.936  0.00  0.00     0.069 H 
ATOM     43  H30 IMA d   1      31.210   3.108  25.846  0.00  0.00     0.069 H 
ATOM     44  H31 IMA d   1      30.483   4.189  27.082  0.00  0.00     0.069 H 
ENDBRANCH  32  41
ENDBRANCH  26  32
ENDBRANCH  19  22
ENDBRANCH  16  19
ENDBRANCH   9  15
BRANCH   8  45
ATOM     45  C20 IMA d   1      22.111   4.121  28.567  0.00  0.00     0.024 C 
ATOM     46  H6  IMA d   1      23.040   3.558  28.394  0.00  0.00     0.072 H 
ATOM     47  H7  IMA d   1      22.138   5.058  27.991  0.00  0.00     0.072 H 
BRANCH  45  48
ATOM     48  C28 IMA d   1      20.947   3.301  28.119  0.00  0.00    -0.039 A 
ATOM     49  C32 IMA d   1      20.505   3.771  26.900  0.00  0.00    -0.062 A 
ATOM     50  C31 IMA d   1      19.569   3.077  26.163  0.00  0.00     0.007 A 
ATOM     51  H11 IMA d   1      20.901   4.703  26.514  0.00  0.00     0.085 H 
ATOM     52  C35 IMA d   1      19.019   1.867  26.669  0.00  0.00    -0.069 A 
ATOM     53  C34 IMA d   1      19.404   1.417  27.968  0.00  0.00    -0.082 A 
ATOM     54  H14 IMA d   1      18.316   1.294  26.076  0.00  0.00     0.085 H 
ATOM     55  C33 IMA d   1      20.372   2.146  28.728  0.00  0.00    -0.075 A 
ATOM     56  H13 IMA d   1      18.960   0.518  28.381  0.00  0.00     0.083 H 
ATOM     57  H12 IMA d   1      20.657   1.834  29.726  0.00  0.00     0.084 H 
BRANCH  50  58
ATOM     58  C36 IMA d   1      19.326   3.714  24.875  0.00  0.00     0.102 C 
ATOM     59  N38 IMA d   1      18.996   2.960  23.820  0.00  0.00    -0.385 N 
ATOM     60  H17 IMA d   1      18.865   1.945  23.933  0.00  0.00     0.157 HD
ATOM     61  H18 IMA d   1      18.873   3.395  22.894  0.00  0.00     0.157 HD
BRANCH  58  62
ATOM     62  N37 IMA d   1      19.502   5.039  24.751  0.00  0.00    -0.385 N 
ATOM     63  H15 IMA d   1      19.756   5.604  25.574  0.00  0.00     0.157 HD
ATOM     64  H16 IMA d   1      19.383   5.491  23.833  0.00  0.00     0.157 HD
ENDBRANCH  58  62
ENDBRANCH  50  58
ENDBRANCH  45  48
ENDBRANCH   8  45
TORSDOF 11
