REMARK  18 active torsions:
REMARK  status: ('A' for Active; 'I' for Inactive)
REMARK       I    between atoms: N18_18  and  C1_1 
REMARK    1  A    between atoms: C1_1  and  C17_17 
REMARK    2  A    between atoms: C17_17  and  C3_3 
REMARK    3  A    between atoms: C3_3  and  C4_4 
REMARK    4  A    between atoms: C4_4  and  C5_5 
REMARK       I    between atoms: N16_16  and  C8_8 
REMARK    5  A    between atoms: C8_8  and  C10_10 
REMARK    6  A    between atoms: C17_17  and  N16_16 
REMARK    7  A    between atoms: N18_18  and  C19_19 
REMARK    8  A    between atoms: C19_19  and  C22_22 
REMARK    9  A    between atoms: C19_19  and  C20_20 
REMARK       I    between atoms: C20_20  and  N36_36 
REMARK   10  A    between atoms: C22_22  and  C23_23 
REMARK   11  A    between atoms: C28_28  and  C29_29 
REMARK   12  A    between atoms: C29_29  and  P32_32 
REMARK   13  A    between atoms: N36_36  and  C37_37 
REMARK   14  A    between atoms: C37_37  and  C52_52 
REMARK   15  A    between atoms: C37_37  and  C38_38 
REMARK   16  A    between atoms: C38_38  and  C39_39 
REMARK   17  A    between atoms: C44_44  and  C45_45 
REMARK   18  A    between atoms: C45_45  and  P48_48 
REMARK       I    between atoms: C52_52  and  N54_54 
ROOT
ATOM      1  C19 NON d   1      -3.634  34.761  60.093  0.00  0.00     0.093 C 
ATOM      2  H13 NON d   1      -4.090  34.609  59.104  0.00  0.00     0.088 H 
ENDROOT
BRANCH   1   3
ATOM      3  N18 NON d   1      -3.714  33.500  60.867  0.00  0.00    -0.346 N 
ATOM      4  C1  NON d   1      -4.175  32.321  60.385  0.00  0.00     0.241 C 
ATOM      5  O2  NON d   1      -4.579  32.129  59.219  0.00  0.00    -0.271 OA
ATOM      6  H12 NON d   1      -3.404  33.521  61.818  0.00  0.00     0.163 HD
BRANCH   4   7
ATOM      7  C17 NON d   1      -4.101  31.158  61.388  0.00  0.00     0.090 C 
ATOM      8  H11 NON d   1      -4.415  30.220  60.907  0.00  0.00     0.087 H 
BRANCH   7   9
ATOM      9  N16 NON d   1      -2.643  31.087  61.714  0.00  0.00    -0.344 N 
ATOM     10  C8  NON d   1      -1.894  30.300  60.903  0.00  0.00     0.252 C 
ATOM     11  O9  NON d   1      -2.499  29.661  59.997  0.00  0.00    -0.268 OA
ATOM     12  H10 NON d   1      -2.245  31.589  62.482  0.00  0.00     0.163 HD
BRANCH  10  13
ATOM     13  C10 NON d   1      -0.421  30.178  61.007  0.00  0.00     0.032 A 
ATOM     14  C12 NON d   1       0.330  30.921  62.016  0.00  0.00    -0.068 A 
ATOM     15  C14 NON d   1       1.790  30.795  62.066  0.00  0.00    -0.082 A 
ATOM     16  H6  NON d   1      -0.188  31.560  62.722  0.00  0.00     0.085 H 
ATOM     17  C15 NON d   1       2.532  29.936  61.124  0.00  0.00    -0.083 A 
ATOM     18  H8  NON d   1       2.340  31.349  62.818  0.00  0.00     0.083 H 
ATOM     19  C13 NON d   1       1.794  29.180  60.110  0.00  0.00    -0.082 A 
ATOM     20  H9  NON d   1       3.612  29.865  61.182  0.00  0.00     0.083 H 
ATOM     21  C11 NON d   1       0.331  29.302  60.055  0.00  0.00    -0.068 A 
ATOM     22  H7  NON d   1       2.319  28.540  59.410  0.00  0.00     0.083 H 
ATOM     23  H5  NON d   1      -0.218  28.743  59.306  0.00  0.00     0.085 H 
ENDBRANCH  10  13
ENDBRANCH   7   9
BRANCH   7  24
ATOM     24  C3  NON d   1      -5.044  31.408  62.623  0.00  0.00    -0.029 C 
ATOM     25  H1  NON d   1      -4.769  32.364  63.093  0.00  0.00     0.037 H 
ATOM     26  H2  NON d   1      -4.907  30.591  63.346  0.00  0.00     0.037 H 
BRANCH  24  27
ATOM     27  C4  NON d   1      -6.562  31.466  62.200  0.00  0.00     0.018 C 
ATOM     28  H3  NON d   1      -6.717  30.756  61.374  0.00  0.00     0.049 H 
ATOM     29  H4  NON d   1      -6.784  32.486  61.853  0.00  0.00     0.049 H 
BRANCH  27  30
ATOM     30  C5  NON d   1      -7.558  31.113  63.337  0.00  0.00     0.172 C 
ATOM     31  O7  NON d   1      -7.809  31.918  64.298  0.00  0.00    -0.648 OA
ATOM     32  O6  NON d   1      -8.163  30.013  63.297  0.00  0.00    -0.648 OA
ENDBRANCH  27  30
ENDBRANCH  24  27
ENDBRANCH   7  24
ENDBRANCH   4   7
ENDBRANCH   1   3
BRANCH   1  33
ATOM     33  C22 NON d   1      -4.297  35.962  60.799  0.00  0.00    -0.014 C 
ATOM     34  H14 NON d   1      -3.836  36.880  60.405  0.00  0.00     0.043 H 
ATOM     35  H15 NON d   1      -4.085  35.878  61.875  0.00  0.00     0.043 H 
BRANCH  33  36
ATOM     36  C23 NON d   1      -5.772  36.086  60.634  0.00  0.00    -0.056 A 
ATOM     37  C26 NON d   1      -6.347  36.874  59.540  0.00  0.00    -0.076 A 
ATOM     38  C27 NON d   1      -7.813  36.982  59.431  0.00  0.00    -0.070 A 
ATOM     39  H18 NON d   1      -5.704  37.370  58.822  0.00  0.00     0.084 H 
ATOM     40  C28 NON d   1      -8.738  36.313  60.406  0.00  0.00     0.027 A 
ATOM     41  H19 NON d   1      -8.237  37.563  58.620  0.00  0.00     0.084 H 
ATOM     42  C25 NON d   1      -8.117  35.527  61.489  0.00  0.00    -0.070 A 
ATOM     43  C24 NON d   1      -6.662  35.424  61.588  0.00  0.00    -0.076 A 
ATOM     44  H17 NON d   1      -8.743  35.023  62.216  0.00  0.00     0.084 H 
ATOM     45  H16 NON d   1      -6.230  34.840  62.392  0.00  0.00     0.084 H 
BRANCH  40  46
ATOM     46  C29 NON d   1     -10.346  36.420  60.321  0.00  0.00     0.380 C 
ATOM     47  F31 NON d   1     -10.907  35.301  60.976  0.00  0.00    -0.185 F 
ATOM     48  F30 NON d   1     -10.752  36.343  58.969  0.00  0.00    -0.185 F 
BRANCH  46  49
ATOM     49  P32 NON d   1     -11.042  37.709  60.946  0.00  0.00     0.339 P 
ATOM     50  O35 NON d   1     -10.907  38.958  59.995  0.00  0.00    -0.635 OA
ATOM     51  O34 NON d   1     -10.380  38.058  62.327  0.00  0.00    -0.635 OA
ATOM     52  O33 NON d   1     -12.581  37.447  61.201  0.00  0.00    -0.635 OA
ENDBRANCH  46  49
ENDBRANCH  40  46
ENDBRANCH  33  36
ENDBRANCH   1  33
BRANCH   1  53
ATOM     53  C20 NON d   1      -2.175  35.148  59.966  0.00  0.00     0.241 C 
ATOM     54  N36 NON d   1      -1.760  35.590  58.799  0.00  0.00    -0.346 N 
ATOM     55  H20 NON d   1      -2.412  35.632  58.042  0.00  0.00     0.163 HD
ATOM     56  O21 NON d   1      -1.459  35.062  60.924  0.00  0.00    -0.271 OA
BRANCH  54  57
ATOM     57  C37 NON d   1      -0.390  36.021  58.566  0.00  0.00     0.093 C 
ATOM     58  H21 NON d   1       0.270  35.498  59.274  0.00  0.00     0.088 H 
BRANCH  57  59
ATOM     59  C52 NON d   1      -0.175  37.597  58.757  0.00  0.00     0.238 C 
ATOM     60  N54 NON d   1      -1.110  38.394  58.451  0.00  0.00    -0.368 N 
ATOM     61  H28 NON d   1      -0.985  39.379  58.567  0.00  0.00     0.159 HD
ATOM     62  H29 NON d   1      -1.974  38.038  58.093  0.00  0.00     0.159 HD
ATOM     63  O53 NON d   1       0.959  38.017  59.175  0.00  0.00    -0.271 OA
ENDBRANCH  57  59
BRANCH  57  64
ATOM     64  C38 NON d   1      -0.019  35.595  57.092  0.00  0.00    -0.014 C 
ATOM     65  H22 NON d   1      -0.741  36.070  56.411  0.00  0.00     0.043 H 
ATOM     66  H23 NON d   1      -0.114  34.501  57.023  0.00  0.00     0.043 H 
BRANCH  64  67
ATOM     67  C39 NON d   1       1.370  35.970  56.630  0.00  0.00    -0.056 A 
ATOM     68  C42 NON d   1       2.582  35.170  56.892  0.00  0.00    -0.076 A 
ATOM     69  C43 NON d   1       3.894  35.638  56.400  0.00  0.00    -0.070 A 
ATOM     70  H26 NON d   1       2.510  34.240  57.445  0.00  0.00     0.084 H 
ATOM     71  C44 NON d   1       3.986  36.915  55.645  0.00  0.00     0.027 A 
ATOM     72  H27 NON d   1       4.786  35.052  56.589  0.00  0.00     0.084 H 
ATOM     73  C41 NON d   1       2.752  37.671  55.417  0.00  0.00    -0.070 A 
ATOM     74  C40 NON d   1       1.489  37.193  55.904  0.00  0.00    -0.076 A 
ATOM     75  H25 NON d   1       2.793  38.607  54.871  0.00  0.00     0.084 H 
ATOM     76  H24 NON d   1       0.597  37.780  55.714  0.00  0.00     0.084 H 
BRANCH  71  77
ATOM     77  C45 NON d   1       5.315  37.493  55.083  0.00  0.00     0.380 C 
ATOM     78  F47 NON d   1       6.223  37.454  56.095  0.00  0.00    -0.185 F 
ATOM     79  F46 NON d   1       5.128  38.879  54.798  0.00  0.00    -0.185 F 
BRANCH  77  80
ATOM     80  P48 NON d   1       5.928  36.728  53.741  0.00  0.00     0.339 P 
ATOM     81  O51 NON d   1       7.328  37.263  53.405  0.00  0.00    -0.635 OA
ATOM     82  O50 NON d   1       5.041  36.911  52.457  0.00  0.00    -0.635 OA
ATOM     83  O49 NON d   1       6.069  35.209  53.985  0.00  0.00    -0.635 OA
ENDBRANCH  77  80
ENDBRANCH  71  77
ENDBRANCH  64  67
ENDBRANCH  57  64
ENDBRANCH  54  57
ENDBRANCH   1  53
TORSDOF 18
