REMARK  15 active torsions:
REMARK  status: ('A' for Active; 'I' for Inactive)
REMARK    1  A    between atoms: AP_1  and  AO5_4 
REMARK    2  A    between atoms: AP_1  and  C3_23 
REMARK    3  A    between atoms: AO5_4  and  AC5_5 
REMARK    4  A    between atoms: AC5_5  and  AC4_6 
REMARK    5  A    between atoms: AC3_8  and  AO3_9 
REMARK    6  A    between atoms: AC2_10  and  AO2_11 
REMARK    7  A    between atoms: AC1_12  and  AN9_13 
REMARK    8  A    between atoms: C3_23  and  NP_24 
REMARK    9  A    between atoms: NP_24  and  NO5_27 
REMARK   10  A    between atoms: NO5_27  and  NC5_28 
REMARK   11  A    between atoms: NC5_28  and  NC4_29 
REMARK   12  A    between atoms: NC3_31  and  NO3_32 
REMARK   13  A    between atoms: NC2_33  and  NO2_34 
REMARK   14  A    between atoms: NC1_35  and  NC2_36 
REMARK   15  A    between atoms: NC4_38  and  NC6_41 
REMARK       I    between atoms: NC6_41  and  NN6_43 
ROOT
ATOM      1  AP  TAD d   1     -34.925  41.678  40.701  0.00  0.00     0.261 P 
ATOM      2  AO1 TAD d   1     -36.319  41.535  41.182  0.00  0.00    -0.646 OA
ATOM      3  AO2 TAD d   1     -34.306  42.982  41.142  0.00  0.00    -0.646 OA
ENDROOT
BRANCH   1   4
ATOM      4  AO5 TAD d   1     -34.845  41.581  39.108  0.00  0.00    -0.309 OA
BRANCH   4   5
ATOM      5  AC5 TAD d   1     -35.339  40.503  38.353  0.00  0.00     0.056 C 
ATOM      6  H1  TAD d   1     -36.038  39.907  38.958  0.00  0.00     0.079 H 
ATOM      7  H2  TAD d   1     -34.508  39.865  38.018  0.00  0.00     0.079 H 
BRANCH   5   8
ATOM      8  AC4 TAD d   1     -36.031  41.068  37.201  0.00  0.00     0.089 C 
ATOM      9  AO4 TAD d   1     -37.410  41.405  37.183  0.00  0.00    -0.353 OA
ATOM     10  AC1 TAD d   1     -37.653  42.763  36.789  0.00  0.00     0.139 C 
ATOM     11  AC2 TAD d   1     -36.294  43.459  36.632  0.00  0.00     0.105 C 
ATOM     12  H8  TAD d   1     -38.146  42.759  35.806  0.00  0.00     0.122 H 
ATOM     13  AC3 TAD d   1     -35.315  42.322  36.651  0.00  0.00     0.091 C 
ATOM     14  H6  TAD d   1     -36.139  44.090  37.520  0.00  0.00     0.093 H 
ATOM     15  H4  TAD d   1     -34.475  42.576  37.314  0.00  0.00     0.091 H 
ATOM     16  H3  TAD d   1     -35.931  40.281  36.439  0.00  0.00     0.090 H 
BRANCH  10  17
ATOM     17  AN9 TAD d   1     -38.533  43.404  37.699  0.00  0.00    -0.294 N 
ATOM     18  AC8 TAD d   1     -38.415  43.556  39.056  0.00  0.00     0.071 A 
ATOM     19  AN7 TAD d   1     -39.439  44.210  39.597  0.00  0.00    -0.236 NA
ATOM     20  H9  TAD d   1     -37.570  43.180  39.632  0.00  0.00     0.144 H 
ATOM     21  AC5 TAD d   1     -40.188  44.454  38.545  0.00  0.00     0.149 A 
ATOM     22  AC6 TAD d   1     -41.417  45.132  38.560  0.00  0.00     0.155 A 
ATOM     23  AC4 TAD d   1     -39.647  43.965  37.338  0.00  0.00     0.167 A 
ATOM     24  AN6 TAD d   1     -41.946  45.596  39.680  0.00  0.00    -0.382 N 
ATOM     25  AN1 TAD d   1     -42.034  45.281  37.337  0.00  0.00    -0.222 NA
ATOM     26  H10 TAD d   1     -42.850  46.089  39.657  0.00  0.00     0.157 HD
ATOM     27  H11 TAD d   1     -41.454  45.464  40.575  0.00  0.00     0.157 HD
ATOM     28  AC2 TAD d   1     -41.505  44.806  36.160  0.00  0.00     0.091 A 
ATOM     29  AN3 TAD d   1     -40.338  44.162  36.170  0.00  0.00    -0.222 NA
ATOM     30  H12 TAD d   1     -42.036  44.955  35.227  0.00  0.00     0.146 H 
ENDBRANCH  10  17
BRANCH  11  31
ATOM     31  AO2 TAD d   1     -36.064  44.297  35.501  0.00  0.00    -0.388 OA
ATOM     32  H7  TAD d   1     -36.166  43.788  34.705  0.00  0.00     0.210 HD
ENDBRANCH  11  31
BRANCH  13  33
ATOM     33  AO3 TAD d   1     -34.803  42.088  35.321  0.00  0.00    -0.390 OA
ATOM     34  H5  TAD d   1     -34.369  42.873  35.008  0.00  0.00     0.210 HD
ENDBRANCH  13  33
ENDBRANCH   5   8
ENDBRANCH   4   5
ENDBRANCH   1   4
BRANCH   1  35
ATOM     35  C3  TAD d   1     -33.921  40.391  41.112  0.00  0.00     0.127 C 
ATOM     36  H13 TAD d   1     -34.508  39.511  40.811  0.00  0.00     0.072 H 
ATOM     37  H14 TAD d   1     -33.881  40.447  42.210  0.00  0.00     0.072 H 
BRANCH  35  38
ATOM     38  NP  TAD d   1     -32.334  39.957  40.691  0.00  0.00     0.261 P 
ATOM     39  NO1 TAD d   1     -31.674  41.275  40.756  0.00  0.00    -0.646 OA
ATOM     40  NO2 TAD d   1     -32.388  39.279  39.364  0.00  0.00    -0.646 OA
BRANCH  38  41
ATOM     41  NO5 TAD d   1     -31.703  39.035  41.831  0.00  0.00    -0.309 OA
BRANCH  41  42
ATOM     42  NC5 TAD d   1     -32.062  37.654  42.086  0.00  0.00     0.056 C 
ATOM     43  H15 TAD d   1     -31.837  37.047  41.197  0.00  0.00     0.079 H 
ATOM     44  H16 TAD d   1     -33.137  37.591  42.310  0.00  0.00     0.079 H 
BRANCH  42  45
ATOM     45  NC4 TAD d   1     -31.254  37.119  43.291  0.00  0.00     0.087 A 
ATOM     46  NO4 TAD d   1     -29.860  36.791  43.051  0.00  0.00    -0.366 OA
ATOM     47  NC1 TAD d   1     -29.061  37.623  43.931  0.00  0.00     0.114 A 
ATOM     48  NC2 TAD d   1     -29.907  38.537  44.744  0.00  0.00     0.093 A 
ATOM     49  H22 TAD d   1     -28.621  36.938  44.670  0.00  0.00     0.098 H 
ATOM     50  NC3 TAD d   1     -31.315  38.175  44.354  0.00  0.00     0.090 A 
ATOM     51  H20 TAD d   1     -29.721  39.562  44.392  0.00  0.00     0.091 H 
ATOM     52  H18 TAD d   1     -31.855  39.062  43.989  0.00  0.00     0.091 H 
ATOM     53  H17 TAD d   1     -31.751  36.206  43.651  0.00  0.00     0.090 H 
BRANCH  47  54
ATOM     54  NC2 TAD d   1     -27.884  38.185  43.203  0.00  0.00     0.107 A 
ATOM     55  NN3 TAD d   1     -27.049  39.040  43.776  0.00  0.00    -0.237 NA
ATOM     56  NC4 TAD d   1     -26.076  39.356  42.908  0.00  0.00     0.131 A 
ATOM     57  NC5 TAD d   1     -26.145  38.753  41.700  0.00  0.00    -0.010 A 
ATOM     58  NS1 TAD d   1     -27.512  37.709  41.597  0.00  0.00    -0.081 SA
ATOM     59  H23 TAD d   1     -25.428  38.907  40.895  0.00  0.00     0.099 H 
BRANCH  56  60
ATOM     60  NC6 TAD d   1     -25.023  40.324  43.339  0.00  0.00     0.268 C 
ATOM     61  NO6 TAD d   1     -24.084  40.679  42.631  0.00  0.00    -0.266 OA
ATOM     62  NN6 TAD d   1     -25.206  40.773  44.582  0.00  0.00    -0.365 N 
ATOM     63  H24 TAD d   1     -24.561  41.427  44.977  0.00  0.00     0.159 HD
ATOM     64  H25 TAD d   1     -25.988  40.455  45.118  0.00  0.00     0.159 HD
ENDBRANCH  56  60
ENDBRANCH  47  54
BRANCH  48  65
ATOM     65  NO2 TAD d   1     -29.628  38.564  46.122  0.00  0.00    -0.390 OA
ATOM     66  H21 TAD d   1     -29.789  37.705  46.493  0.00  0.00     0.210 HD
ENDBRANCH  48  65
BRANCH  50  67
ATOM     67  NO3 TAD d   1     -31.973  37.620  45.493  0.00  0.00    -0.390 OA
ATOM     68  H19 TAD d   1     -32.022  38.275  46.179  0.00  0.00     0.210 HD
ENDBRANCH  50  67
ENDBRANCH  42  45
ENDBRANCH  41  42
ENDBRANCH  38  41
ENDBRANCH  35  38
ENDBRANCH   1  35
TORSDOF 15
