REMARK  12 active torsions:
REMARK  status: ('A' for Active; 'I' for Inactive)
REMARK    1  A    between atoms: C1_1  and  S1_2 
REMARK    2  A    between atoms: S1_2  and  C1'_13 
REMARK    3  A    between atoms: C2_3  and  O2_4 
REMARK    4  A    between atoms: C3_5  and  O3_6 
REMARK    5  A    between atoms: C4_7  and  O4_8 
REMARK    6  A    between atoms: C5_9  and  C6_11 
REMARK    7  A    between atoms: C6_11  and  O6_12 
REMARK    8  A    between atoms: C2'_14  and  O2'_15 
REMARK    9  A    between atoms: C3'_16  and  O3'_17 
REMARK   10  A    between atoms: C4'_18  and  O4'_19 
REMARK   11  A    between atoms: C5'_20  and  C6'_22 
REMARK   12  A    between atoms: C6'_22  and  O6'_23 
ROOT
ATOM      1  S1  TDG d   1      25.614  -5.232  -0.035  0.00  0.00    -0.100 SA
ENDROOT
BRANCH   1   2
ATOM      2  C1  TDG d   1      23.831  -5.132  -0.419  0.00  0.00     0.112 C 
ATOM      3  O5  TDG d   1      23.126  -4.924   0.814  0.00  0.00    -0.363 OA
ATOM      4  C5  TDG d   1      21.721  -4.795   0.642  0.00  0.00     0.087 C 
ATOM      5  C4  TDG d   1      21.166  -6.094   0.076  0.00  0.00     0.089 C 
ATOM      6  H8  TDG d   1      21.505  -3.982  -0.067  0.00  0.00     0.090 H 
ATOM      7  C3  TDG d   1      21.872  -6.424  -1.246  0.00  0.00     0.090 C 
ATOM      8  H6  TDG d   1      20.088  -5.977  -0.112  0.00  0.00     0.091 H 
ATOM      9  C2  TDG d   1      23.385  -6.443  -1.003  0.00  0.00     0.096 C 
ATOM     10  H4  TDG d   1      21.605  -5.681  -2.012  0.00  0.00     0.091 H 
ATOM     11  H2  TDG d   1      23.604  -7.228  -0.265  0.00  0.00     0.092 H 
ATOM     12  H1  TDG d   1      23.633  -4.310  -1.123  0.00  0.00     0.104 H 
BRANCH   4  13
ATOM     13  C6  TDG d   1      21.135  -4.436   2.003  0.00  0.00     0.043 C 
ATOM     14  H9  TDG d   1      21.302  -5.262   2.710  0.00  0.00     0.078 H 
ATOM     15  H10 TDG d   1      20.055  -4.248   1.906  0.00  0.00     0.078 H 
BRANCH  13  16
ATOM     16  O6  TDG d   1      21.783  -3.271   2.468  0.00  0.00    -0.398 OA
ATOM     17  H11 TDG d   1      22.715  -3.438   2.547  0.00  0.00     0.209 HD
ENDBRANCH  13  16
ENDBRANCH   4  13
BRANCH   5  18
ATOM     18  O4  TDG d   1      21.364  -7.144   1.020  0.00  0.00    -0.390 OA
ATOM     19  H7  TDG d   1      21.018  -7.955   0.667  0.00  0.00     0.210 HD
ENDBRANCH   5  18
BRANCH   7  20
ATOM     20  O3  TDG d   1      21.531  -7.738  -1.681  0.00  0.00    -0.390 OA
ATOM     21  H5  TDG d   1      21.976  -7.925  -2.499  0.00  0.00     0.210 HD
ENDBRANCH   7  20
BRANCH   9  22
ATOM     22  O2  TDG d   1      24.064  -6.773  -2.189  0.00  0.00    -0.389 OA
ATOM     23  H3  TDG d   1      23.864  -6.128  -2.857  0.00  0.00     0.210 HD
ENDBRANCH   9  22
ENDBRANCH   1   2
BRANCH   1  24
ATOM     24  C1' TDG d   1      25.875  -3.587   0.642  0.00  0.00     0.112 C 
ATOM     25  O5' TDG d   1      25.608  -2.646  -0.403  0.00  0.00    -0.363 OA
ATOM     26  C5' TDG d   1      25.598  -1.308   0.122  0.00  0.00     0.087 C 
ATOM     27  C4' TDG d   1      27.065  -1.000   0.597  0.00  0.00     0.089 C 
ATOM     28  H19 TDG d   1      24.949  -1.279   1.010  0.00  0.00     0.090 H 
ATOM     29  C3' TDG d   1      27.523  -2.055   1.676  0.00  0.00     0.090 C 
ATOM     30  H17 TDG d   1      27.098   0.009   1.033  0.00  0.00     0.091 H 
ATOM     31  C2' TDG d   1      27.325  -3.444   1.101  0.00  0.00     0.096 C 
ATOM     32  H15 TDG d   1      26.901  -1.939   2.576  0.00  0.00     0.091 H 
ATOM     33  H13 TDG d   1      27.974  -3.558   0.221  0.00  0.00     0.092 H 
ATOM     34  H12 TDG d   1      25.198  -3.414   1.491  0.00  0.00     0.104 H 
BRANCH  26  35
ATOM     35  C6' TDG d   1      24.989  -0.345  -0.907  0.00  0.00     0.043 C 
ATOM     36  H20 TDG d   1      25.587  -0.363  -1.830  0.00  0.00     0.078 H 
ATOM     37  H21 TDG d   1      24.978   0.676  -0.497  0.00  0.00     0.078 H 
BRANCH  35  38
ATOM     38  O6' TDG d   1      23.666  -0.760  -1.188  0.00  0.00    -0.398 OA
ATOM     39  H22 TDG d   1      23.680  -1.642  -1.540  0.00  0.00     0.209 HD
ENDBRANCH  35  38
ENDBRANCH  26  35
BRANCH  27  40
ATOM     40  O4' TDG d   1      27.963  -1.072  -0.502  0.00  0.00    -0.390 OA
ATOM     41  H18 TDG d   1      27.709  -0.435  -1.159  0.00  0.00     0.210 HD
ENDBRANCH  27  40
BRANCH  29  42
ATOM     42  O3' TDG d   1      28.889  -1.881   2.037  0.00  0.00    -0.390 OA
ATOM     43  H16 TDG d   1      29.129  -2.531   2.686  0.00  0.00     0.210 HD
ENDBRANCH  29  42
BRANCH  31  44
ATOM     44  O2' TDG d   1      27.707  -4.417   2.049  0.00  0.00    -0.389 OA
ATOM     45  H14 TDG d   1      28.623  -4.298   2.272  0.00  0.00     0.210 HD
ENDBRANCH  31  44
ENDBRANCH   1  24
TORSDOF 12
