REMARK  8 active torsions:
REMARK  status: ('A' for Active; 'I' for Inactive)
REMARK    1  A    between atoms: C1_1  and  O1_14 
REMARK    2  A    between atoms: C2_2  and  O2_15 
REMARK    3  A    between atoms: C3_3  and  O3_16 
REMARK    4  A    between atoms: C4_4  and  O4_17 
REMARK    5  A    between atoms: C5_5  and  C6_6 
REMARK    6  A    between atoms: C6_6  and  O6_19 
REMARK    7  A    between atoms: O1_14  and  C7_7 
REMARK    8  A    between atoms: C9_9  and  N1_13 
ROOT
ATOM      1  C1  GAA d   1      11.194  23.241  -4.154  0.00  0.00     0.164 C 
ATOM      2  C2  GAA d   1      10.024  24.003  -3.465  0.00  0.00     0.110 C 
ATOM      3  C3  GAA d   1      10.033  23.817  -1.945  0.00  0.00     0.092 C 
ATOM      4  C4  GAA d   1      10.111  22.319  -1.586  0.00  0.00     0.090 C 
ATOM      5  C5  GAA d   1      11.344  21.702  -2.293  0.00  0.00     0.089 C 
ATOM      6  O5  GAA d   1      11.254  21.845  -3.761  0.00  0.00    -0.348 OA
ATOM      7  H1  GAA d   1      11.052  23.271  -5.244  0.00  0.00     0.134 H 
ATOM      8  H2  GAA d   1       9.086  23.594  -3.869  0.00  0.00     0.094 H 
ATOM      9  H3  GAA d   1      10.885  24.347  -1.494  0.00  0.00     0.091 H 
ATOM     10  H4  GAA d   1      10.252  22.231  -0.499  0.00  0.00     0.091 H 
ATOM     11  H5  GAA d   1      12.246  22.222  -1.939  0.00  0.00     0.090 H 
ENDROOT
BRANCH   1  12
ATOM     12  O1  GAA d   1      12.355  23.976  -3.822  0.00  0.00    -0.318 OA
BRANCH  12  13
ATOM     13  C7  GAA d   1      13.535  23.556  -4.485  0.00  0.00     0.074 A 
ATOM     14  C12 GAA d   1      13.885  24.208  -5.649  0.00  0.00    -0.051 A 
ATOM     15  C11 GAA d   1      15.049  23.792  -6.294  0.00  0.00    -0.078 A 
ATOM     16  H11 GAA d   1      13.278  25.013  -6.047  0.00  0.00     0.087 H 
ATOM     17  C10 GAA d   1      15.798  22.737  -5.747  0.00  0.00    -0.051 A 
ATOM     18  H10 GAA d   1      15.373  24.277  -7.208  0.00  0.00     0.083 H 
ATOM     19  C9  GAA d   1      15.407  22.083  -4.540  0.00  0.00     0.105 A 
ATOM     20  H9  GAA d   1      16.698  22.410  -6.256  0.00  0.00     0.087 H 
ATOM     21  C8  GAA d   1      14.239  22.518  -3.904  0.00  0.00    -0.019 A 
ATOM     22  H8  GAA d   1      13.897  22.056  -2.985  0.00  0.00     0.091 H 
BRANCH  19  23
ATOM     23  N1  GAA d   1      16.191  20.980  -3.989  0.00  0.00    -0.116 N 
ATOM     24  O8  GAA d   1      15.855  20.408  -2.932  0.00  0.00    -0.532 OA
ATOM     25  O7  GAA d   1      17.226  20.560  -4.547  0.00  0.00    -0.532 OA
ENDBRANCH  19  23
ENDBRANCH  12  13
ENDBRANCH   1  12
BRANCH   2  26
ATOM     26  O2  GAA d   1      10.034  25.404  -3.683  0.00  0.00    -0.388 OA
ATOM     27  H12 GAA d   1      10.843  25.770  -3.345  0.00  0.00     0.210 HD
ENDBRANCH   2  26
BRANCH   5  28
ATOM     28  C6  GAA d   1      11.457  20.260  -1.969  0.00  0.00     0.043 C 
ATOM     29  H6  GAA d   1      10.570  19.722  -2.335  0.00  0.00     0.078 H 
ATOM     30  H7  GAA d   1      11.545  20.125  -0.881  0.00  0.00     0.078 H 
BRANCH  28  31
ATOM     31  O6  GAA d   1      12.612  19.772  -2.608  0.00  0.00    -0.398 OA
ATOM     32  H15 GAA d   1      12.530  19.896  -3.546  0.00  0.00     0.209 HD
ENDBRANCH  28  31
ENDBRANCH   5  28
BRANCH   3  33
ATOM     33  O3  GAA d   1       8.835  24.364  -1.515  0.00  0.00    -0.390 OA
ATOM     34  H13 GAA d   1       8.802  25.282  -1.758  0.00  0.00     0.210 HD
ENDBRANCH   3  33
BRANCH   4  35
ATOM     35  O4  GAA d   1       8.920  21.621  -1.928  0.00  0.00    -0.390 OA
ATOM     36  H14 GAA d   1       8.186  22.000  -1.458  0.00  0.00     0.210 HD
ENDBRANCH   4  35
TORSDOF 8
