REMARK  6 active torsions:
REMARK  status: ('A' for Active; 'I' for Inactive)
REMARK    1  A    between atoms: C10_12  and  N9_1 
REMARK    2  A    between atoms: C11_13  and  C10_12 
REMARK    3  A    between atoms: C11_13  and  C12_14 
REMARK    4  A    between atoms: O13_15  and  C11_13 
REMARK    5  A    between atoms: C14_17  and  O13_15 
REMARK    6  A    between atoms: C14_17  and  P_16 
ROOT
ATOM      1  C10 9PP d   1     -40.248  -7.779 222.058  0.00  0.00     0.026 C 
ATOM      2  H6  9PP d   1     -41.279  -7.660 222.423  0.00  0.00     0.068 H 
ATOM      3  H7  9PP d   1     -39.879  -6.814 221.680  0.00  0.00     0.068 H 
ENDROOT
BRANCH   1   4
ATOM      4  N9  9PP d   1     -40.274  -8.683 220.979  0.00  0.00    -0.322 N 
ATOM      5  C8  9PP d   1     -39.192  -9.118 220.204  0.00  0.00     0.068 A 
ATOM      6  N7  9PP d   1     -39.614  -9.963 219.248  0.00  0.00    -0.236 NA
ATOM      7  H1  9PP d   1     -38.157  -8.815 220.354  0.00  0.00     0.143 H 
ATOM      8  C5  9PP d   1     -41.001 -10.090 219.389  0.00  0.00     0.149 A 
ATOM      9  C6  9PP d   1     -42.015 -10.863 218.641  0.00  0.00     0.158 A 
ATOM     10  C4  9PP d   1     -41.430  -9.294 220.476  0.00  0.00     0.167 A 
ATOM     11  N6  9PP d   1     -41.831 -11.621 217.656  0.00  0.00    -0.382 N 
ATOM     12  N1  9PP d   1     -43.352 -10.679 219.148  0.00  0.00    -0.194 NA
ATOM     13  H2  9PP d   1     -42.630 -12.105 217.222  0.00  0.00     0.157 HD
ATOM     14  H3  9PP d   1     -40.881 -11.758 217.282  0.00  0.00     0.157 HD
ATOM     15  C2  9PP d   1     -43.672  -9.854 220.247  0.00  0.00     0.225 A 
ATOM     16  N2  9PP d   1     -44.963  -9.762 220.622  0.00  0.00    -0.368 N 
ATOM     17  N3  9PP d   1     -42.725  -9.136 220.950  0.00  0.00    -0.193 NA
ATOM     18  H4  9PP d   1     -45.686 -10.289 220.112  0.00  0.00     0.159 HD
ATOM     19  H5  9PP d   1     -45.227  -9.165 221.419  0.00  0.00     0.159 HD
ENDBRANCH   1   4
BRANCH   1  20
ATOM     20  C11 9PP d   1     -39.367  -8.183 223.258  0.00  0.00     0.051 C 
ATOM     21  H8  9PP d   1     -38.361  -8.472 222.918  0.00  0.00     0.085 H 
BRANCH  20  22
ATOM     22  C12 9PP d   1     -40.060  -9.357 223.956  0.00  0.00    -0.051 C 
ATOM     23  H9  9PP d   1     -39.460  -9.675 224.821  0.00  0.00     0.030 H 
ATOM     24  H10 9PP d   1     -40.160 -10.195 223.251  0.00  0.00     0.030 H 
ATOM     25  H11 9PP d   1     -41.058  -9.043 224.297  0.00  0.00     0.030 H 
ENDBRANCH  20  22
BRANCH  20  26
ATOM     26  O13 9PP d   1     -39.282  -7.065 224.200  0.00  0.00    -0.371 OA
BRANCH  26  27
ATOM     27  C14 9PP d   1     -38.209  -6.112 223.881  0.00  0.00     0.122 C 
ATOM     28  H12 9PP d   1     -38.196  -5.953 222.793  0.00  0.00     0.095 H 
ATOM     29  H13 9PP d   1     -37.250  -6.547 224.200  0.00  0.00     0.095 H 
BRANCH  27  30
ATOM     30  P   9PP d   1     -38.382  -4.729 224.581  0.00  0.00     0.283 P 
ATOM     31  O1P 9PP d   1     -38.325  -4.875 226.051  0.00  0.00    -0.638 OA
ATOM     32  O3P 9PP d   1     -39.709  -4.088 224.238  0.00  0.00    -0.638 OA
ATOM     33  O2P 9PP d   1     -37.331  -3.799 224.126  0.00  0.00    -0.638 OA
ENDBRANCH  27  30
ENDBRANCH  26  27
ENDBRANCH  20  26
ENDBRANCH   1  20
TORSDOF 6
