REMARK  12 active torsions:
REMARK  status: ('A' for Active; 'I' for Inactive)
REMARK    1  A    between atoms: O3B_8  and  PG_1 
REMARK    2  A    between atoms: PB_5  and  O3B_8 
REMARK    3  A    between atoms: O3A_12  and  PB_5 
REMARK    4  A    between atoms: PA_9  and  O3A_12 
REMARK    5  A    between atoms: PA_9  and  O5_13 
REMARK    6  A    between atoms: O5_13  and  C5_14 
REMARK    7  A    between atoms: C5_14  and  C4_15 
REMARK    8  A    between atoms: C3_17  and  O3_18 
REMARK    9  A    between atoms: O3_18  and  C'_31 
REMARK   10  A    between atoms: C1_20  and  N9_21 
REMARK   11  A    between atoms: C6_25  and  N6_26 
REMARK   12  A    between atoms: C'_31  and  C1'_33 
ROOT
ATOM      1  C4  DOT d   1      33.071  66.049  42.026  0.00  0.00     0.087 C 
ATOM      2  O4  DOT d   1      34.189  66.263  41.099  0.00  0.00    -0.356 OA
ATOM      3  C3  DOT d   1      33.375  64.604  42.715  0.00  0.00     0.079 C 
ATOM      4  C2  DOT d   1      34.673  64.295  42.231  0.00  0.00     0.003 C 
ATOM      5  C1  DOT d   1      35.011  65.161  41.006  0.00  0.00     0.115 C 
ATOM      6  H3  DOT d   1      32.109  65.983  41.496  0.00  0.00     0.090 H 
ATOM      7  H4  DOT d   1      33.484  64.794  43.793  0.00  0.00     0.088 H 
ATOM      8  H5  DOT d   1      34.710  63.233  41.945  0.00  0.00     0.043 H 
ATOM      9  H6  DOT d   1      35.410  64.487  43.024  0.00  0.00     0.043 H 
ATOM     10  H7  DOT d   1      34.706  64.564  40.134  0.00  0.00     0.118 H 
ENDROOT
BRANCH   1  11
ATOM     11  C5  DOT d   1      33.071  67.371  42.910  0.00  0.00     0.058 C 
ATOM     12  H1  DOT d   1      32.231  68.014  42.609  0.00  0.00     0.079 H 
ATOM     13  H2  DOT d   1      32.966  67.103  43.972  0.00  0.00     0.079 H 
BRANCH  11  14
ATOM     14  O5  DOT d   1      34.256  68.043  42.720  0.00  0.00    -0.287 OA
BRANCH  14  15
ATOM     15  PA  DOT d   1      34.690  69.086  43.904  0.00  0.00     0.417 P 
ATOM     16  O1A DOT d   1      35.958  69.721  43.122  0.00  0.00    -0.624 OA
ATOM     17  O2A DOT d   1      34.702  68.319  45.240  0.00  0.00    -0.624 OA
BRANCH  15  18
ATOM     18  O3A DOT d   1      33.548  70.190  44.166  0.00  0.00    -0.180 OA
BRANCH  18  19
ATOM     19  PB  DOT d   1      32.888  71.418  43.134  0.00  0.00     0.428 P 
ATOM     20  O1B DOT d   1      32.282  70.857  41.979  0.00  0.00    -0.624 OA
ATOM     21  O2B DOT d   1      33.996  72.506  42.873  0.00  0.00    -0.624 OA
BRANCH  19  22
ATOM     22  O3B DOT d   1      31.696  72.006  44.125  0.00  0.00    -0.173 OA
BRANCH  22  23
ATOM     23  PG  DOT d   1      31.490  73.695  44.636  0.00  0.00     0.431 P 
ATOM     24  O1G DOT d   1      30.865  74.430  43.519  0.00  0.00    -0.616 OA
ATOM     25  O2G DOT d   1      30.650  73.825  45.828  0.00  0.00    -0.616 OA
ATOM     26  O3G DOT d   1      32.908  74.255  44.958  0.00  0.00    -0.616 OA
ENDBRANCH  22  23
ENDBRANCH  19  22
ENDBRANCH  18  19
ENDBRANCH  15  18
ENDBRANCH  14  15
ENDBRANCH  11  14
ENDBRANCH   1  11
BRANCH   3  27
ATOM     27  O3  DOT d   1      32.301  63.521  42.658  0.00  0.00    -0.309 OA
BRANCH  27  28
ATOM     28  C'  DOT d   1      31.437  63.188  43.717  0.00  0.00     0.296 C 
ATOM     29  O1' DOT d   1      32.005  62.244  44.372  0.00  0.00    -0.259 OA
BRANCH  28  30
ATOM     30  C1' DOT d   1      29.892  63.053  43.574  0.00  0.00     0.065 A 
ATOM     31  C2' DOT d   1      29.343  62.637  45.126  0.00  0.00     0.042 A 
ATOM     32  N2' DOT d   1      30.369  61.750  45.258  0.00  0.00    -0.398 N 
ATOM     33  C3' DOT d   1      28.121  63.875  45.161  0.00  0.00    -0.057 A 
ATOM     34  H12 DOT d   1      30.465  61.199  46.123  0.00  0.00     0.156 HD
ATOM     35  H13 DOT d   1      31.048  61.631  44.493  0.00  0.00     0.156 HD
ATOM     36  C4' DOT d   1      27.684  64.900  44.232  0.00  0.00    -0.081 A 
ATOM     37  H14 DOT d   1      27.558  63.882  46.087  0.00  0.00     0.086 H 
ATOM     38  C5' DOT d   1      28.320  65.011  42.888  0.00  0.00    -0.082 A 
ATOM     39  H15 DOT d   1      26.894  65.586  44.515  0.00  0.00     0.083 H 
ATOM     40  C6' DOT d   1      29.388  64.048  42.574  0.00  0.00    -0.065 A 
ATOM     41  H16 DOT d   1      28.010  65.766  42.175  0.00  0.00     0.083 H 
ATOM     42  H17 DOT d   1      29.826  64.059  41.583  0.00  0.00     0.085 H 
ENDBRANCH  28  30
ENDBRANCH  27  28
ENDBRANCH   3  27
BRANCH   5  43
ATOM     43  N9  DOT d   1      36.447  65.678  40.660  0.00  0.00    -0.296 N 
ATOM     44  C8  DOT d   1      37.019  66.976  40.343  0.00  0.00     0.070 A 
ATOM     45  N7  DOT d   1      38.447  67.011  40.043  0.00  0.00    -0.239 NA
ATOM     46  H8  DOT d   1      36.411  67.879  40.330  0.00  0.00     0.144 H 
ATOM     47  C5  DOT d   1      38.754  65.669  40.165  0.00  0.00     0.137 A 
ATOM     48  C6  DOT d   1      40.002  64.990  39.810  0.00  0.00     0.221 C 
ATOM     49  C4  DOT d   1      37.574  64.840  40.557  0.00  0.00     0.163 A 
ATOM     50  N1  DOT d   1      39.989  63.591  40.094  0.00  0.00    -0.240 NA
ATOM     51  C2  DOT d   1      38.789  62.968  40.553  0.00  0.00     0.087 C 
ATOM     52  N3  DOT d   1      37.532  63.492  40.780  0.00  0.00    -0.222 NA
ATOM     53  H11 DOT d   1      38.880  61.907  40.757  0.00  0.00     0.146 H 
BRANCH  48  54
ATOM     54  N6  DOT d   1      40.630  65.081  38.612  0.00  0.00    -0.395 N 
ATOM     55  H9  DOT d   1      41.507  64.566  38.450  0.00  0.00     0.152 HD
ATOM     56  H10 DOT d   1      40.230  65.665  37.864  0.00  0.00     0.152 HD
ENDBRANCH  48  54
ENDBRANCH   5  43
TORSDOF 12
