REMARK  12 active torsions:
REMARK  status: ('A' for Active; 'I' for Inactive)
REMARK    1  A    between atoms: PB_1  and  O3B_4 
REMARK    2  A    between atoms: O3A_8  and  PB_1 
REMARK    3  A    between atoms: O3B_4  and  BE_37 
REMARK    4  A    between atoms: PA_5  and  O3A_8 
REMARK    5  A    between atoms: PA_5  and  O5_9 
REMARK    6  A    between atoms: O5_9  and  C5_10 
REMARK    7  A    between atoms: C5_10  and  C4_11 
REMARK    8  A    between atoms: C3_13  and  O3_14 
REMARK    9  A    between atoms: O3_14  and  C'_27 
REMARK   10  A    between atoms: C1_16  and  N9_17 
REMARK   11  A    between atoms: C'_27  and  C1'_29 
REMARK   12  A    between atoms: N2'_31  and  CM'_32 
ROOT
ATOM      1  C4  MNT d   1      40.159  57.242  21.711  0.00  0.00     0.087 C 
ATOM      2  O4  MNT d   1      40.771  56.052  21.279  0.00  0.00    -0.356 OA
ATOM      3  C3  MNT d   1      40.668  58.270  20.708  0.00  0.00     0.079 C 
ATOM      4  C2  MNT d   1      41.403  57.698  19.776  0.00  0.00     0.003 C 
ATOM      5  C1  MNT d   1      41.693  56.290  20.215  0.00  0.00     0.115 C 
ATOM      6  H4  MNT d   1      40.505  57.528  22.715  0.00  0.00     0.090 H 
ATOM      7  H5  MNT d   1      39.750  58.505  20.150  0.00  0.00     0.088 H 
ATOM      8  H6  MNT d   1      42.345  58.252  19.651  0.00  0.00     0.043 H 
ATOM      9  H7  MNT d   1      40.855  57.687  18.822  0.00  0.00     0.043 H 
ATOM     10  H8  MNT d   1      42.745  56.165  20.512  0.00  0.00     0.118 H 
ENDROOT
BRANCH   3  11
ATOM     11  O3  MNT d   1      41.018  59.574  21.166  0.00  0.00    -0.309 OA
BRANCH  11  12
ATOM     12  C'  MNT d   1      40.875  60.741  20.410  0.00  0.00     0.296 C 
ATOM     13  O1' MNT d   1      40.685  60.531  19.232  0.00  0.00    -0.259 OA
BRANCH  12  14
ATOM     14  C1' MNT d   1      41.757  61.945  20.758  0.00  0.00     0.065 A 
ATOM     15  C2' MNT d   1      41.444  62.962  19.761  0.00  0.00     0.044 A 
ATOM     16  N2' MNT d   1      41.397  62.820  18.406  0.00  0.00    -0.393 N 
ATOM     17  C3' MNT d   1      41.494  64.334  20.208  0.00  0.00    -0.057 A 
ATOM     18  H13 MNT d   1      41.493  61.880  17.997  0.00  0.00     0.159 HD
ATOM     19  C4' MNT d   1      41.801  64.725  21.529  0.00  0.00    -0.081 A 
ATOM     20  H17 MNT d   1      41.283  65.112  19.484  0.00  0.00     0.086 H 
ATOM     21  C5' MNT d   1      42.208  63.712  22.466  0.00  0.00    -0.082 A 
ATOM     22  H18 MNT d   1      41.732  65.764  21.830  0.00  0.00     0.083 H 
ATOM     23  C6' MNT d   1      42.216  62.343  22.073  0.00  0.00    -0.065 A 
ATOM     24  H19 MNT d   1      42.508  63.990  23.470  0.00  0.00     0.083 H 
ATOM     25  H20 MNT d   1      42.570  61.589  22.767  0.00  0.00     0.085 H 
BRANCH  16  26
ATOM     26  CM' MNT d   1      41.217  63.950  17.532  0.00  0.00    -0.021 C 
ATOM     27  H14 MNT d   1      41.209  63.608  16.487  0.00  0.00     0.056 H 
ATOM     28  H15 MNT d   1      42.043  64.662  17.678  0.00  0.00     0.056 H 
ATOM     29  H16 MNT d   1      40.262  64.444  17.763  0.00  0.00     0.056 H 
ENDBRANCH  16  26
ENDBRANCH  12  14
ENDBRANCH  11  12
ENDBRANCH   3  11
BRANCH   1  30
ATOM     30  C5  MNT d   1      38.669  56.959  21.790  0.00  0.00     0.058 C 
ATOM     31  H2  MNT d   1      38.497  56.083  22.433  0.00  0.00     0.079 H 
ATOM     32  H3  MNT d   1      38.153  57.833  22.215  0.00  0.00     0.079 H 
BRANCH  30  33
ATOM     33  O5  MNT d   1      38.151  56.692  20.464  0.00  0.00    -0.287 OA
BRANCH  33  34
ATOM     34  PA  MNT d   1      36.746  57.388  20.062  0.00  0.00     0.417 P 
ATOM     35  O1A MNT d   1      36.534  56.961  18.651  0.00  0.00    -0.624 OA
ATOM     36  O2A MNT d   1      36.706  58.838  20.363  0.00  0.00    -0.624 OA
BRANCH  34  37
ATOM     37  O3A MNT d   1      35.765  56.689  21.043  0.00  0.00    -0.179 OA
BRANCH  37  38
ATOM     38  PB  MNT d   1      34.085  56.626  21.018  0.00  0.00     0.446 P 
ATOM     39  O1B MNT d   1      33.559  55.258  20.899  0.00  0.00    -0.622 OA
ATOM     40  O2B MNT d   1      33.616  57.638  19.999  0.00  0.00    -0.622 OA
BRANCH  38  41
ATOM     41  O3B MNT d   1      33.726  57.173  22.452  0.00  0.00    -0.113 OA
BRANCH  41  42
ATOM     42 BE   MNT d   1      32.595  58.188  22.992  0.00  0.00     0.000 Be
ATOM     43  F3  MNT d   1      32.321  59.297  21.951  0.00  0.00     0.000 F 
ATOM     44  F2  MNT d   1      33.110  58.885  24.291  0.00  0.00     0.000 F 
ATOM     45  F1  MNT d   1      31.324  57.364  23.232  0.00  0.00     0.000 F 
ENDBRANCH  41  42
ENDBRANCH  38  41
ENDBRANCH  37  38
ENDBRANCH  34  37
ENDBRANCH  33  34
ENDBRANCH  30  33
ENDBRANCH   1  30
BRANCH   5  46
ATOM     46  N9  MNT d   1      41.289  55.302  19.182  0.00  0.00    -0.296 N 
ATOM     47  C8  MNT d   1      40.070  54.748  18.813  0.00  0.00     0.070 A 
ATOM     48  N7  MNT d   1      40.117  53.845  17.752  0.00  0.00    -0.236 NA
ATOM     49  H9  MNT d   1      39.140  55.002  19.319  0.00  0.00     0.144 H 
ATOM     50  C5  MNT d   1      41.480  53.847  17.487  0.00  0.00     0.149 A 
ATOM     51  C6  MNT d   1      42.172  53.511  16.297  0.00  0.00     0.155 C 
ATOM     52  C4  MNT d   1      42.177  54.709  18.378  0.00  0.00     0.167 A 
ATOM     53  N6  MNT d   1      41.945  52.492  15.488  0.00  0.00    -0.382 N 
ATOM     54  N1  MNT d   1      43.531  53.630  16.376  0.00  0.00    -0.222 NA
ATOM     55  H10 MNT d   1      42.527  52.361  14.648  0.00  0.00     0.157 HD
ATOM     56  H11 MNT d   1      41.186  51.828  15.697  0.00  0.00     0.157 HD
ATOM     57  C2  MNT d   1      44.077  54.313  17.454  0.00  0.00     0.091 C 
ATOM     58  N3  MNT d   1      43.497  54.992  18.447  0.00  0.00    -0.222 NA
ATOM     59  H12 MNT d   1      45.160  54.292  17.497  0.00  0.00     0.146 H 
ENDBRANCH   5  46
TORSDOF 12
