REMARK  12 active torsions:
REMARK  status: ('A' for Active; 'I' for Inactive)
REMARK    1  A    between atoms: C1_1  and  C2_2 
REMARK    2  A    between atoms: C1_1  and  O1_4 
REMARK    3  A    between atoms: C2_2  and  C3_3 
REMARK    4  A    between atoms: C2_2  and  N2_5 
REMARK    5  A    between atoms: C3_3  and  N3_6 
REMARK    6  A    between atoms: O1_4  and  C4_7 
REMARK    7  A    between atoms: N3_6  and  C12_15 
REMARK    8  A    between atoms: N3_6  and  C19_22 
REMARK    9  A    between atoms: C4_7  and  C5_8 
REMARK   10  A    between atoms: C5_8  and  C6_9 
REMARK   11  A    between atoms: C5_8  and  C7_10 
REMARK   12  A    between atoms: C12_15  and  C13_16 
ROOT
ATOM      1  C2  BEP d   1      90.160   2.120  -1.089  0.00  0.00     0.139 C 
ATOM      2  H3  BEP d   1      89.683   2.673  -1.912  0.00  0.00     0.090 H 
ENDROOT
BRANCH   1   3
ATOM      3  C1  BEP d   1      90.704   3.133  -0.078  0.00  0.00     0.048 C 
ATOM      4  H1  BEP d   1      90.147   3.042   0.866  0.00  0.00     0.077 H 
ATOM      5  H2  BEP d   1      90.583   4.150  -0.479  0.00  0.00     0.077 H 
BRANCH   3   6
ATOM      6  O1  BEP d   1      92.110   2.875   0.166  0.00  0.00    -0.389 OA
BRANCH   6   7
ATOM      7  C4  BEP d   1      92.948   4.056   0.240  0.00  0.00     0.022 C 
ATOM      8  H7  BEP d   1      92.315   4.949   0.354  0.00  0.00     0.074 H 
ATOM      9  H8  BEP d   1      93.542   4.143  -0.682  0.00  0.00     0.074 H 
BRANCH   7  10
ATOM     10  C5  BEP d   1      93.887   3.938   1.443  0.00  0.00    -0.041 C 
ATOM     11  H9  BEP d   1      93.474   4.510   2.287  0.00  0.00     0.042 H 
BRANCH  10  12
ATOM     12  C6  BEP d   1      95.262   4.497   1.072  0.00  0.00    -0.071 C 
ATOM     13  H10 BEP d   1      95.937   4.412   1.936  0.00  0.00     0.028 H 
ATOM     14  H11 BEP d   1      95.163   5.555   0.786  0.00  0.00     0.028 H 
ATOM     15  H12 BEP d   1      95.674   3.926   0.227  0.00  0.00     0.028 H 
ENDBRANCH  10  12
BRANCH  10  16
ATOM     16  C7  BEP d   1      94.025   2.467   1.844  0.00  0.00    -0.071 C 
ATOM     17  H13 BEP d   1      93.036   2.065   2.111  0.00  0.00     0.028 H 
ATOM     18  H14 BEP d   1      94.700   2.384   2.709  0.00  0.00     0.028 H 
ATOM     19  H15 BEP d   1      94.438   1.894   1.001  0.00  0.00     0.028 H 
ENDBRANCH  10  16
ENDBRANCH   7  10
ENDBRANCH   6   7
ENDBRANCH   3   6
ENDBRANCH   1   3
BRANCH   1  20
ATOM     20  C3  BEP d   1      89.079   1.196  -0.422  0.00  0.00     0.024 C 
ATOM     21  H4  BEP d   1      89.335   1.055   0.638  0.00  0.00     0.067 H 
ATOM     22  H5  BEP d   1      89.078   0.221  -0.932  0.00  0.00     0.067 H 
BRANCH  20  23
ATOM     23  N3  BEP d   1      87.715   1.793  -0.516  0.00  0.00    -0.374 N 
BRANCH  23  24
ATOM     24  C12 BEP d   1      86.846   1.729   0.692  0.00  0.00     0.019 C 
ATOM     25  H24 BEP d   1      86.958   0.727   1.131  0.00  0.00     0.071 H 
ATOM     26  H25 BEP d   1      85.806   1.871   0.362  0.00  0.00     0.071 H 
BRANCH  24  27
ATOM     27  C13 BEP d   1      87.130   2.765   1.809  0.00  0.00    -0.040 A 
ATOM     28  C14 BEP d   1      87.425   2.332   3.108  0.00  0.00    -0.075 A 
ATOM     29  C15 BEP d   1      87.682   3.268   4.117  0.00  0.00    -0.082 A 
ATOM     30  H26 BEP d   1      87.454   1.272   3.332  0.00  0.00     0.084 H 
ATOM     31  C16 BEP d   1      87.644   4.638   3.827  0.00  0.00    -0.083 A 
ATOM     32  H27 BEP d   1      87.910   2.933   5.122  0.00  0.00     0.083 H 
ATOM     33  C17 BEP d   1      87.349   5.072   2.528  0.00  0.00    -0.082 A 
ATOM     34  H28 BEP d   1      87.843   5.363   4.608  0.00  0.00     0.083 H 
ATOM     35  C18 BEP d   1      87.091   4.135   1.519  0.00  0.00    -0.075 A 
ATOM     36  H29 BEP d   1      87.320   6.132   2.304  0.00  0.00     0.083 H 
ATOM     37  H30 BEP d   1      86.861   4.470   0.514  0.00  0.00     0.084 H 
ENDBRANCH  24  27
ENDBRANCH  23  24
BRANCH  23  38
ATOM     38  C19 BEP d   1      87.029   1.665  -1.822  0.00  0.00     0.030 A 
ATOM     39  C20 BEP d   1      87.311   2.571  -2.854  0.00  0.00    -0.057 A 
ATOM     40  C21 BEP d   1      86.661   2.450  -4.089  0.00  0.00    -0.081 A 
ATOM     41  H31 BEP d   1      88.032   3.365  -2.696  0.00  0.00     0.086 H 
ATOM     42  C22 BEP d   1      85.731   1.423  -4.292  0.00  0.00    -0.083 A 
ATOM     43  H32 BEP d   1      86.878   3.151  -4.887  0.00  0.00     0.083 H 
ATOM     44  C23 BEP d   1      85.449   0.517  -3.262  0.00  0.00    -0.081 A 
ATOM     45  H33 BEP d   1      85.228   1.329  -5.248  0.00  0.00     0.083 H 
ATOM     46  C24 BEP d   1      86.099   0.637  -2.027  0.00  0.00    -0.057 A 
ATOM     47  H34 BEP d   1      84.728  -0.277  -3.420  0.00  0.00     0.083 H 
ATOM     48  H35 BEP d   1      85.883  -0.065  -1.230  0.00  0.00     0.086 H 
ENDBRANCH  23  38
ENDBRANCH  20  23
ENDBRANCH   1  20
BRANCH   1  49
ATOM     49  N2  BEP d   1      91.268   1.299  -1.654  0.00  0.00    -0.063 N 
ATOM     50  C8  BEP d   1      92.364   1.996  -2.381  0.00  0.00     0.084 C 
ATOM     51  C9  BEP d   1      93.649   1.236  -2.008  0.00  0.00    -0.041 C 
ATOM     52  H16 BEP d   1      92.431   3.046  -2.061  0.00  0.00     0.076 H 
ATOM     53  H17 BEP d   1      92.193   1.954  -3.467  0.00  0.00     0.076 H 
ATOM     54  C10 BEP d   1      93.144  -0.119  -1.492  0.00  0.00    -0.041 C 
ATOM     55  H18 BEP d   1      94.205   1.770  -1.224  0.00  0.00     0.035 H 
ATOM     56  H19 BEP d   1      94.294   1.103  -2.889  0.00  0.00     0.035 H 
ATOM     57  C11 BEP d   1      91.831   0.218  -0.812  0.00  0.00     0.084 C 
ATOM     58  H20 BEP d   1      93.856  -0.555  -0.775  0.00  0.00     0.035 H 
ATOM     59  H21 BEP d   1      92.985  -0.821  -2.324  0.00  0.00     0.035 H 
ATOM     60  H22 BEP d   1      91.162  -0.655  -0.795  0.00  0.00     0.076 H 
ATOM     61  H23 BEP d   1      92.001   0.570   0.216  0.00  0.00     0.076 H 
ATOM     62  H6  BEP d   1      90.793   0.795  -2.386  0.00  0.00     0.280 HD
ENDBRANCH   1  49
TORSDOF 12
