REMARK WARNING: 32 MAX_TORS EXCEEDED!!!
REMARK  71 active torsions:
REMARK  status: ('A' for Active; 'I' for Inactive)
REMARK    1  A    between atoms: CA_2  and  N_1 
REMARK    2  A    between atoms: CA_2  and  CB_5 
REMARK    3  A    between atoms: C_3  and  CA_2 
REMARK       I    between atoms: N_24  and  C_3 
REMARK    4  A    between atoms: CB_5  and  CG_6 
REMARK    5  A    between atoms: CZ_11  and  OH_12 
REMARK    6  A    between atoms: CA_25  and  N_24 
REMARK    7  A    between atoms: CA_25  and  CB_28 
REMARK    8  A    between atoms: C_26  and  CA_25 
REMARK       I    between atoms: N_48  and  C_26 
REMARK    9  A    between atoms: CB_28  and  CG_29 
REMARK   10  A    between atoms: CG_29  and  CD_30 
REMARK   11  A    between atoms: CD_30  and  NE_31 
REMARK       I    between atoms: NE_31  and  CZ_32 
REMARK       I    between atoms: CZ_32  and  NH2_34 
REMARK       I    between atoms: CZ_32  and  NH1_33 
REMARK   12  A    between atoms: CA_49  and  N_48 
REMARK   13  A    between atoms: C_50  and  CA_49 
REMARK       I    between atoms: N_55  and  C_50 
REMARK   14  A    between atoms: CA_56  and  N_55 
REMARK   15  A    between atoms: CA_56  and  CB_59 
REMARK   16  A    between atoms: C_57  and  CA_56 
REMARK       I    between atoms: N_79  and  C_57 
REMARK   17  A    between atoms: CB_59  and  CG_60 
REMARK   18  A    between atoms: CA_80  and  N_79 
REMARK   19  A    between atoms: CA_80  and  CB_83 
REMARK   20  A    between atoms: C_81  and  CA_80 
REMARK       I    between atoms: N_101  and  C_81 
REMARK   21  A    between atoms: CB_83  and  CG_84 
REMARK   22  A    between atoms: CG_84  and  CD_85 
REMARK   23  A    between atoms: CD_85  and  CE_86 
REMARK   24  A    between atoms: CE_86  and  NZ_87 
REMARK   25  A    between atoms: CA_102  and  N_101 
REMARK   26  A    between atoms: CA_102  and  CB_105 
REMARK   27  A    between atoms: C_103  and  CA_102 
REMARK       I    between atoms: N_119  and  C_103 
REMARK   28  A    between atoms: CB_105  and  CG_106 
REMARK   29  A    between atoms: CA_120  and  N_119 
REMARK   30  A    between atoms: CA_120  and  CB_123 
REMARK   31  A    between atoms: C_121  and  CA_120 
REMARK       I    between atoms: N_143  and  C_121 
REMARK   32  A    between atoms: CB_123  and  CG_124 
REMARK   33  A    between atoms: CA_144  and  N_143 
REMARK   34  A    between atoms: CA_144  and  CB_147 
REMARK   35  A    between atoms: C_145  and  CA_144 
REMARK       I    between atoms: N_159  and  C_145 
REMARK   36  A    between atoms: CB_147  and  CG2_149 
REMARK   37  A    between atoms: CB_147  and  CG1_148 
REMARK   38  A    between atoms: CA_160  and  N_159 
REMARK   39  A    between atoms: CA_160  and  CB_163 
REMARK   40  A    between atoms: C_161  and  CA_160 
REMARK       I    between atoms: N_180  and  C_161 
REMARK   41  A    between atoms: CB_163  and  CG_164 
REMARK   42  A    between atoms: CZ_169  and  OH_170 
REMARK   43  A    between atoms: CA_181  and  N_180 
REMARK   44  A    between atoms: CA_181  and  CB_184 
REMARK   45  A    between atoms: C_182  and  CA_181 
REMARK       I    between atoms: N_201  and  C_182 
REMARK   46  A    between atoms: CB_184  and  CG_185 
REMARK   47  A    between atoms: CZ_190  and  OH_191 
REMARK   48  A    between atoms: CA_202  and  N_201 
REMARK   49  A    between atoms: CA_202  and  CB_205 
REMARK   50  A    between atoms: C_203  and  CA_202 
REMARK       I    between atoms: N_215  and  C_203 
REMARK   51  A    between atoms: CB_205  and  CG2_207 
REMARK   52  A    between atoms: CB_205  and  OG1_206 
REMARK   53  A    between atoms: CA_216  and  N_215 
REMARK   54  A    between atoms: C_227  and  CA_226 
REMARK       I    between atoms: N_235  and  C_227 
REMARK   55  A    between atoms: C_237  and  CA_236 
REMARK       I    between atoms: N_249  and  C_237 
REMARK   56  A    between atoms: CA_250  and  N_249 
REMARK   57  A    between atoms: CA_250  and  CB_253 
REMARK   58  A    between atoms: C_251  and  CA_250 
REMARK       I    between atoms: N_261  and  C_251 
REMARK   59  A    between atoms: CB_253  and  CG_254 
REMARK   60  A    between atoms: CA_262  and  N_261 
REMARK   61  A    between atoms: CA_262  and  CB_265 
REMARK   62  A    between atoms: C_263  and  CA_262 
REMARK       I    between atoms: N_275  and  C_263 
REMARK   63  A    between atoms: CB_265  and  CG2_267 
REMARK   64  A    between atoms: CB_265  and  OG1_266 
REMARK   65  A    between atoms: C_277  and  CA_276 
REMARK       I    between atoms: C_277  and  N_289 
REMARK   66  A    between atoms: N_289  and  CA_290 
REMARK   67  A    between atoms: CA_290  and  CB_293 
REMARK   68  A    between atoms: CA_290  and  C_291 
REMARK   69  A    between atoms: C_291  and  O1_310 
REMARK   70  A    between atoms: CB_293  and  CG_294 
REMARK   71  A    between atoms: CZ_299  and  OH_300 
ROOT
ATOM      1  CA  VAL d   1     -11.201  -1.206  -1.172  0.00  0.00     0.092 C 
ATOM      2  H69 VAL d   1     -11.706  -1.339  -2.140  0.00  0.00     0.088 H 
ENDROOT
BRANCH   1   3
ATOM      3  N   VAL d   1     -11.683  -2.233  -0.292  0.00  0.00    -0.346 N 
ATOM      4  H68 VAL d   1     -11.046  -2.657   0.351  0.00  0.00     0.163 HD
ATOM      5  C   TRP d   1     -12.923  -2.630  -0.304  0.00  0.00     0.241 C 
ATOM      6  O   TRP d   1     -13.772  -2.176  -1.062  0.00  0.00    -0.271 OA
BRANCH   5   7
ATOM      7  CA  TRP d   1     -13.213  -3.788   0.643  0.00  0.00     0.093 C 
ATOM      8  H59 TRP d   1     -12.272  -4.086   1.129  0.00  0.00     0.088 H 
BRANCH   7   9
ATOM      9  N   TRP d   1     -14.169  -3.440   1.668  0.00  0.00    -0.346 N 
ATOM     10  H58 TRP d   1     -14.973  -2.916   1.387  0.00  0.00     0.163 HD
ATOM     11  C   HIS d   1     -14.067  -3.767   2.987  0.00  0.00     0.241 C 
ATOM     12  O   HIS d   1     -13.160  -4.433   3.466  0.00  0.00    -0.271 OA
BRANCH  11  13
ATOM     13  CA  HIS d   1     -15.326  -3.331   3.755  0.00  0.00     0.094 C 
ATOM     14  H52 HIS d   1     -15.345  -2.239   3.884  0.00  0.00     0.088 H 
BRANCH  13  15
ATOM     15  N   HIS d   1     -16.350  -3.795   2.837  0.00  0.00    -0.346 N 
ATOM     16  H51 HIS d   1     -16.377  -4.779   2.663  0.00  0.00     0.163 HD
ATOM     17  C   LYS d   1     -17.243  -3.070   2.211  0.00  0.00     0.241 C 
ATOM     18  O   LYS d   1     -17.393  -1.854   2.263  0.00  0.00    -0.271 OA
BRANCH  17  19
ATOM     19  CA  LYS d   1     -17.992  -3.955   1.251  0.00  0.00     0.089 C 
ATOM     20  H39 LYS d   1     -18.195  -4.904   1.769  0.00  0.00     0.087 H 
BRANCH  19  21
ATOM     21  N   LYS d   1     -19.291  -3.431   0.902  0.00  0.00    -0.346 N 
ATOM     22  H38 LYS d   1     -19.409  -2.458   0.703  0.00  0.00     0.163 HD
ATOM     23  C   TRP d   1     -20.318  -4.253   0.850  0.00  0.00     0.241 C 
ATOM     24  O   TRP d   1     -20.185  -5.466   1.075  0.00  0.00    -0.271 OA
BRANCH  23  25
ATOM     25  CA  TRP d   1     -21.723  -3.666   0.641  0.00  0.00     0.093 C 
ATOM     26  H29 TRP d   1     -22.132  -3.977  -0.331  0.00  0.00     0.088 H 
BRANCH  25  27
ATOM     27  N   TRP d   1     -22.490  -4.202   1.730  0.00  0.00    -0.346 N 
ATOM     28  H28 TRP d   1     -22.709  -3.610   2.506  0.00  0.00     0.163 HD
ATOM     29  C   GLY d   1     -22.913  -5.444   1.739  0.00  0.00     0.236 C 
ATOM     30  O   GLY d   1     -22.690  -6.247   0.825  0.00  0.00    -0.272 OA
BRANCH  29  31
ATOM     31  CA  GLY d   1     -23.604  -5.866   3.018  0.00  0.00     0.069 C 
ATOM     32  H26 GLY d   1     -23.599  -6.966   3.048  0.00  0.00     0.078 H 
ATOM     33  H27 GLY d   1     -23.012  -5.474   3.858  0.00  0.00     0.078 H 
BRANCH  31  34
ATOM     34  N   GLY d   1     -25.026  -5.415   3.219  0.00  0.00    -0.351 N 
ATOM     35  H25 GLY d   1     -25.543  -5.756   4.004  0.00  0.00     0.163 HD
ATOM     36  C   ARG d   1     -25.620  -4.552   2.353  0.00  0.00     0.240 C 
ATOM     37  O   ARG d   1     -24.987  -4.151   1.368  0.00  0.00    -0.271 OA
BRANCH  36  38
ATOM     38  CA  ARG d   1     -27.112  -4.069   2.417  0.00  0.00     0.089 C 
ATOM     39  H13 ARG d   1     -27.084  -2.979   2.271  0.00  0.00     0.087 H 
BRANCH  38  40
ATOM     40  N   ARG d   1     -27.697  -4.696   1.242  0.00  0.00    -0.346 N 
ATOM     41  H12 ARG d   1     -27.988  -4.121   0.477  0.00  0.00     0.163 HD
ATOM     42  C   TYR d   1     -27.857  -6.034   1.157  0.00  0.00     0.249 C 
ATOM     43  O   TYR d   1     -27.557  -6.815   2.042  0.00  0.00    -0.271 OA
BRANCH  42  44
ATOM     44  CA  TYR d   1     -28.452  -6.502  -0.169  0.00  0.00     0.179 C 
ATOM     45  H4  TYR d   1     -27.771  -6.200  -0.978  0.00  0.00     0.099 H 
BRANCH  44  46
ATOM     46  N   TYR d   1     -28.676  -8.008  -0.303  0.00  0.00    -0.066 N 
ATOM     47  H1  TYR d   1     -29.069  -8.210  -1.209  0.00  0.00     0.275 HD
ATOM     48  H2  TYR d   1     -29.311  -8.319   0.416  0.00  0.00     0.275 HD
ATOM     49  H3  TYR d   1     -27.796  -8.489  -0.204  0.00  0.00     0.275 HD
ENDBRANCH  44  46
BRANCH  44  50
ATOM     50  CB  TYR d   1     -29.772  -5.744  -0.310  0.00  0.00    -0.006 C 
ATOM     51  H5  TYR d   1     -30.052  -5.710  -1.373  0.00  0.00     0.043 H 
ATOM     52  H6  TYR d   1     -29.637  -4.719   0.067  0.00  0.00     0.043 H 
BRANCH  50  53
ATOM     53  CG  TYR d   1     -30.873  -6.406   0.463  0.00  0.00    -0.056 A 
ATOM     54  CD1 TYR d   1     -30.919  -6.390   1.858  0.00  0.00    -0.074 A 
ATOM     55  CE1 TYR d   1     -31.920  -7.061   2.539  0.00  0.00    -0.051 A 
ATOM     56  H7  TYR d   1     -30.163  -5.847   2.414  0.00  0.00     0.084 H 
ATOM     57  CZ  TYR d   1     -32.868  -7.746   1.835  0.00  0.00     0.065 A 
ATOM     58  H9  TYR d   1     -31.951  -7.043   3.622  0.00  0.00     0.087 H 
ATOM     59  CE2 TYR d   1     -32.833  -7.769   0.460  0.00  0.00    -0.051 A 
ATOM     60  CD2 TYR d   1     -31.835  -7.107  -0.213  0.00  0.00    -0.074 A 
ATOM     61  H10 TYR d   1     -33.593  -8.310  -0.092  0.00  0.00     0.087 H 
ATOM     62  H8  TYR d   1     -31.809  -7.140  -1.296  0.00  0.00     0.084 H 
BRANCH  57  63
ATOM     63  OH  TYR d   1     -33.860  -8.406   2.511  0.00  0.00    -0.361 OA
ATOM     64  H11 TYR d   1     -33.737  -8.289   3.446  0.00  0.00     0.217 HD
ENDBRANCH  57  63
ENDBRANCH  50  53
ENDBRANCH  44  50
ENDBRANCH  42  44
ENDBRANCH  38  40
BRANCH  38  65
ATOM     65  CB  ARG d   1     -28.088  -4.291   3.668  0.00  0.00    -0.036 C 
ATOM     66  H14 ARG d   1     -28.951  -4.857   3.288  0.00  0.00     0.036 H 
ATOM     67  H15 ARG d   1     -28.417  -3.290   3.983  0.00  0.00     0.036 H 
BRANCH  65  68
ATOM     68  CG  ARG d   1     -27.626  -5.018   4.953  0.00  0.00    -0.048 C 
ATOM     69  H16 ARG d   1     -27.609  -4.312   5.796  0.00  0.00     0.035 H 
ATOM     70  H17 ARG d   1     -26.620  -5.437   4.805  0.00  0.00     0.035 H 
BRANCH  68  71
ATOM     71  CD  ARG d   1     -28.615  -6.137   5.236  0.00  0.00     0.009 C 
ATOM     72  H18 ARG d   1     -28.939  -6.540   4.265  0.00  0.00     0.064 H 
ATOM     73  H19 ARG d   1     -29.476  -5.689   5.753  0.00  0.00     0.064 H 
BRANCH  71  74
ATOM     74  NE  ARG d   1     -28.153  -7.287   6.060  0.00  0.00    -0.227 N 
ATOM     75  CZ  ARG d   1     -29.041  -8.089   6.651  0.00  0.00     0.665 C 
ATOM     76  NH2 ARG d   1     -28.728  -9.291   7.145  0.00  0.00    -0.235 N 
ATOM     77  NH1 ARG d   1     -30.253  -7.617   6.849  0.00  0.00    -0.235 N 
ATOM     78  H23 ARG d   1     -27.784  -9.677   7.000  0.00  0.00     0.174 HD
ATOM     79  H24 ARG d   1     -29.431  -9.831   7.670  0.00  0.00     0.174 HD
ATOM     80  H21 ARG d   1     -30.967  -8.205   7.302  0.00  0.00     0.174 HD
ATOM     81  H22 ARG d   1     -30.488  -6.660   6.551  0.00  0.00     0.174 HD
ATOM     82  H20 ARG d   1     -27.145  -7.464   6.175  0.00  0.00     0.177 HD
ENDBRANCH  71  74
ENDBRANCH  68  71
ENDBRANCH  65  68
ENDBRANCH  38  65
ENDBRANCH  36  38
ENDBRANCH  31  34
ENDBRANCH  29  31
ENDBRANCH  25  27
BRANCH  25  83
ATOM     83  CB  TRP d   1     -21.740  -2.122   0.746  0.00  0.00    -0.012 C 
ATOM     84  H30 TRP d   1     -21.654  -1.718  -0.274  0.00  0.00     0.044 H 
ATOM     85  H31 TRP d   1     -20.862  -1.819   1.336  0.00  0.00     0.044 H 
BRANCH  83  86
ATOM     86  CG  TRP d   1     -22.978  -1.484   1.395  0.00  0.00    -0.028 A 
ATOM     87  CD1 TRP d   1     -23.060  -0.864   2.625  0.00  0.00    -0.015 A 
ATOM     88  NE1 TRP d   1     -24.330  -0.360   2.823  0.00  0.00    -0.365 N 
ATOM     89  H32 TRP d   1     -22.240  -0.784   3.337  0.00  0.00     0.112 H 
ATOM     90  CE2 TRP d   1     -25.094  -0.641   1.731  0.00  0.00     0.042 A 
ATOM     91  H33 TRP d   1     -24.648   0.147   3.661  0.00  0.00     0.165 HD
ATOM     92  CD2 TRP d   1     -24.287  -1.347   0.816  0.00  0.00    -0.002 A 
ATOM     93  CZ2 TRP d   1     -26.419  -0.331   1.480  0.00  0.00    -0.056 A 
ATOM     94  CE3 TRP d   1     -24.850  -1.753  -0.389  0.00  0.00    -0.070 A 
ATOM     95  CZ3 TRP d   1     -26.173  -1.446  -0.639  0.00  0.00    -0.082 A 
ATOM     96  H34 TRP d   1     -24.262  -2.300  -1.117  0.00  0.00     0.084 H 
ATOM     97  CH2 TRP d   1     -26.942  -0.729   0.287  0.00  0.00    -0.081 A 
ATOM     98  H36 TRP d   1     -26.626  -1.766  -1.571  0.00  0.00     0.083 H 
ATOM     99  H37 TRP d   1     -27.972  -0.487   0.050  0.00  0.00     0.083 H 
ATOM    100  H35 TRP d   1     -27.018   0.208   2.205  0.00  0.00     0.086 H 
ENDBRANCH  83  86
ENDBRANCH  25  83
ENDBRANCH  23  25
ENDBRANCH  19  21
BRANCH  19 101
ATOM    101  CB  LYS d   1     -17.011  -4.286   0.110  0.00  0.00    -0.038 C 
ATOM    102  H40 LYS d   1     -17.237  -5.307  -0.230  0.00  0.00     0.036 H 
ATOM    103  H41 LYS d   1     -15.996  -4.256   0.532  0.00  0.00     0.036 H 
BRANCH 101 104
ATOM    104  CG  LYS d   1     -17.018  -3.398  -1.103  0.00  0.00    -0.061 C 
ATOM    105  H42 LYS d   1     -17.746  -3.800  -1.823  0.00  0.00     0.033 H 
ATOM    106  H43 LYS d   1     -16.013  -3.414  -1.550  0.00  0.00     0.033 H 
BRANCH 104 107
ATOM    107  CD  LYS d   1     -17.384  -1.964  -0.808  0.00  0.00    -0.043 C 
ATOM    108  H44 LYS d   1     -17.554  -1.854   0.273  0.00  0.00     0.035 H 
ATOM    109  H45 LYS d   1     -18.306  -1.712  -1.352  0.00  0.00     0.035 H 
BRANCH 107 110
ATOM    110  CE  LYS d   1     -16.283  -1.007  -1.234  0.00  0.00     0.080 C 
ATOM    111  H46 LYS d   1     -16.046  -1.181  -2.294  0.00  0.00     0.075 H 
ATOM    112  H47 LYS d   1     -15.388  -1.194  -0.623  0.00  0.00     0.075 H 
BRANCH 110 113
ATOM    113  NZ  LYS d   1     -16.707   0.407  -1.056  0.00  0.00    -0.079 N 
ATOM    114  H48 LYS d   1     -15.961   1.020  -1.345  0.00  0.00     0.274 HD
ATOM    115  H49 LYS d   1     -16.922   0.574  -0.085  0.00  0.00     0.274 HD
ATOM    116  H50 LYS d   1     -17.525   0.586  -1.617  0.00  0.00     0.274 HD
ENDBRANCH 110 113
ENDBRANCH 107 110
ENDBRANCH 104 107
ENDBRANCH 101 104
ENDBRANCH  19 101
ENDBRANCH  17  19
ENDBRANCH  13  15
BRANCH  13 117
ATOM    117  CB  HIS d   1     -15.545  -4.001   5.119  0.00  0.00     0.004 C 
ATOM    118  H53 HIS d   1     -16.141  -3.338   5.764  0.00  0.00     0.046 H 
ATOM    119  H54 HIS d   1     -14.572  -4.197   5.594  0.00  0.00     0.046 H 
BRANCH 117 120
ATOM    120  CG  HIS d   1     -16.261  -5.269   4.921  0.00  0.00     0.053 A 
ATOM    121  ND1 HIS d   1     -15.782  -6.186   4.039  0.00  0.00    -0.247 NA
ATOM    122  CE1 HIS d   1     -16.686  -7.115   3.856  0.00  0.00     0.064 A 
ATOM    123  NE2 HIS d   1     -17.744  -6.824   4.610  0.00  0.00    -0.359 N 
ATOM    124  H56 HIS d   1     -16.589  -7.978   3.199  0.00  0.00     0.143 H 
ATOM    125  CD2 HIS d   1     -17.486  -5.670   5.294  0.00  0.00     0.002 A 
ATOM    126  H57 HIS d   1     -18.611  -7.376   4.668  0.00  0.00     0.166 HD
ATOM    127  H55 HIS d   1     -18.146  -5.173   6.003  0.00  0.00     0.114 H 
ENDBRANCH 117 120
ENDBRANCH  13 117
ENDBRANCH  11  13
ENDBRANCH   7   9
BRANCH   7 128
ATOM    128  CB  TRP d   1     -13.760  -4.967  -0.161  0.00  0.00    -0.012 C 
ATOM    129  H60 TRP d   1     -13.634  -4.754  -1.233  0.00  0.00     0.044 H 
ATOM    130  H61 TRP d   1     -14.830  -5.085   0.067  0.00  0.00     0.044 H 
BRANCH 128 131
ATOM    131  CG  TRP d   1     -13.069  -6.220   0.155  0.00  0.00    -0.028 A 
ATOM    132  CD1 TRP d   1     -12.125  -6.378   1.112  0.00  0.00    -0.015 A 
ATOM    133  NE1 TRP d   1     -11.639  -7.644   1.076  0.00  0.00    -0.365 N 
ATOM    134  H62 TRP d   1     -11.803  -5.604   1.807  0.00  0.00     0.112 H 
ATOM    135  CE2 TRP d   1     -12.312  -8.351   0.122  0.00  0.00     0.042 A 
ATOM    136  H63 TRP d   1     -10.884  -8.012   1.672  0.00  0.00     0.165 HD
ATOM    137  CD2 TRP d   1     -13.244  -7.489  -0.474  0.00  0.00    -0.002 A 
ATOM    138  CZ2 TRP d   1     -12.172  -9.667  -0.265  0.00  0.00    -0.056 A 
ATOM    139  CE3 TRP d   1     -14.081  -7.978  -1.486  0.00  0.00    -0.070 A 
ATOM    140  CZ3 TRP d   1     -13.952  -9.300  -1.863  0.00  0.00    -0.082 A 
ATOM    141  H64 TRP d   1     -14.812  -7.334  -1.961  0.00  0.00     0.084 H 
ATOM    142  CH2 TRP d   1     -13.000 -10.130  -1.252  0.00  0.00    -0.081 A 
ATOM    143  H66 TRP d   1     -14.593  -9.701  -2.639  0.00  0.00     0.083 H 
ATOM    144  H67 TRP d   1     -12.918 -11.163  -1.569  0.00  0.00     0.083 H 
ATOM    145  H65 TRP d   1     -11.433 -10.312   0.196  0.00  0.00     0.086 H 
ENDBRANCH 128 131
ENDBRANCH   7 128
ENDBRANCH   5   7
ENDBRANCH   1   3
BRANCH   1 146
ATOM    146  CB  VAL d   1     -11.451   0.258  -0.717  0.00  0.00    -0.033 C 
ATOM    147  H70 VAL d   1     -10.902   0.437   0.219  0.00  0.00     0.042 H 
BRANCH 146 148
ATOM    148  CG2 VAL d   1     -12.926   0.565  -0.480  0.00  0.00    -0.071 C 
ATOM    149  H74 VAL d   1     -13.316  -0.097   0.307  0.00  0.00     0.028 H 
ATOM    150  H75 VAL d   1     -13.489   0.400  -1.411  0.00  0.00     0.028 H 
ATOM    151  H76 VAL d   1     -13.036   1.613  -0.165  0.00  0.00     0.028 H 
ENDBRANCH 146 148
BRANCH 146 152
ATOM    152  CG1 VAL d   1     -10.918   1.173  -1.802  0.00  0.00    -0.071 C 
ATOM    153  H71 VAL d   1     -11.080   2.221  -1.510  0.00  0.00     0.028 H 
ATOM    154  H72 VAL d   1     -11.446   0.969  -2.745  0.00  0.00     0.028 H 
ATOM    155  H73 VAL d   1      -9.841   0.992  -1.938  0.00  0.00     0.028 H 
ENDBRANCH 146 152
ENDBRANCH   1 146
BRANCH   1 156
ATOM    156  C   VAL d   1      -9.719  -1.404  -1.364  0.00  0.00     0.241 C 
ATOM    157  O   VAL d   1      -9.299  -1.793  -2.447  0.00  0.00    -0.271 OA
ATOM    158  N   TYR d   1      -8.961  -1.142  -0.288  0.00  0.00    -0.346 N 
ATOM    159  H77 TYR d   1      -9.419  -0.839   0.548  0.00  0.00     0.163 HD
BRANCH 158 160
ATOM    160  CA  TYR d   1      -7.504  -1.273  -0.266  0.00  0.00     0.093 C 
ATOM    161  H78 TYR d   1      -7.127  -0.581   0.501  0.00  0.00     0.088 H 
BRANCH 160 162
ATOM    162  CB  TYR d   1      -7.081  -2.682   0.132  0.00  0.00    -0.014 C 
ATOM    163  H79 TYR d   1      -7.555  -3.401  -0.552  0.00  0.00     0.043 H 
ATOM    164  H80 TYR d   1      -7.418  -2.877   1.161  0.00  0.00     0.043 H 
BRANCH 162 165
ATOM    165  CG  TYR d   1      -5.581  -2.863   0.068  0.00  0.00    -0.056 A 
ATOM    166  CD1 TYR d   1      -4.732  -1.840   0.462  0.00  0.00    -0.074 A 
ATOM    167  CE1 TYR d   1      -3.356  -1.977   0.403  0.00  0.00    -0.051 A 
ATOM    168  H81 TYR d   1      -5.156  -0.911   0.825  0.00  0.00     0.084 H 
ATOM    169  CZ  TYR d   1      -2.812  -3.151  -0.057  0.00  0.00     0.065 A 
ATOM    170  H83 TYR d   1      -2.712  -1.163   0.718  0.00  0.00     0.087 H 
ATOM    171  CE2 TYR d   1      -3.629  -4.180  -0.457  0.00  0.00    -0.051 A 
ATOM    172  CD2 TYR d   1      -5.008  -4.034  -0.395  0.00  0.00    -0.074 A 
ATOM    173  H84 TYR d   1      -3.197  -5.105  -0.821  0.00  0.00     0.087 H 
ATOM    174  H82 TYR d   1      -5.646  -4.850  -0.714  0.00  0.00     0.084 H 
BRANCH 169 175
ATOM    175  OH  TYR d   1      -1.455  -3.301  -0.116  0.00  0.00    -0.361 OA
ATOM    176  H85 TYR d   1      -1.036  -2.506   0.193  0.00  0.00     0.217 HD
ENDBRANCH 169 175
ENDBRANCH 162 165
ENDBRANCH 160 162
BRANCH 160 177
ATOM    177  C   TYR d   1      -6.849  -0.884  -1.596  0.00  0.00     0.241 C 
ATOM    178  O   TYR d   1      -6.992  -1.582  -2.598  0.00  0.00    -0.271 OA
ATOM    179  N   TYR d   1      -6.124   0.237  -1.562  0.00  0.00    -0.346 N 
ATOM    180  H86 TYR d   1      -6.057   0.728  -0.694  0.00  0.00     0.163 HD
BRANCH 179 181
ATOM    181  CA  TYR d   1      -5.419   0.791  -2.726  0.00  0.00     0.093 C 
ATOM    182  H87 TYR d   1      -4.397   1.057  -2.417  0.00  0.00     0.088 H 
BRANCH 181 183
ATOM    183  CB  TYR d   1      -5.324  -0.250  -3.834  0.00  0.00    -0.014 C 
ATOM    184  H88 TYR d   1      -6.322  -0.355  -4.285  0.00  0.00     0.043 H 
ATOM    185  H89 TYR d   1      -5.026  -1.204  -3.376  0.00  0.00     0.043 H 
BRANCH 183 186
ATOM    186  CG  TYR d   1      -4.352   0.055  -4.935  0.00  0.00    -0.056 A 
ATOM    187  CD1 TYR d   1      -3.107   0.636  -4.711  0.00  0.00    -0.074 A 
ATOM    188  CE1 TYR d   1      -2.224   0.861  -5.759  0.00  0.00    -0.051 A 
ATOM    189  H90 TYR d   1      -2.822   0.917  -3.704  0.00  0.00     0.084 H 
ATOM    190  CZ  TYR d   1      -2.584   0.516  -7.036  0.00  0.00     0.065 A 
ATOM    191  H92 TYR d   1      -1.255   1.307  -5.568  0.00  0.00     0.087 H 
ATOM    192  CE2 TYR d   1      -3.819  -0.056  -7.272  0.00  0.00    -0.051 A 
ATOM    193  CD2 TYR d   1      -4.686  -0.282  -6.222  0.00  0.00    -0.074 A 
ATOM    194  H93 TYR d   1      -4.107  -0.327  -8.281  0.00  0.00     0.087 H 
ATOM    195  H91 TYR d   1      -5.651  -0.735  -6.419  0.00  0.00     0.084 H 
BRANCH 190 196
ATOM    196  OH  TYR d   1      -1.694   0.719  -8.065  0.00  0.00    -0.361 OA
ATOM    197  H94 TYR d   1      -2.086   1.293  -8.713  0.00  0.00     0.217 HD
ENDBRANCH 190 196
ENDBRANCH 183 186
ENDBRANCH 181 183
BRANCH 181 198
ATOM    198  C   TYR d   1      -6.120   2.071  -3.219  0.00  0.00     0.241 C 
ATOM    199  O   TYR d   1      -5.771   2.627  -4.260  0.00  0.00    -0.271 OA
ATOM    200  N   THR d   1      -7.087   2.539  -2.411  0.00  0.00    -0.344 N 
ATOM    201  H95 THR d   1      -7.300   2.011  -1.589  0.00  0.00     0.163 HD
BRANCH 200 202
ATOM    202  CA  THR d   1      -7.855   3.773  -2.649  0.00  0.00     0.113 C 
ATOM    203  H96 THR d   1      -8.405   3.968  -1.717  0.00  0.00     0.091 H 
BRANCH 202 204
ATOM    204  CB  THR d   1      -6.938   4.987  -2.882  0.00  0.00     0.060 C 
ATOM    205  H97 THR d   1      -7.294   5.791  -2.221  0.00  0.00     0.086 H 
BRANCH 204 206
ATOM    206  CG2 THR d   1      -5.483   4.733  -2.560  0.00  0.00    -0.050 C 
ATOM    207  H99 THR d   1      -4.900   5.646  -2.753  0.00  0.00     0.031 H 
ATOM    208 0H10 THR d   1      -5.105   3.916  -3.192  0.00  0.00     0.031 H 
ATOM    209 1H10 THR d   1      -5.385   4.453  -1.501  0.00  0.00     0.031 H 
ENDBRANCH 204 206
BRANCH 204 210
ATOM    210  OG1 THR d   1      -7.005   5.447  -4.218  0.00  0.00    -0.393 OA
ATOM    211  H98 THR d   1      -6.647   4.785  -4.798  0.00  0.00     0.210 HD
ENDBRANCH 204 210
ENDBRANCH 202 204
BRANCH 202 212
ATOM    212  C   THR d   1      -8.914   3.673  -3.753  0.00  0.00     0.243 C 
ATOM    213  O   THR d   1      -8.761   2.977  -4.757  0.00  0.00    -0.271 OA
ATOM    214  N   CYS d   1      -9.995   4.415  -3.518  0.00  0.00    -0.345 N 
ATOM    215 2H10 CYS d   1     -10.015   4.942  -2.668  0.00  0.00     0.163 HD
BRANCH 214 216
ATOM    216  CA  CYS d   1     -11.170   4.522  -4.414  0.00  0.00     0.098 C 
ATOM    217  CB  CYS d   1     -11.757   3.166  -4.838  0.00  0.00     0.013 C 
ATOM    218  SG  CYS d   1     -12.943   2.426  -3.616  0.00  0.00    -0.095 SA
ATOM    219 4H10 CYS d   1     -10.925   2.461  -4.980  0.00  0.00     0.053 H 
ATOM    220 5H10 CYS d   1     -12.288   3.304  -5.792  0.00  0.00     0.053 H 
ATOM    221  SG  CYS d   1     -14.605   3.640  -3.518  0.00  0.00    -0.095 SA
ATOM    222  CB  CYS d   1     -14.632   4.410  -1.829  0.00  0.00     0.013 C 
ATOM    223  CA  CYS d   1     -13.413   5.292  -1.548  0.00  0.00     0.098 C 
ATOM    224 8H10 CYS d   1     -15.538   5.028  -1.741  0.00  0.00     0.053 H 
ATOM    225 9H10 CYS d   1     -14.662   3.606  -1.079  0.00  0.00     0.053 H 
ATOM    226  N   CYS d   1     -12.388   4.827  -2.426  0.00  0.00    -0.345 N 
ATOM    227 7H10 CYS d   1     -13.669   6.336  -1.780  0.00  0.00     0.088 H 
ATOM    228 6H10 CYS d   1     -11.722   4.170  -2.073  0.00  0.00     0.163 HD
ATOM    229  C   CYS d   1     -12.276   5.221  -3.679  0.00  0.00     0.242 C 
ATOM    230  O   CYS d   1     -13.032   6.015  -4.233  0.00  0.00    -0.271 OA
ATOM    231 3H10 CYS d   1     -10.882   5.092  -5.309  0.00  0.00     0.088 H 
BRANCH 223 232
ATOM    232  C   CYS d   1     -12.873   5.233  -0.104  0.00  0.00     0.244 C 
ATOM    233  O   CYS d   1     -11.655   5.347   0.066  0.00  0.00    -0.271 OA
ATOM    234  N   PRO d   1     -13.704   5.098   0.959  0.00  0.00    -0.337 N 
ATOM    235  CA  PRO d   1     -13.170   5.093   2.331  0.00  0.00     0.091 A 
ATOM    236  CD  PRO d   1     -15.169   4.998   0.919  0.00  0.00    -0.001 A 
ATOM    237 0H11 PRO d   1     -12.610   6.028   2.477  0.00  0.00     0.087 H 
ATOM    238  CB  PRO d   1     -14.403   5.130   3.241  0.00  0.00    -0.036 A 
ATOM    239  CG  PRO d   1     -15.612   5.047   2.361  0.00  0.00    -0.048 A 
ATOM    240 1H11 PRO d   1     -14.419   6.069   3.814  0.00  0.00     0.036 H 
ATOM    241 2H11 PRO d   1     -14.384   4.277   3.935  0.00  0.00     0.036 H 
ATOM    242 3H11 PRO d   1     -16.182   4.138   2.603  0.00  0.00     0.035 H 
ATOM    243 4H11 PRO d   1     -16.246   5.931   2.522  0.00  0.00     0.035 H 
ATOM    244 5H11 PRO d   1     -15.478   4.051   0.453  0.00  0.00     0.064 H 
ATOM    245 6H11 PRO d   1     -15.597   5.840   0.356  0.00  0.00     0.064 H 
BRANCH 235 246
ATOM    246  C   PRO d   1     -12.177   3.939   2.660  0.00  0.00     0.241 C 
ATOM    247  O   PRO d   1     -11.428   3.485   1.789  0.00  0.00    -0.271 OA
ATOM    248  N   ASP d   1     -12.088   3.558   3.939  0.00  0.00    -0.346 N 
ATOM    249 7H11 ASP d   1     -12.724   3.952   4.603  0.00  0.00     0.163 HD
BRANCH 248 250
ATOM    250  CA  ASP d   1     -11.087   2.578   4.409  0.00  0.00     0.098 C 
ATOM    251 8H11 ASP d   1     -10.204   2.691   3.764  0.00  0.00     0.088 H 
BRANCH 250 252
ATOM    252  CB  ASP d   1     -10.691   2.933   5.862  0.00  0.00     0.043 C 
ATOM    253 9H11 ASP d   1      -9.630   2.672   5.993  0.00  0.00     0.052 H 
ATOM    254 0H12 ASP d   1     -11.306   2.318   6.536  0.00  0.00     0.052 H 
BRANCH 252 255
ATOM    255  CG  ASP d   1     -10.864   4.381   6.272  0.00  0.00     0.175 C 
ATOM    256  OD1 ASP d   1     -11.975   4.933   6.107  0.00  0.00    -0.648 OA
ATOM    257  OD2 ASP d   1      -9.888   4.950   6.798  0.00  0.00    -0.648 OA
ENDBRANCH 252 255
ENDBRANCH 250 252
BRANCH 250 258
ATOM    258  C   ASP d   1     -11.484   1.073   4.378  0.00  0.00     0.241 C 
ATOM    259  O   ASP d   1     -12.645   0.695   4.228  0.00  0.00    -0.271 OA
ATOM    260  N   THR d   1     -10.441   0.233   4.600  0.00  0.00    -0.344 N 
ATOM    261 1H12 THR d   1      -9.537   0.645   4.711  0.00  0.00     0.163 HD
BRANCH 260 262
ATOM    262  CA  THR d   1     -10.531  -1.237   4.691  0.00  0.00     0.114 C 
ATOM    263 2H12 THR d   1     -11.586  -1.529   4.580  0.00  0.00     0.091 H 
BRANCH 262 264
ATOM    264  CB  THR d   1      -9.706  -1.895   3.594  0.00  0.00     0.060 C 
ATOM    265 3H12 THR d   1      -9.464  -2.916   3.923  0.00  0.00     0.086 H 
BRANCH 264 266
ATOM    266  CG2 THR d   1     -10.442  -1.970   2.312  0.00  0.00    -0.050 C 
ATOM    267 5H12 THR d   1      -9.808  -2.451   1.553  0.00  0.00     0.031 H 
ATOM    268 6H12 THR d   1     -10.705  -0.955   1.980  0.00  0.00     0.031 H 
ATOM    269 7H12 THR d   1     -11.360  -2.560   2.450  0.00  0.00     0.031 H 
ENDBRANCH 264 266
BRANCH 264 270
ATOM    270  OG1 THR d   1      -8.498  -1.199   3.345  0.00  0.00    -0.393 OA
ATOM    271 4H12 THR d   1      -8.000  -1.133   4.151  0.00  0.00     0.210 HD
ENDBRANCH 264 270
ENDBRANCH 262 264
BRANCH 262 272
ATOM    272  C   THR d   1     -10.001  -1.763   6.031  0.00  0.00     0.245 C 
ATOM    273  O   THR d   1      -9.515  -2.898   6.105  0.00  0.00    -0.271 OA
ATOM    274  N   PRO d   1     -10.077  -0.963   7.105  0.00  0.00    -0.337 N 
ATOM    275  CA  PRO d   1      -9.605  -1.362   8.415  0.00  0.00     0.091 C 
ATOM    276  CD  PRO d   1     -10.626   0.396   7.148  0.00  0.00    -0.001 C 
ATOM    277 8H12 PRO d   1      -8.753  -2.054   8.340  0.00  0.00     0.087 H 
ATOM    278  CB  PRO d   1      -9.202  -0.025   9.008  0.00  0.00    -0.036 C 
ATOM    279  CG  PRO d   1     -10.257   0.896   8.510  0.00  0.00    -0.048 C 
ATOM    280 9H12 PRO d   1      -8.208   0.282   8.650  0.00  0.00     0.036 H 
ATOM    281 0H13 PRO d   1      -9.200  -0.065  10.107  0.00  0.00     0.036 H 
ATOM    282 1H13 PRO d   1     -11.132   0.872   9.177  0.00  0.00     0.035 H 
ATOM    283 2H13 PRO d   1      -9.870   1.924   8.449  0.00  0.00     0.035 H 
ATOM    284 3H13 PRO d   1     -11.719   0.380   7.021  0.00  0.00     0.064 H 
ATOM    285 4H13 PRO d   1     -10.175   1.024   6.366  0.00  0.00     0.064 H 
BRANCH 275 286
ATOM    286  C   PRO d   1     -10.701  -1.986   9.267  0.00  0.00     0.241 C 
ATOM    287  O   PRO d   1     -10.428  -2.450  10.374  0.00  0.00    -0.271 OA
ATOM    288  N   TYR d   1     -11.937  -1.976   8.768  0.00  0.00    -0.345 N 
ATOM    289 5H13 TYR d   1     -12.103  -1.576   7.867  0.00  0.00     0.163 HD
BRANCH 288 290
ATOM    290  CA  TYR d   1     -13.051  -2.542   9.522  0.00  0.00     0.097 C 
ATOM    291 6H13 TYR d   1     -12.883  -2.336  10.589  0.00  0.00     0.089 H 
BRANCH 290 292
ATOM    292  CB  TYR d   1     -14.389  -1.908   9.113  0.00  0.00    -0.013 C 
ATOM    293 7H13 TYR d   1     -15.155  -2.697   9.130  0.00  0.00     0.043 H 
ATOM    294 8H13 TYR d   1     -14.281  -1.524   8.088  0.00  0.00     0.043 H 
BRANCH 292 295
ATOM    295  CG  TYR d   1     -14.878  -0.763   9.992  0.00  0.00    -0.056 A 
ATOM    296  CD1 TYR d   1     -14.026   0.227  10.487  0.00  0.00    -0.074 A 
ATOM    297  CE1 TYR d   1     -14.518   1.272  11.261  0.00  0.00    -0.051 A 
ATOM    298 9H13 TYR d   1     -12.966   0.180  10.264  0.00  0.00     0.084 H 
ATOM    299  CZ  TYR d   1     -15.864   1.336  11.549  0.00  0.00     0.065 A 
ATOM    300 1H14 TYR d   1     -13.845   2.034  11.637  0.00  0.00     0.087 H 
ATOM    301  CE2 TYR d   1     -16.723   0.367  11.071  0.00  0.00    -0.051 A 
ATOM    302  CD2 TYR d   1     -16.226  -0.669  10.298  0.00  0.00    -0.074 A 
ATOM    303 2H14 TYR d   1     -17.782   0.417  11.300  0.00  0.00     0.087 H 
ATOM    304 0H14 TYR d   1     -16.908  -1.424   9.924  0.00  0.00     0.084 H 
BRANCH 299 305
ATOM    305  OH  TYR d   1     -16.344   2.371  12.318  0.00  0.00    -0.361 OA
ATOM    306 3H14 TYR d   1     -15.626   2.943  12.561  0.00  0.00     0.217 HD
ENDBRANCH 299 305
ENDBRANCH 292 295
ENDBRANCH 290 292
BRANCH 290 307
ATOM    307  C   TYR d   1     -13.118  -4.063   9.323  0.00  0.00     0.163 C 
ATOM    308  O   TYR d   1     -12.475  -4.579   8.377  0.00  0.00    -0.648 OA
BRANCH 307 309
ATOM    309  O1  TYR d   1     -13.845  -4.821  10.139  0.00  0.00    -0.775 OA
ATOM    310 4H14 TYR d   1     -13.281  -5.453  10.569  0.00  0.00     0.167 HD
ENDBRANCH 307 309
ENDBRANCH 290 307
ENDBRANCH 288 290
ENDBRANCH 275 286
ENDBRANCH 262 272
ENDBRANCH 260 262
ENDBRANCH 250 258
ENDBRANCH 248 250
ENDBRANCH 235 246
ENDBRANCH 223 232
ENDBRANCH 214 216
ENDBRANCH 202 212
ENDBRANCH 200 202
ENDBRANCH 181 198
ENDBRANCH 179 181
ENDBRANCH 160 177
ENDBRANCH 158 160
ENDBRANCH   1 156
TORSDOF 71
