REMARK  23 active torsions:
REMARK  status: ('A' for Active; 'I' for Inactive)
REMARK    1  A    between atoms: C1_1  and  C38_38 
REMARK    2  A    between atoms: C1_1  and  C39_39 
REMARK    3  A    between atoms: C10_10  and  C2_2 
REMARK    4  A    between atoms: C10_10  and  C3_3 
REMARK    5  A    between atoms: C5_5  and  C4_4 
REMARK    6  A    between atoms: C5_5  and  C6_6 
REMARK    7  A    between atoms: C7_7  and  C5_5 
REMARK    8  A    between atoms: C27_27  and  C7_7 
REMARK    9  A    between atoms: C9_9  and  C11_11 
REMARK   10  A    between atoms: C11_11  and  C33_33 
REMARK   11  A    between atoms: C34_34  and  C12_12 
REMARK   12  A    between atoms: C15_15  and  C13_13 
REMARK   13  A    between atoms: C15_15  and  C14_14 
REMARK   14  A    between atoms: C17_17  and  C16_16 
REMARK   15  A    between atoms: C31_31  and  C17_17 
REMARK   16  A    between atoms: C28_28  and  O21_21 
REMARK   17  A    between atoms: C24_24  and  C22_22 
REMARK   18  A    between atoms: C24_24  and  C23_23 
REMARK   19  A    between atoms: C26_26  and  C25_25 
REMARK   20  A    between atoms: C29_29  and  C26_26 
REMARK   21  A    between atoms: C34_34  and  C35_35 
REMARK   22  A    between atoms: C35_35  and  C36_36 
REMARK   23  A    between atoms: C36_36  and  C37_37 
ROOT
ATOM      1  C18 HYF d   1       9.202  77.736   0.059  0.00  0.00     0.167 C 
ATOM      2  O19 HYF d   1       8.485  78.726   0.260  0.00  0.00    -0.295 OA
ATOM      3  O20 HYF d   1      11.410  76.564   2.580  0.00  0.00    -0.291 OA
ATOM      4  C27 HYF d   1       8.644  76.287  -0.635  0.00  0.00     0.139 C 
ATOM      5  C28 HYF d   1       9.382  74.958  -0.002  0.00  0.00     0.078 C 
ATOM      6  C29 HYF d   1      10.418  74.983   0.974  0.00  0.00     0.023 C 
ATOM      7  C30 HYF d   1      10.916  76.432   1.458  0.00  0.00     0.174 C 
ATOM      8  C31 HYF d   1      10.790  77.714   0.464  0.00  0.00     0.091 C 
ATOM      9  C32 HYF d   1      11.669  77.330  -0.883  0.00  0.00    -0.040 C 
ATOM     10  C33 HYF d   1      10.940  77.436  -2.301  0.00  0.00    -0.041 C 
ATOM     11  C34 HYF d   1       9.390  76.527  -2.253  0.00  0.00    -0.012 C 
ATOM     12  H39 HYF d   1      12.011  76.291  -0.767  0.00  0.00     0.036 H 
ATOM     13  H40 HYF d   1      12.539  78.002  -0.910  0.00  0.00     0.036 H 
ATOM     14  H41 HYF d   1      10.692  78.483  -2.527  0.00  0.00     0.041 H 
ENDROOT
BRANCH  11  15
ATOM     15  C35 HYF d   1       9.603  75.247  -3.178  0.00  0.00    -0.053 C 
ATOM     16  H42 HYF d   1      10.297  74.597  -2.625  0.00  0.00     0.034 H 
ATOM     17  H43 HYF d   1      10.096  75.620  -4.088  0.00  0.00     0.034 H 
BRANCH  15  18
ATOM     18  C36 HYF d   1       8.464  74.313  -3.675  0.00  0.00    -0.049 C 
ATOM     19  H44 HYF d   1       7.744  74.901  -4.263  0.00  0.00     0.038 H 
ATOM     20  H45 HYF d   1       7.953  73.871  -2.807  0.00  0.00     0.038 H 
BRANCH  18  21
ATOM     21  C37 HYF d   1       9.034  73.193  -4.549  0.00  0.00    -0.101 C 
ATOM     22  C1  HYF d   1       9.507  71.984  -4.180  0.00  0.00    -0.091 C 
ATOM     23  H46 HYF d   1       9.062  73.401  -5.618  0.00  0.00     0.077 H 
BRANCH  22  24
ATOM     24  C38 HYF d   1       9.559  71.492  -2.747  0.00  0.00    -0.055 C 
ATOM     25  H47 HYF d   1       9.987  70.479  -2.723  0.00  0.00     0.033 H 
ATOM     26  H48 HYF d   1       8.542  71.471  -2.329  0.00  0.00     0.033 H 
ATOM     27  H49 HYF d   1      10.187  72.169  -2.149  0.00  0.00     0.033 H 
ENDBRANCH  22  24
BRANCH  22  28
ATOM     28  C39 HYF d   1      10.021  71.040  -5.237  0.00  0.00    -0.055 C 
ATOM     29  H50 HYF d   1       9.929  71.512  -6.226  0.00  0.00     0.033 H 
ATOM     30  H51 HYF d   1       9.431  70.112  -5.218  0.00  0.00     0.033 H 
ATOM     31  H52 HYF d   1      11.078  70.808  -5.038  0.00  0.00     0.033 H 
ENDBRANCH  22  28
ENDBRANCH  18  21
ENDBRANCH  15  18
ENDBRANCH  11  15
BRANCH  11  32
ATOM     32  C12 HYF d   1       8.482  77.465  -3.142  0.00  0.00    -0.067 C 
ATOM     33  H17 HYF d   1       8.951  77.602  -4.128  0.00  0.00     0.028 H 
ATOM     34  H18 HYF d   1       8.371  78.442  -2.649  0.00  0.00     0.028 H 
ATOM     35  H19 HYF d   1       7.491  77.004  -3.268  0.00  0.00     0.028 H 
ENDBRANCH  11  32
BRANCH  10  36
ATOM     36  C11 HYF d   1      12.081  76.966  -3.295  0.00  0.00    -0.045 C 
ATOM     37  H15 HYF d   1      11.652  76.922  -4.307  0.00  0.00     0.039 H 
ATOM     38  H16 HYF d   1      12.403  75.960  -2.990  0.00  0.00     0.039 H 
BRANCH  36  39
ATOM     39  C9  HYF d   1      13.315  77.859  -3.346  0.00  0.00    -0.101 C 
ATOM     40  C10 HYF d   1      13.998  78.277  -4.434  0.00  0.00    -0.091 C 
ATOM     41  H14 HYF d   1      13.694  78.203  -2.385  0.00  0.00     0.077 H 
BRANCH  40  42
ATOM     42  C2  HYF d   1      13.665  77.912  -5.865  0.00  0.00    -0.055 C 
ATOM     43  H1  HYF d   1      14.386  78.392  -6.543  0.00  0.00     0.033 H 
ATOM     44  H2  HYF d   1      12.649  78.259  -6.105  0.00  0.00     0.033 H 
ATOM     45  H3  HYF d   1      13.718  76.820  -5.987  0.00  0.00     0.033 H 
ENDBRANCH  40  42
BRANCH  40  46
ATOM     46  C3  HYF d   1      15.188  79.187  -4.255  0.00  0.00    -0.055 C 
ATOM     47  H4  HYF d   1      15.339  79.386  -3.184  0.00  0.00     0.033 H 
ATOM     48  H5  HYF d   1      15.007  80.135  -4.782  0.00  0.00     0.033 H 
ATOM     49  H6  HYF d   1      16.085  78.703  -4.668  0.00  0.00     0.033 H 
ENDBRANCH  40  46
ENDBRANCH  36  39
ENDBRANCH  10  36
BRANCH   4  50
ATOM     50  C7  HYF d   1       7.002  76.062  -0.376  0.00  0.00     0.153 C 
ATOM     51  O8  HYF d   1       6.284  77.048  -0.188  0.00  0.00    -0.296 OA
BRANCH  50  52
ATOM     52  C5  HYF d   1       6.235  74.668  -0.333  0.00  0.00    -0.002 C 
ATOM     53  H10 HYF d   1       6.926  73.895  -0.701  0.00  0.00     0.050 H 
BRANCH  52  54
ATOM     54  C4  HYF d   1       5.003  74.687  -1.250  0.00  0.00    -0.067 C 
ATOM     55  H7  HYF d   1       4.494  73.713  -1.200  0.00  0.00     0.028 H 
ATOM     56  H8  HYF d   1       5.319  74.883  -2.285  0.00  0.00     0.028 H 
ATOM     57  H9  HYF d   1       4.313  75.478  -0.921  0.00  0.00     0.028 H 
ENDBRANCH  52  54
BRANCH  52  58
ATOM     58  C6  HYF d   1       5.804  74.281   1.094  0.00  0.00    -0.067 C 
ATOM     59  H11 HYF d   1       6.685  74.267   1.752  0.00  0.00     0.028 H 
ATOM     60  H12 HYF d   1       5.341  73.283   1.079  0.00  0.00     0.028 H 
ATOM     61  H13 HYF d   1       5.077  75.016   1.470  0.00  0.00     0.028 H 
ENDBRANCH  52  58
ENDBRANCH  50  52
ENDBRANCH   4  50
BRANCH   5  62
ATOM     62  O21 HYF d   1       8.940  73.713  -0.472  0.00  0.00    -0.363 OA
ATOM     63  H29 HYF d   1       8.603  73.203   0.255  0.00  0.00     0.217 HD
ENDBRANCH   5  62
BRANCH   8  64
ATOM     64  C17 HYF d   1      11.395  79.061   1.156  0.00  0.00    -0.029 C 
ATOM     65  H27 HYF d   1      10.992  79.076   2.179  0.00  0.00     0.041 H 
ATOM     66  H28 HYF d   1      12.484  78.912   1.194  0.00  0.00     0.041 H 
BRANCH  64  67
ATOM     67  C16 HYF d   1      11.189  80.485   0.607  0.00  0.00    -0.100 C 
ATOM     68  C15 HYF d   1      12.130  81.280   0.042  0.00  0.00    -0.091 C 
ATOM     69  H26 HYF d   1      10.183  80.896   0.680  0.00  0.00     0.077 H 
BRANCH  68  70
ATOM     70  C13 HYF d   1      13.617  80.891  -0.163  0.00  0.00    -0.055 C 
ATOM     71  H20 HYF d   1      14.151  81.724  -0.643  0.00  0.00     0.033 H 
ATOM     72  H21 HYF d   1      13.678  79.999  -0.803  0.00  0.00     0.033 H 
ATOM     73  H22 HYF d   1      14.077  80.674   0.812  0.00  0.00     0.033 H 
ENDBRANCH  68  70
BRANCH  68  74
ATOM     74  C14 HYF d   1      11.728  82.666  -0.425  0.00  0.00    -0.055 C 
ATOM     75  H23 HYF d   1      10.657  82.823  -0.227  0.00  0.00     0.033 H 
ATOM     76  H24 HYF d   1      11.919  82.759  -1.504  0.00  0.00     0.033 H 
ATOM     77  H25 HYF d   1      12.316  83.421   0.118  0.00  0.00     0.033 H 
ENDBRANCH  68  74
ENDBRANCH  64  67
ENDBRANCH   8  64
BRANCH   6  78
ATOM     78  C26 HYF d   1      11.132  73.748   1.596  0.00  0.00    -0.020 C 
ATOM     79  H37 HYF d   1      12.037  74.104   2.109  0.00  0.00     0.046 H 
ATOM     80  H38 HYF d   1      10.448  73.297   2.330  0.00  0.00     0.046 H 
BRANCH  78  81
ATOM     81  C25 HYF d   1      11.557  72.637   0.594  0.00  0.00    -0.097 C 
ATOM     82  C24 HYF d   1      12.653  72.424  -0.193  0.00  0.00    -0.091 C 
ATOM     83  H36 HYF d   1      10.811  71.850   0.498  0.00  0.00     0.077 H 
BRANCH  82  84
ATOM     84  C22 HYF d   1      13.892  73.324  -0.313  0.00  0.00    -0.055 C 
ATOM     85  H30 HYF d   1      14.600  72.880  -1.028  0.00  0.00     0.033 H 
ATOM     86  H31 HYF d   1      14.375  73.417   0.671  0.00  0.00     0.033 H 
ATOM     87  H32 HYF d   1      13.589  74.320  -0.668  0.00  0.00     0.033 H 
ENDBRANCH  82  84
BRANCH  82  88
ATOM     88  C23 HYF d   1      12.677  71.160  -1.027  0.00  0.00    -0.055 C 
ATOM     89  H33 HYF d   1      11.747  70.596  -0.865  0.00  0.00     0.033 H 
ATOM     90  H34 HYF d   1      13.537  70.542  -0.731  0.00  0.00     0.033 H 
ATOM     91  H35 HYF d   1      12.764  71.424  -2.091  0.00  0.00     0.033 H 
ENDBRANCH  82  88
ENDBRANCH  78  81
ENDBRANCH   6  78
TORSDOF 23
