REMARK  19 active torsions:
REMARK  status: ('A' for Active; 'I' for Inactive)
REMARK    1  A    between atoms: C4_4  and  C7_7 
REMARK    2  A    between atoms: C7_7  and  C8_8 
REMARK    3  A    between atoms: C8_8  and  N1_32 
REMARK    4  A    between atoms: C8_8  and  C9_9 
REMARK    5  A    between atoms: C9_9  and  O6_44 
REMARK       I    between atoms: N1_32  and  C10_10 
REMARK    6  A    between atoms: C10_10  and  C11_11 
REMARK    7  A    between atoms: C11_11  and  N2_33 
REMARK    8  A    between atoms: C11_11  and  C12_12 
REMARK    9  A    between atoms: C12_12  and  C13_13 
REMARK   10  A    between atoms: C13_13  and  C15_15 
REMARK   11  A    between atoms: C13_13  and  C14_14 
REMARK       I    between atoms: N2_33  and  C16_16 
REMARK   12  A    between atoms: C16_16  and  C17_17 
REMARK   13  A    between atoms: C17_17  and  N6_37 
REMARK   14  A    between atoms: C17_17  and  C18_18 
REMARK   15  A    between atoms: C21_21  and  N4_35 
REMARK       I    between atoms: N6_37  and  C22_22 
REMARK       I    between atoms: C22_22  and  N7_38 
REMARK   16  A    between atoms: N7_38  and  C23_23 
REMARK   17  A    between atoms: C23_23  and  C25_25 
REMARK   18  A    between atoms: C23_23  and  C24_24 
REMARK   19  A    between atoms: C25_25  and  C26_26 
ROOT
ATOM      1  N2  LEU d   1       7.953  -3.608  57.953  0.00  0.00    -0.346 N 
ATOM      2  H36 LEU d   1       8.915  -3.877  57.908  0.00  0.00     0.163 HD
ATOM      3  C16 CSI d   1       7.106  -4.316  57.238  0.00  0.00     0.243 C 
ATOM      4  O2  CSI d   1       5.878  -4.135  57.176  0.00  0.00    -0.271 OA
ENDROOT
BRANCH   3   5
ATOM      5  C17 CSI d   1       7.786  -5.415  56.416  0.00  0.00     0.111 C 
ATOM      6  H21 CSI d   1       8.627  -5.834  56.988  0.00  0.00     0.090 H 
BRANCH   5   7
ATOM      7  N6  CSI d   1       6.846  -6.500  56.092  0.00  0.00    -0.328 N 
ATOM      8  C22 CSI d   1       7.236  -7.729  55.833  0.00  0.00     0.317 C 
ATOM      9  N7  PHE d   1       6.344  -8.673  55.533  0.00  0.00    -0.328 N 
ATOM     10  O3  CSI d   1       8.457  -7.972  55.872  0.00  0.00    -0.247 OA
ATOM     11  H42 PHE d   1       5.356  -8.524  55.498  0.00  0.00     0.165 HD
ATOM     12  H41 CSI d   1       5.868  -6.294  56.068  0.00  0.00     0.165 HD
BRANCH   9  13
ATOM     13  C23 PHE d   1       7.010  -9.985  55.256  0.00  0.00     0.101 C 
ATOM     14  H27 PHE d   1       8.099  -9.944  55.403  0.00  0.00     0.090 H 
BRANCH  13  15
ATOM     15  C25 PHE d   1       6.380 -10.981  56.286  0.00  0.00    -0.013 C 
ATOM     16  H28 PHE d   1       6.818 -10.732  57.264  0.00  0.00     0.043 H 
ATOM     17  H29 PHE d   1       6.707 -11.986  55.983  0.00  0.00     0.043 H 
BRANCH  15  18
ATOM     18  C26 PHE d   1       4.836 -11.071  56.508  0.00  0.00    -0.056 A 
ATOM     19  C31 PHE d   1       4.369 -11.545  57.773  0.00  0.00    -0.077 A 
ATOM     20  C30 PHE d   1       2.973 -11.656  58.037  0.00  0.00    -0.082 A 
ATOM     21  H34 PHE d   1       5.084 -11.823  58.539  0.00  0.00     0.084 H 
ATOM     22  C29 PHE d   1       2.031 -11.296  57.037  0.00  0.00    -0.083 A 
ATOM     23  H33 PHE d   1       2.630 -12.015  59.001  0.00  0.00     0.083 H 
ATOM     24  C28 PHE d   1       2.482 -10.823  55.770  0.00  0.00    -0.082 A 
ATOM     25  H32 PHE d   1       0.969 -11.381  57.237  0.00  0.00     0.083 H 
ATOM     26  C27 PHE d   1       3.875 -10.710  55.505  0.00  0.00    -0.077 A 
ATOM     27  H31 PHE d   1       1.762 -10.549  55.007  0.00  0.00     0.083 H 
ATOM     28  H30 PHE d   1       4.213 -10.349  54.540  0.00  0.00     0.084 H 
ENDBRANCH  15  18
ENDBRANCH  13  15
BRANCH  13  29
ATOM     29  C24 PHE d   1       6.686 -10.218  53.756  0.00  0.00     0.197 C 
ATOM     30  O4  PHE d   1       6.860  -9.290  52.919  0.00  0.00    -0.646 OA
ATOM     31  O5  PHE d   1       6.312 -11.184  53.398  0.00  0.00    -0.646 OA
ENDBRANCH  13  29
ENDBRANCH   9  13
ENDBRANCH   5   7
BRANCH   5  32
ATOM     32  C18 CSI d   1       8.320  -4.742  55.116  0.00  0.00     0.056 C 
ATOM     33  N3  CSI d   1       9.011  -5.799  54.283  0.00  0.00    -0.220 N 
ATOM     34  C21 CSI d   1       9.167  -5.479  52.945  0.00  0.00     0.667 C 
ATOM     35  H37 CSI d   1       9.341  -6.690  54.681  0.00  0.00     0.178 HD
ATOM     36  N5  CSI d   1       8.523  -4.442  52.332  0.00  0.00    -0.227 N 
ATOM     37  C20 CSI d   1       7.840  -3.393  53.103  0.00  0.00     0.011 C 
ATOM     38  H40 CSI d   1       8.516  -4.394  51.303  0.00  0.00     0.177 HD
ATOM     39  C19 CSI d   1       7.221  -3.972  54.350  0.00  0.00    -0.028 C 
ATOM     40  H25 CSI d   1       8.569  -2.619  53.386  0.00  0.00     0.065 H 
ATOM     41  H26 CSI d   1       7.051  -2.943  52.482  0.00  0.00     0.065 H 
ATOM     42  H23 CSI d   1       6.824  -3.162  54.980  0.00  0.00     0.038 H 
ATOM     43  H24 CSI d   1       6.405  -4.658  54.078  0.00  0.00     0.038 H 
ATOM     44  H22 CSI d   1       9.079  -4.002  55.409  0.00  0.00     0.077 H 
BRANCH  34  45
ATOM     45  N4  CSI d   1      10.008  -6.299  52.290  0.00  0.00    -0.235 N 
ATOM     46  H38 CSI d   1      10.196  -6.151  51.288  0.00  0.00     0.174 HD
ATOM     47  H39 CSI d   1      10.464  -7.075  52.790  0.00  0.00     0.174 HD
ENDBRANCH  34  45
ENDBRANCH   5  32
ENDBRANCH   3   5
BRANCH   1  48
ATOM     48  C11 LEU d   1       7.623  -2.452  58.818  0.00  0.00     0.089 C 
ATOM     49  H11 LEU d   1       8.447  -2.324  59.535  0.00  0.00     0.087 H 
BRANCH  48  50
ATOM     50  C10 LEU d   1       6.277  -2.519  59.624  0.00  0.00     0.240 C 
ATOM     51  N1  PHA d   1       5.953  -3.643  60.309  0.00  0.00    -0.352 N 
ATOM     52  H35 PHA d   1       6.595  -4.410  60.297  0.00  0.00     0.163 HD
ATOM     53  O1  LEU d   1       5.474  -1.565  59.640  0.00  0.00    -0.271 OA
BRANCH  51  54
ATOM     54  C8  PHA d   1       4.659  -3.793  61.096  0.00  0.00     0.036 C 
ATOM     55  H8  PHA d   1       3.806  -3.674  60.411  0.00  0.00     0.076 H 
BRANCH  54  56
ATOM     56  C7  PHA d   1       4.583  -5.177  61.702  0.00  0.00    -0.020 C 
ATOM     57  H6  PHA d   1       5.349  -5.266  62.487  0.00  0.00     0.043 H 
ATOM     58  H7  PHA d   1       3.586  -5.318  62.145  0.00  0.00     0.043 H 
BRANCH  56  59
ATOM     59  C4  PHA d   1       4.818  -6.260  60.658  0.00  0.00    -0.056 A 
ATOM     60  C3  PHA d   1       5.909  -7.123  60.849  0.00  0.00    -0.077 A 
ATOM     61  C2  PHA d   1       6.182  -8.149  59.908  0.00  0.00    -0.082 A 
ATOM     62  H3  PHA d   1       6.545  -7.005  61.719  0.00  0.00     0.084 H 
ATOM     63  C1  PHA d   1       5.347  -8.303  58.769  0.00  0.00    -0.083 A 
ATOM     64  H2  PHA d   1       7.025  -8.813  60.058  0.00  0.00     0.083 H 
ATOM     65  C6  PHA d   1       4.234  -7.438  58.556  0.00  0.00    -0.082 A 
ATOM     66  H1  PHA d   1       5.559  -9.088  58.053  0.00  0.00     0.083 H 
ATOM     67  C5  PHA d   1       3.961  -6.406  59.502  0.00  0.00    -0.077 A 
ATOM     68  H5  PHA d   1       3.602  -7.563  57.684  0.00  0.00     0.083 H 
ATOM     69  H4  PHA d   1       3.120  -5.738  59.356  0.00  0.00     0.084 H 
ENDBRANCH  56  59
ENDBRANCH  54  56
BRANCH  54  70
ATOM     70  C9  PHA d   1       4.601  -2.646  62.161  0.00  0.00     0.036 C 
ATOM     71  H9  PHA d   1       3.876  -1.922  61.761  0.00  0.00     0.077 H 
ATOM     72  H10 PHA d   1       5.606  -2.200  62.155  0.00  0.00     0.077 H 
BRANCH  70  73
ATOM     73  O6  PHA d   1       4.216  -2.803  63.741  0.00  0.00    -0.399 OA
ATOM     74  H43 PHA d   1       4.257  -1.952  64.162  0.00  0.00     0.209 HD
ENDBRANCH  70  73
ENDBRANCH  54  70
ENDBRANCH  51  54
ENDBRANCH  48  50
BRANCH  48  75
ATOM     75  C12 LEU d   1       7.502  -1.198  57.918  0.00  0.00    -0.035 C 
ATOM     76  H12 LEU d   1       7.360  -0.321  58.566  0.00  0.00     0.037 H 
ATOM     77  H13 LEU d   1       6.622  -1.322  57.270  0.00  0.00     0.037 H 
BRANCH  75  78
ATOM     78  C13 LEU d   1       8.727  -0.943  57.023  0.00  0.00    -0.059 C 
ATOM     79  H14 LEU d   1       8.863  -1.831  56.388  0.00  0.00     0.038 H 
BRANCH  78  80
ATOM     80  C15 LEU d   1      10.016  -0.696  57.815  0.00  0.00    -0.073 C 
ATOM     81  H18 LEU d   1      10.203  -1.547  58.486  0.00  0.00     0.028 H 
ATOM     82  H19 LEU d   1       9.911   0.224  58.409  0.00  0.00     0.028 H 
ATOM     83  H20 LEU d   1      10.860  -0.587  57.118  0.00  0.00     0.028 H 
ENDBRANCH  78  80
BRANCH  78  84
ATOM     84  C14 LEU d   1       8.564   0.287  56.131  0.00  0.00    -0.073 C 
ATOM     85  H15 LEU d   1       9.467   0.417  55.517  0.00  0.00     0.028 H 
ATOM     86  H16 LEU d   1       8.416   1.178  56.759  0.00  0.00     0.028 H 
ATOM     87  H17 LEU d   1       7.692   0.151  55.475  0.00  0.00     0.028 H 
ENDBRANCH  78  84
ENDBRANCH  75  78
ENDBRANCH  48  75
ENDBRANCH   1  48
TORSDOF 19
