REMARK  10 active torsions:
REMARK  status: ('A' for Active; 'I' for Inactive)
REMARK    1  A    between atoms: N4_3  and  C31_4 
REMARK    2  A    between atoms: C31_4  and  C32_5 
REMARK    3  A    between atoms: N6_7  and  C41_8 
REMARK    4  A    between atoms: C41_8  and  C42_9 
REMARK    5  A    between atoms: C42_9  and  C43_10 
REMARK    6  A    between atoms: C43_10  and  C44_11 
REMARK    7  A    between atoms: C11_18  and  C14_19 
REMARK    8  A    between atoms: C14_19  and  C21_20 
REMARK    9  A    between atoms: C24_23  and  N_26 
REMARK       I    between atoms: N_26  and  C_27 
REMARK   10  A    between atoms: C_27  and  C4_29 
ROOT
ATOM      1  O13 TSX d   1      37.034  39.330  34.069  0.00  0.00    -0.246 OA
ATOM      2  C5  TSX d   1      37.140  40.401  33.501  0.00  0.00     0.333 A 
ATOM      3  N4  TSX d   1      36.224  40.718  32.498  0.00  0.00    -0.261 N 
ATOM      4  N6  TSX d   1      38.141  41.227  33.900  0.00  0.00    -0.281 N 
ATOM      5  C7  TSX d   1      38.254  42.485  33.259  0.00  0.00     0.168 A 
ATOM      6  N12 TSX d   1      39.170  43.423  33.530  0.00  0.00    -0.215 NA
ATOM      7  C8  TSX d   1      37.395  42.859  32.250  0.00  0.00     0.149 A 
ATOM      8  C3  TSX d   1      36.291  41.914  31.823  0.00  0.00     0.282 A 
ATOM      9  O12 TSX d   1      35.530  42.279  30.924  0.00  0.00    -0.265 OA
ATOM     10  N9  TSX d   1      37.705  44.089  31.807  0.00  0.00    -0.337 N 
ATOM     11  C11 TSX d   1      38.851  44.390  32.640  0.00  0.00     0.111 A 
ATOM     12  H15 TSX d   1      37.253  44.659  31.078  0.00  0.00     0.167 HD
ENDROOT
BRANCH  11  13
ATOM     13  C14 TSX d   1      39.610  45.686  32.521  0.00  0.00     0.014 C 
ATOM     14  H16 TSX d   1      39.596  46.051  31.483  0.00  0.00     0.051 H 
ATOM     15  H17 TSX d   1      40.651  45.559  32.851  0.00  0.00     0.051 H 
BRANCH  13  16
ATOM     16  C21 TSX d   1      38.867  46.647  33.440  0.00  0.00    -0.051 A 
ATOM     17  C22 TSX d   1      37.933  47.573  32.962  0.00  0.00    -0.074 A 
ATOM     18  C23 TSX d   1      37.314  48.397  33.916  0.00  0.00    -0.057 A 
ATOM     19  H18 TSX d   1      37.699  47.651  31.907  0.00  0.00     0.084 H 
ATOM     20  C24 TSX d   1      37.652  48.272  35.286  0.00  0.00     0.034 A 
ATOM     21  H19 TSX d   1      36.578  49.129  33.604  0.00  0.00     0.086 H 
ATOM     22  C25 TSX d   1      38.582  47.342  35.729  0.00  0.00    -0.057 A 
ATOM     23  C26 TSX d   1      39.195  46.518  34.789  0.00  0.00    -0.074 A 
ATOM     24  H20 TSX d   1      38.825  47.259  36.782  0.00  0.00     0.086 H 
ATOM     25  H21 TSX d   1      39.924  45.780  35.104  0.00  0.00     0.084 H 
BRANCH  20  26
ATOM     26  N   TSX d   1      37.068  49.056  36.325  0.00  0.00    -0.328 N 
ATOM     27  C   TSX d   1      36.517  50.278  36.133  0.00  0.00     0.218 C 
ATOM     28  O   TSX d   1      36.454  50.855  35.045  0.00  0.00    -0.274 OA
ATOM     29  H22 TSX d   1      37.065  48.680  37.252  0.00  0.00     0.169 HD
BRANCH  27  30
ATOM     30  C4  TSX d   1      35.953  50.938  37.369  0.00  0.00    -0.003 C 
ATOM     31  H23 TSX d   1      35.533  51.919  37.102  0.00  0.00     0.040 H 
ATOM     32  H24 TSX d   1      36.754  51.072  38.111  0.00  0.00     0.040 H 
ATOM     33  H25 TSX d   1      35.161  50.304  37.794  0.00  0.00     0.040 H 
ENDBRANCH  27  30
ENDBRANCH  20  26
ENDBRANCH  13  16
ENDBRANCH  11  13
BRANCH   4  34
ATOM     34  C41 TSX d   1      39.081  40.889  34.983  0.00  0.00     0.006 C 
ATOM     35  H6  TSX d   1      38.534  40.381  35.791  0.00  0.00     0.065 H 
ATOM     36  H7  TSX d   1      39.534  41.813  35.371  0.00  0.00     0.065 H 
BRANCH  34  37
ATOM     37  C42 TSX d   1      40.206  39.949  34.456  0.00  0.00    -0.050 C 
ATOM     38  H8  TSX d   1      40.704  40.448  33.612  0.00  0.00     0.035 H 
ATOM     39  H9  TSX d   1      39.739  39.016  34.107  0.00  0.00     0.035 H 
BRANCH  37  40
ATOM     40  C43 TSX d   1      41.293  39.584  35.517  0.00  0.00    -0.067 C 
ATOM     41  H10 TSX d   1      41.479  40.468  36.145  0.00  0.00     0.032 H 
ATOM     42  H11 TSX d   1      42.218  39.308  34.989  0.00  0.00     0.032 H 
BRANCH  40  43
ATOM     43  C44 TSX d   1      40.880  38.405  36.437  0.00  0.00    -0.076 C 
ATOM     44  H12 TSX d   1      41.687  38.202  37.157  0.00  0.00     0.027 H 
ATOM     45  H13 TSX d   1      40.700  37.509  35.826  0.00  0.00     0.027 H 
ATOM     46  H14 TSX d   1      39.961  38.669  36.981  0.00  0.00     0.027 H 
ENDBRANCH  40  43
ENDBRANCH  37  40
ENDBRANCH  34  37
ENDBRANCH   4  34
BRANCH   3  47
ATOM     47  C31 TSX d   1      35.246  39.658  32.195  0.00  0.00     0.022 C 
ATOM     48  H1  TSX d   1      35.587  38.757  32.725  0.00  0.00     0.071 H 
ATOM     49  H2  TSX d   1      35.297  39.486  31.110  0.00  0.00     0.071 H 
BRANCH  47  50
ATOM     50  C32 TSX d   1      33.814  39.825  32.528  0.00  0.00    -0.094 C 
ATOM     51  C33 TSX d   1      32.808  39.179  31.917  0.00  0.00    -0.123 C 
ATOM     52  H4  TSX d   1      31.779  39.360  32.224  0.00  0.00     0.066 H 
ATOM     53  H5  TSX d   1      33.021  38.474  31.115  0.00  0.00     0.066 H 
ATOM     54  H3  TSX d   1      33.558  40.521  33.325  0.00  0.00     0.078 H 
ENDBRANCH  47  50
ENDBRANCH   3  47
TORSDOF 10
