REMARK  4 active torsions:
REMARK  status: ('A' for Active; 'I' for Inactive)
REMARK    1  A    between atoms: C1_2  and  C2_4 
REMARK    2  A    between atoms: C2_4  and  C3_6 
REMARK    3  A    between atoms: C2_4  and  N1_5 
REMARK    4  A    between atoms: C3_6  and  C4_7 
ROOT
ATOM      1  C3  BRH d   1      41.834  16.121  16.501  0.00  0.00     0.019 C 
ATOM      2  H5  BRH d   1      42.400  16.924  16.996  0.00  0.00     0.047 H 
ATOM      3  H6  BRH d   1      40.762  16.244  16.713  0.00  0.00     0.047 H 
ENDROOT
BRANCH   1   4
ATOM      4  C2  BRH d   1      42.290  14.786  17.067  0.00  0.00     0.188 C 
ATOM      5  H1  BRH d   1      43.247  14.517  16.597  0.00  0.00     0.101 H 
BRANCH   4   6
ATOM      6  C1  BRH d   1      42.503  14.965  18.615  0.00  0.00     0.204 C 
ATOM      7  O1  BRH d   1      43.301  15.889  18.986  0.00  0.00    -0.646 OA
ATOM      8  O2  BRH d   1      41.880  14.175  19.388  0.00  0.00    -0.646 OA
ENDBRANCH   4   6
BRANCH   4   9
ATOM      9  N1  BRH d   1      41.318  13.669  16.822  0.00  0.00    -0.065 N 
ATOM     10  H2  BRH d   1      41.181  13.554  15.830  0.00  0.00     0.275 HD
ATOM     11  H3  BRH d   1      40.437  13.888  17.259  0.00  0.00     0.275 HD
ATOM     12  H4  BRH d   1      41.683  12.814  17.212  0.00  0.00     0.275 HD
ENDBRANCH   4   9
ENDBRANCH   1   4
BRANCH   1  13
ATOM     13  C4  BRH d   1      42.040  16.228  15.050  0.00  0.00     0.102 A 
ATOM     14  O4  BRH d   1      43.343  16.143  14.547  0.00  0.00    -0.238 OA
ATOM     15  N2  BRH d   1      43.353  16.255  13.203  0.00  0.00    -0.224 N 
ATOM     16  C6  BRH d   1      42.061  16.415  12.788  0.00  0.00     0.285 A 
ATOM     17  H7  BRH d   1      44.161  16.226  12.615  0.00  0.00     0.198 HD
ATOM     18  C5  BRH d   1      41.181  16.400  14.001  0.00  0.00     0.112 A 
ATOM     19  O3  BRH d   1      41.686  16.549  11.588  0.00  0.00    -0.265 OA
ATOM     20 BR1  BRH d   1      39.388  16.572  14.078  0.00  0.00    -0.042 Br
ENDBRANCH   1  13
TORSDOF 4
