REMARK  6 active torsions:
REMARK  status: ('A' for Active; 'I' for Inactive)
REMARK    1  A    between atoms: C1_2  and  C2_4 
REMARK    2  A    between atoms: C3_7  and  C8_15 
REMARK    3  A    between atoms: C4_8  and  C5_9 
REMARK    4  A    between atoms: C5_9  and  C6_10 
REMARK    5  A    between atoms: C6_10  and  C7_12 
REMARK    6  A    between atoms: C6_10  and  N2_11 
ROOT
ATOM      1  C2  NON d   1      63.641  67.556  48.818  0.00  0.00     0.169 A 
ATOM      2  N1  NON d   1      64.110  68.052  47.660  0.00  0.00    -0.121 NA
ATOM      3  O3  NON d   1      65.212  68.812  47.983  0.00  0.00    -0.217 OA
ATOM      4  C3  NON d   1      65.418  68.783  49.321  0.00  0.00     0.084 A 
ATOM      5  C4  NON d   1      64.458  67.998  49.930  0.00  0.00     0.014 A 
ENDROOT
BRANCH   5   6
ATOM      6  C5  NON d   1      64.315  67.701  51.400  0.00  0.00    -0.000 C 
ATOM      7  H1  NON d   1      65.294  67.853  51.878  0.00  0.00     0.044 H 
ATOM      8  H2  NON d   1      64.013  66.649  51.510  0.00  0.00     0.044 H 
BRANCH   6   9
ATOM      9  C6  NON d   1      63.284  68.575  52.130  0.00  0.00     0.186 C 
ATOM     10  H3  NON d   1      62.305  68.415  51.655  0.00  0.00     0.101 H 
BRANCH   9  11
ATOM     11  C7  NON d   1      63.160  68.170  53.626  0.00  0.00     0.204 C 
ATOM     12  O5  NON d   1      62.869  66.980  53.845  0.00  0.00    -0.646 OA
ATOM     13  O4  NON d   1      63.366  69.130  54.435  0.00  0.00    -0.646 OA
ENDBRANCH   9  11
BRANCH   9  14
ATOM     14  N2  NON d   1      63.639  70.033  51.989  0.00  0.00    -0.065 N 
ATOM     15  H4  NON d   1      62.955  70.594  52.472  0.00  0.00     0.275 HD
ATOM     16  H5  NON d   1      63.650  70.283  51.013  0.00  0.00     0.275 HD
ATOM     17  H6  NON d   1      64.550  70.197  52.388  0.00  0.00     0.275 HD
ENDBRANCH   9  14
ENDBRANCH   6   9
ENDBRANCH   5   6
BRANCH   1  18
ATOM     18  C1  NON d   1      62.422  66.667  48.894  0.00  0.00     0.231 C 
ATOM     19  O1  NON d   1      61.820  66.381  47.821  0.00  0.00    -0.643 OA
ATOM     20  O2  NON d   1      62.055  66.264  50.065  0.00  0.00    -0.643 OA
ENDBRANCH   1  18
BRANCH   4  21
ATOM     21  C8  NON d   1      66.566  69.562  49.812  0.00  0.00    -0.029 C 
ATOM     22  H7  NON d   1      66.634  69.465  50.906  0.00  0.00     0.036 H 
ATOM     23  H8  NON d   1      66.431  70.621  49.546  0.00  0.00     0.036 H 
ATOM     24  H9  NON d   1      67.490  69.183  49.352  0.00  0.00     0.036 H 
ENDBRANCH   4  21
TORSDOF 6
