REMARK  6 active torsions:
REMARK  status: ('A' for Active; 'I' for Inactive)
REMARK    1  A    between atoms: C1_2  and  C2_4 
REMARK    2  A    between atoms: C3_7  and  C8_15 
REMARK    3  A    between atoms: C4_8  and  C5_9 
REMARK    4  A    between atoms: C5_9  and  C6_10 
REMARK    5  A    between atoms: C6_10  and  C7_12 
REMARK    6  A    between atoms: C6_10  and  N2_11 
ROOT
ATOM      1  C2  NON d   1      63.512  67.505  49.190  0.00  0.00     0.169 A 
ATOM      2  N1  NON d   1      64.035  68.000  48.052  0.00  0.00    -0.121 NA
ATOM      3  O3  NON d   1      65.125  68.759  48.421  0.00  0.00    -0.217 OA
ATOM      4  C3  NON d   1      65.272  68.734  49.767  0.00  0.00     0.084 A 
ATOM      5  C4  NON d   1      64.279  67.949  50.340  0.00  0.00     0.014 A 
ENDROOT
BRANCH   5   6
ATOM      6  C5  NON d   1      64.081  67.663  51.805  0.00  0.00    -0.000 C 
ATOM      7  H1  NON d   1      65.052  67.779  52.309  0.00  0.00     0.044 H 
ATOM      8  H2  NON d   1      63.738  66.623  51.905  0.00  0.00     0.044 H 
BRANCH   6   9
ATOM      9  C6  NON d   1      63.064  68.570  52.517  0.00  0.00     0.186 C 
ATOM     10  H3  NON d   1      62.086  68.432  52.033  0.00  0.00     0.101 H 
BRANCH   9  11
ATOM     11  C7  NON d   1      62.919  68.176  54.022  0.00  0.00     0.204 C 
ATOM     12  O5  NON d   1      62.592  66.998  54.254  0.00  0.00    -0.646 OA
ATOM     13  O4  NON d   1      63.159  69.145  54.821  0.00  0.00    -0.646 OA
ENDBRANCH   9  11
BRANCH   9  14
ATOM     14  N2  NON d   1      63.457  70.013  52.374  0.00  0.00    -0.065 N 
ATOM     15  H4  NON d   1      62.781  70.594  52.846  0.00  0.00     0.275 HD
ATOM     16  H5  NON d   1      63.487  70.258  51.397  0.00  0.00     0.275 HD
ATOM     17  H6  NON d   1      64.367  70.156  52.784  0.00  0.00     0.275 HD
ENDBRANCH   9  14
ENDBRANCH   6   9
ENDBRANCH   5   6
BRANCH   1  18
ATOM     18  C1  NON d   1      62.296  66.620  49.206  0.00  0.00     0.231 C 
ATOM     19  O1  NON d   1      61.737  66.349  48.102  0.00  0.00    -0.643 OA
ATOM     20  O2  NON d   1      61.905  66.169  50.356  0.00  0.00    -0.643 OA
ENDBRANCH   1  18
BRANCH   4  21
ATOM     21  C8  NON d   1      66.402  69.516  50.296  0.00  0.00    -0.029 C 
ATOM     22  H7  NON d   1      66.428  69.427  51.392  0.00  0.00     0.036 H 
ATOM     23  H8  NON d   1      66.279  70.573  50.017  0.00  0.00     0.036 H 
ATOM     24  H9  NON d   1      67.343  69.132  49.874  0.00  0.00     0.036 H 
ENDBRANCH   4  21
TORSDOF 6
