REMARK  7 active torsions:
REMARK  status: ('A' for Active; 'I' for Inactive)
REMARK    1  A    between atoms: C1_2  and  O1_8 
REMARK    2  A    between atoms: C2_3  and  O2_9 
REMARK    3  A    between atoms: C3_4  and  O3_10 
REMARK    4  A    between atoms: C4_5  and  O4_11 
REMARK    5  A    between atoms: C5_6  and  C6_7 
REMARK    6  A    between atoms: C6_7  and  O6_13 
REMARK    7  A    between atoms: O6_13  and  P_14 
ROOT
ATOM      1  H1  M6P d   1      44.690  40.239  18.919  0.00  0.00     0.133 H 
ATOM      2  C1  M6P d   1      43.837  40.282  18.226  0.00  0.00     0.156 C 
ATOM      3  C2  M6P d   1      43.257  38.853  18.090  0.00  0.00     0.110 C 
ATOM      4  C3  M6P d   1      41.873  38.868  17.391  0.00  0.00     0.092 C 
ATOM      5  C4  M6P d   1      40.907  39.759  18.135  0.00  0.00     0.090 C 
ATOM      6  C5  M6P d   1      41.545  41.175  18.125  0.00  0.00     0.090 C 
ATOM      7  O5  M6P d   1      42.843  41.146  18.797  0.00  0.00    -0.349 OA
ATOM      8  H2  M6P d   1      43.952  38.245  17.492  0.00  0.00     0.094 H 
ATOM      9  H3  M6P d   1      41.996  39.256  16.369  0.00  0.00     0.091 H 
ATOM     10  H4  M6P d   1      40.795  39.413  19.173  0.00  0.00     0.091 H 
ATOM     11  H5  M6P d   1      41.491  41.668  17.143  0.00  0.00     0.090 H 
ENDROOT
BRANCH   6  12
ATOM     12  C6  M6P d   1      40.965  42.060  19.521  0.00  0.00     0.059 C 
ATOM     13  H6  M6P d   1      41.688  42.889  19.515  0.00  0.00     0.079 H 
ATOM     14  H7  M6P d   1      41.236  41.342  20.308  0.00  0.00     0.079 H 
BRANCH  12  15
ATOM     15  O6  M6P d   1      39.901  42.699  20.161  0.00  0.00    -0.280 OA
BRANCH  15  16
ATOM     16  P   M6P d   1      40.170  43.917  20.998  0.00  0.00     0.422 P 
ATOM     17  O3P M6P d   1      41.113  43.474  22.208  0.00  0.00    -0.617 OA
ATOM     18  O2P M6P d   1      38.883  44.285  21.510  0.00  0.00    -0.617 OA
ATOM     19  O1P M6P d   1      40.879  44.847  20.176  0.00  0.00    -0.617 OA
ENDBRANCH  15  16
ENDBRANCH  12  15
ENDBRANCH   6  12
BRANCH   5  20
ATOM     20  O4  M6P d   1      39.642  39.726  17.506  0.00  0.00    -0.390 OA
ATOM     21  H11 M6P d   1      39.312  38.835  17.507  0.00  0.00     0.210 HD
ENDBRANCH   5  20
BRANCH   4  22
ATOM     22  O3  M6P d   1      41.359  37.547  17.323  0.00  0.00    -0.390 OA
ATOM     23  H10 M6P d   1      41.265  37.199  18.202  0.00  0.00     0.210 HD
ENDBRANCH   4  22
BRANCH   2  24
ATOM     24  O1  M6P d   1      44.322  40.784  16.975  0.00  0.00    -0.369 OA
ATOM     25  H8  M6P d   1      44.976  40.188  16.628  0.00  0.00     0.212 HD
ENDBRANCH   2  24
BRANCH   3  26
ATOM     26  O2  M6P d   1      43.112  38.270  19.378  0.00  0.00    -0.388 OA
ATOM     27  H9  M6P d   1      42.756  37.394  19.290  0.00  0.00     0.210 HD
ENDBRANCH   3  26
TORSDOF 7
