REMARK  9 active torsions:
REMARK  status: ('A' for Active; 'I' for Inactive)
REMARK    1  A    between atoms: O3A_8  and  PB_1 
REMARK    2  A    between atoms: PA_5  and  O3A_8 
REMARK    3  A    between atoms: PA_5  and  O5_9 
REMARK    4  A    between atoms: O5_9  and  C5_10 
REMARK    5  A    between atoms: C5_10  and  C4_11 
REMARK    6  A    between atoms: C3_13  and  O3_14 
REMARK    7  A    between atoms: C2_15  and  O2_16 
REMARK    8  A    between atoms: C1_17  and  N9_18 
REMARK    9  A    between atoms: C6_22  and  N6_23 
ROOT
ATOM      1  C4  ADP d   1      38.210  93.931  48.255  0.00  0.00     0.089 A 
ATOM      2  O4  ADP d   1      37.274  94.559  47.357  0.00  0.00    -0.353 OA
ATOM      3  C3  ADP d   1      37.957  94.539  49.652  0.00  0.00     0.091 A 
ATOM      4  C2  ADP d   1      36.835  95.563  49.529  0.00  0.00     0.105 A 
ATOM      5  C1  ADP d   1      36.473  95.553  48.050  0.00  0.00     0.139 A 
ATOM      6  H3  ADP d   1      39.234  94.187  47.946  0.00  0.00     0.090 H 
ATOM      7  H4  ADP d   1      37.642  93.736  50.334  0.00  0.00     0.091 H 
ATOM      8  H6  ADP d   1      35.965  95.225  50.112  0.00  0.00     0.093 H 
ATOM      9  H8  ADP d   1      36.731  96.541  47.641  0.00  0.00     0.122 H 
ENDROOT
BRANCH   5  10
ATOM     10  N9  ADP d   1      34.996  95.334  47.793  0.00  0.00    -0.294 N 
ATOM     11  C8  ADP d   1      34.281  94.239  48.155  0.00  0.00     0.071 A 
ATOM     12  N7  ADP d   1      33.003  94.412  47.768  0.00  0.00    -0.236 NA
ATOM     13  H9  ADP d   1      34.675  93.366  48.672  0.00  0.00     0.144 H 
ATOM     14  C5  ADP d   1      32.863  95.610  47.198  0.00  0.00     0.149 A 
ATOM     15  C6  ADP d   1      31.809  96.348  46.615  0.00  0.00     0.155 A 
ATOM     16  C4  ADP d   1      34.158  96.197  47.229  0.00  0.00     0.167 A 
ATOM     17  N1  ADP d   1      32.066  97.601  46.097  0.00  0.00    -0.222 NA
ATOM     18  C2  ADP d   1      33.307  98.137  46.131  0.00  0.00     0.091 A 
ATOM     19  N3  ADP d   1      34.325  97.440  46.680  0.00  0.00    -0.222 NA
ATOM     20  H12 ADP d   1      33.484  99.124  45.719  0.00  0.00     0.146 H 
BRANCH  15  21
ATOM     21  N6  ADP d   1      30.549  95.858  46.554  0.00  0.00    -0.382 N 
ATOM     22  H10 ADP d   1      29.799  96.418  46.123  0.00  0.00     0.157 HD
ATOM     23  H11 ADP d   1      30.340  94.925  46.938  0.00  0.00     0.157 HD
ENDBRANCH  15  21
ENDBRANCH   5  10
BRANCH   4  24
ATOM     24  O2  ADP d   1      37.224  96.860  50.041  0.00  0.00    -0.388 OA
ATOM     25  H7  ADP d   1      37.973  97.180  49.552  0.00  0.00     0.210 HD
ENDBRANCH   4  24
BRANCH   1  26
ATOM     26  C5  ADP d   1      38.073  92.401  48.191  0.00  0.00     0.058 C 
ATOM     27  H1  ADP d   1      37.515  92.098  47.293  0.00  0.00     0.079 H 
ATOM     28  H2  ADP d   1      39.063  91.922  48.187  0.00  0.00     0.079 H 
BRANCH  26  29
ATOM     29  O5  ADP d   1      37.362  92.063  49.355  0.00  0.00    -0.287 OA
BRANCH  29  30
ATOM     30  PA  ADP d   1      37.805  90.905  50.287  0.00  0.00     0.418 P 
ATOM     31  O1A ADP d   1      39.231  91.001  50.686  0.00  0.00    -0.624 OA
ATOM     32  O2A ADP d   1      36.896  90.811  51.423  0.00  0.00    -0.624 OA
BRANCH  30  33
ATOM     33  O3A ADP d   1      37.561  89.687  49.349  0.00  0.00    -0.173 OA
BRANCH  33  34
ATOM     34  PB  ADP d   1      38.439  88.582  48.711  0.00  0.00     0.431 P 
ATOM     35  O1B ADP d   1      38.585  87.422  49.649  0.00  0.00    -0.616 OA
ATOM     36  O2B ADP d   1      39.878  89.274  48.378  0.00  0.00    -0.616 OA
ATOM     37  O3B ADP d   1      37.774  88.115  47.465  0.00  0.00    -0.616 OA
ENDBRANCH  33  34
ENDBRANCH  30  33
ENDBRANCH  29  30
ENDBRANCH  26  29
ENDBRANCH   1  26
BRANCH   3  38
ATOM     38  O3  ADP d   1      39.122  95.163  50.197  0.00  0.00    -0.390 OA
ATOM     39  H5  ADP d   1      39.816  94.519  50.279  0.00  0.00     0.210 HD
ENDBRANCH   3  38
TORSDOF 9
