REMARK  2 active torsions:
REMARK  status: ('A' for Active; 'I' for Inactive)
REMARK    1  A    between atoms: C2_2  and  C10_8 
REMARK    2  A    between atoms: C4_4  and  N9_7 
ROOT
ATOM      1  C1  DQO d   1      43.970  33.109  31.459  0.00  0.00     0.020 A 
ATOM      2  C2  DQO d   1      43.159  31.913  31.316  0.00  0.00    -0.007 A 
ATOM      3  C3  DQO d   1      43.811  30.662  31.068  0.00  0.00    -0.045 A 
ATOM      4  C4  DQO d   1      45.226  30.579  30.953  0.00  0.00     0.033 A 
ATOM      5  C5  DQO d   1      46.008  31.744  31.074  0.00  0.00    -0.030 A 
ATOM      6  C6  DQO d   1      45.410  33.049  31.330  0.00  0.00     0.059 A 
ATOM      7  N11 DQO d   1      46.196  34.293  31.476  0.00  0.00    -0.259 N 
ATOM      8  C12 DQO d   1      45.590  35.544  31.746  0.00  0.00     0.353 A 
ATOM      9  N13 DQO d   1      44.262  35.589  31.868  0.00  0.00    -0.205 NA
ATOM     10  C14 DQO d   1      43.346  34.468  31.741  0.00  0.00     0.021 A 
ATOM     11  O18 DQO d   1      46.207  36.593  31.880  0.00  0.00    -0.244 OA
ATOM     12  C19 DQO d   1      47.383  34.224  31.346  0.00  0.00     0.087 A 
ATOM     13  C28 DQO d   1      48.392  33.860  32.353  0.00  0.00     0.063 A 
ATOM     14  C29 DQO d   1      49.775  33.830  32.028  0.00  0.00    -0.060 A 
ATOM     15  C30 DQO d   1      50.224  34.148  30.701  0.00  0.00    -0.080 A 
ATOM     16  C31 DQO d   1      49.297  34.498  29.672  0.00  0.00    -0.060 A 
ATOM     17  C32 DQO d   1      47.902  34.541  29.959  0.00  0.00     0.063 A 
ATOM     18 CL38 DQO d   1      46.840  34.975  28.596  0.00  0.00    -0.082 Cl
ATOM     19 CL39 DQO d   1      47.963  33.437  33.981  0.00  0.00    -0.082 Cl
ATOM     20  H1  DQO d   1      43.215  29.762  30.966  0.00  0.00     0.088 H 
ATOM     21  H2  DQO d   1      47.085  31.668  30.974  0.00  0.00     0.090 H 
ATOM     22  H3  DQO d   1      42.269  34.594  31.842  0.00  0.00     0.116 H 
ATOM     23  H7  DQO d   1      50.499  33.564  32.790  0.00  0.00     0.086 H 
ATOM     24  H8  DQO d   1      51.284  34.122  30.477  0.00  0.00     0.083 H 
ATOM     25  H9  DQO d   1      49.654  34.730  28.675  0.00  0.00     0.086 H 
ENDROOT
BRANCH   4  26
ATOM     26  N9  DQO d   1      45.942  29.564  30.757  0.00  0.00    -0.378 N 
ATOM     27  C44 DQO d   1      46.597  28.955  31.986  0.00  0.00     0.018 C 
ATOM     28  C43 DQO d   1      46.332  27.428  32.011  0.00  0.00     0.096 C 
ATOM     29  H18 DQO d   1      46.175  29.415  32.892  0.00  0.00     0.066 H 
ATOM     30  H19 DQO d   1      47.681  29.138  31.952  0.00  0.00     0.066 H 
ATOM     31  N42 DQO d   1      46.640  26.797  30.697  0.00  0.00    -0.072 N 
ATOM     32  H16 DQO d   1      46.965  26.968  32.785  0.00  0.00     0.078 H 
ATOM     33  H17 DQO d   1      45.273  27.253  32.252  0.00  0.00     0.078 H 
ATOM     34  C41 DQO d   1      45.912  27.414  29.526  0.00  0.00     0.096 C 
ATOM     35  H14 DQO d   1      47.631  26.879  30.532  0.00  0.00     0.277 HD
ATOM     36  H15 DQO d   1      46.388  25.822  30.748  0.00  0.00     0.277 HD
ATOM     37  C40 DQO d   1      46.152  28.952  29.402  0.00  0.00     0.018 C 
ATOM     38  H12 DQO d   1      46.260  26.929  28.602  0.00  0.00     0.078 H 
ATOM     39  H13 DQO d   1      44.834  27.236  29.650  0.00  0.00     0.078 H 
ATOM     40  H10 DQO d   1      47.180  29.143  29.061  0.00  0.00     0.066 H 
ATOM     41  H11 DQO d   1      45.441  29.384  28.683  0.00  0.00     0.066 H 
ENDBRANCH   4  26
BRANCH   2  42
ATOM     42  C10 DQO d   1      41.658  31.916  31.424  0.00  0.00     0.014 A 
ATOM     43  C24 DQO d   1      40.834  32.437  30.349  0.00  0.00     0.130 A 
ATOM     44  C23 DQO d   1      39.425  32.461  30.444  0.00  0.00    -0.008 A 
ATOM     45  F36 DQO d   1      41.325  32.939  29.186  0.00  0.00    -0.205 F 
ATOM     46  C22 DQO d   1      38.812  31.960  31.622  0.00  0.00     0.119 A 
ATOM     47  H6  DQO d   1      38.823  32.855  29.633  0.00  0.00     0.093 H 
ATOM     48  C21 DQO d   1      39.588  31.431  32.700  0.00  0.00    -0.045 A 
ATOM     49  F37 DQO d   1      37.481  31.989  31.725  0.00  0.00    -0.206 F 
ATOM     50  C20 DQO d   1      41.013  31.415  32.591  0.00  0.00    -0.066 A 
ATOM     51  H5  DQO d   1      39.102  31.047  33.589  0.00  0.00     0.088 H 
ATOM     52  H4  DQO d   1      41.609  31.018  33.405  0.00  0.00     0.085 H 
ENDBRANCH   2  42
TORSDOF 2
