REMARK  10 active torsions:
REMARK  status: ('A' for Active; 'I' for Inactive)
REMARK    1  A    between atoms: O3B_8  and  PG_1 
REMARK    2  A    between atoms: PB_5  and  O3B_8 
REMARK    3  A    between atoms: O3A_12  and  PB_5 
REMARK    4  A    between atoms: PA_9  and  O3A_12 
REMARK    5  A    between atoms: PA_9  and  O5_13 
REMARK    6  A    between atoms: O5_13  and  C5_14 
REMARK    7  A    between atoms: C5_14  and  C4_15 
REMARK    8  A    between atoms: C3_17  and  O3_18 
REMARK    9  A    between atoms: C2_19  and  O2_20 
REMARK   10  A    between atoms: C1_21  and  N9_22 
ROOT
ATOM      1  C4  ATP d   1      56.097  23.969  36.819  0.00  0.00     0.089 C 
ATOM      2  O4  ATP d   1      55.768  24.741  35.651  0.00  0.00    -0.353 OA
ATOM      3  C3  ATP d   1      56.164  25.001  37.970  0.00  0.00     0.091 C 
ATOM      4  C2  ATP d   1      55.244  26.054  37.377  0.00  0.00     0.105 C 
ATOM      5  C1  ATP d   1      55.714  26.093  35.917  0.00  0.00     0.139 C 
ATOM      6  H3  ATP d   1      57.117  23.578  36.691  0.00  0.00     0.090 H 
ATOM      7  H4  ATP d   1      55.782  24.602  38.921  0.00  0.00     0.091 H 
ATOM      8  H6  ATP d   1      54.211  25.679  37.426  0.00  0.00     0.093 H 
ATOM      9  H8  ATP d   1      56.675  26.614  35.795  0.00  0.00     0.122 H 
ENDROOT
BRANCH   1  10
ATOM     10  C5  ATP d   1      55.247  22.779  36.958  0.00  0.00     0.058 C 
ATOM     11  H1  ATP d   1      55.287  22.193  36.028  0.00  0.00     0.079 H 
ATOM     12  H2  ATP d   1      55.614  22.166  37.794  0.00  0.00     0.079 H 
BRANCH  10  13
ATOM     13  O5  ATP d   1      53.854  23.179  37.222  0.00  0.00    -0.287 OA
BRANCH  13  14
ATOM     14  PA  ATP d   1      52.645  22.236  36.941  0.00  0.00     0.417 P 
ATOM     15  O1A ATP d   1      51.564  22.594  37.869  0.00  0.00    -0.624 OA
ATOM     16  O2A ATP d   1      53.109  20.833  36.942  0.00  0.00    -0.624 OA
BRANCH  14  17
ATOM     17  O3A ATP d   1      52.140  22.642  35.462  0.00  0.00    -0.180 OA
BRANCH  17  18
ATOM     18  PB  ATP d   1      50.702  23.075  34.869  0.00  0.00     0.428 P 
ATOM     19  O1B ATP d   1      50.288  24.373  35.456  0.00  0.00    -0.624 OA
ATOM     20  O2B ATP d   1      50.846  23.257  33.426  0.00  0.00    -0.624 OA
BRANCH  18  21
ATOM     21  O3B ATP d   1      49.758  21.832  35.147  0.00  0.00    -0.173 OA
BRANCH  21  22
ATOM     22  PG  ATP d   1      48.234  21.684  35.615  0.00  0.00     0.431 P 
ATOM     23  O1G ATP d   1      48.094  22.327  36.944  0.00  0.00    -0.616 OA
ATOM     24  O2G ATP d   1      47.894  20.254  35.735  0.00  0.00    -0.616 OA
ATOM     25  O3G ATP d   1      47.393  22.376  34.620  0.00  0.00    -0.616 OA
ENDBRANCH  21  22
ENDBRANCH  18  21
ENDBRANCH  17  18
ENDBRANCH  14  17
ENDBRANCH  13  14
ENDBRANCH  10  13
ENDBRANCH   1  10
BRANCH   3  26
ATOM     26  O3  ATP d   1      57.499  25.472  38.143  0.00  0.00    -0.390 OA
ATOM     27  H5  ATP d   1      58.067  24.740  38.351  0.00  0.00     0.210 HD
ENDBRANCH   3  26
BRANCH   5  28
ATOM     28  N9  ATP d   1      54.658  26.648  34.986  0.00  0.00    -0.294 N 
ATOM     29  C8  ATP d   1      53.348  26.205  34.859  0.00  0.00     0.071 A 
ATOM     30  N7  ATP d   1      52.641  26.917  33.939  0.00  0.00    -0.236 NA
ATOM     31  H9  ATP d   1      52.932  25.378  35.433  0.00  0.00     0.144 H 
ATOM     32  C5  ATP d   1      53.552  27.832  33.474  0.00  0.00     0.149 A 
ATOM     33  C6  ATP d   1      53.407  28.875  32.482  0.00  0.00     0.155 A 
ATOM     34  C4  ATP d   1      54.805  27.671  34.115  0.00  0.00     0.167 A 
ATOM     35  N6  ATP d   1      52.291  29.122  31.812  0.00  0.00    -0.382 N 
ATOM     36  N1  ATP d   1      54.543  29.643  32.236  0.00  0.00    -0.222 NA
ATOM     37  H10 ATP d   1      52.264  29.884  31.119  0.00  0.00     0.157 HD
ATOM     38  H11 ATP d   1      51.450  28.552  31.984  0.00  0.00     0.157 HD
ATOM     39  C2  ATP d   1      55.779  29.454  32.887  0.00  0.00     0.091 A 
ATOM     40  N3  ATP d   1      55.900  28.453  33.842  0.00  0.00    -0.222 NA
ATOM     41  H12 ATP d   1      56.627  30.084  32.644  0.00  0.00     0.146 H 
ENDBRANCH   5  28
BRANCH   4  42
ATOM     42  O2  ATP d   1      55.230  27.335  37.954  0.00  0.00    -0.388 OA
ATOM     43  H7  ATP d   1      54.614  27.886  37.485  0.00  0.00     0.210 HD
ENDBRANCH   4  42
TORSDOF 10
