REMARK  11 active torsions:
REMARK  status: ('A' for Active; 'I' for Inactive)
REMARK    1  A    between atoms: O3B_8  and  PG_1 
REMARK    2  A    between atoms: PB_5  and  O3B_8 
REMARK    3  A    between atoms: O3A_12  and  PB_5 
REMARK    4  A    between atoms: PA_9  and  O3A_12 
REMARK    5  A    between atoms: PA_9  and  O5_13 
REMARK    6  A    between atoms: O5_13  and  C5_14 
REMARK    7  A    between atoms: C5_14  and  C4_15 
REMARK    8  A    between atoms: C3_17  and  O3_18 
REMARK    9  A    between atoms: C2_19  and  O2_20 
REMARK   10  A    between atoms: C1_21  and  N9_22 
REMARK   11  A    between atoms: C6_26  and  N6_27 
ROOT
ATOM      1  C4  ATP d   1      39.613  -2.543  52.091  0.00  0.00     0.089 C 
ATOM      2  O4  ATP d   1      39.190  -2.199  53.457  0.00  0.00    -0.353 OA
ATOM      3  C3  ATP d   1      40.667  -3.602  52.064  0.00  0.00     0.091 C 
ATOM      4  C2  ATP d   1      41.285  -3.464  53.499  0.00  0.00     0.105 C 
ATOM      5  C1  ATP d   1      40.189  -2.739  54.382  0.00  0.00     0.139 C 
ATOM      6  H3  ATP d   1      39.802  -1.676  51.441  0.00  0.00     0.090 H 
ATOM      7  H4  ATP d   1      40.175  -4.583  51.993  0.00  0.00     0.091 H 
ATOM      8  H6  ATP d   1      41.488  -4.462  53.915  0.00  0.00     0.093 H 
ATOM      9  H8  ATP d   1      40.665  -1.929  54.953  0.00  0.00     0.122 H 
ENDROOT
BRANCH   1  10
ATOM     10  C5  ATP d   1      38.520  -3.455  51.737  0.00  0.00     0.058 C 
ATOM     11  H1  ATP d   1      38.929  -3.863  50.801  0.00  0.00     0.079 H 
ATOM     12  H2  ATP d   1      38.641  -4.194  52.542  0.00  0.00     0.079 H 
BRANCH  10  13
ATOM     13  O5  ATP d   1      37.289  -3.612  51.504  0.00  0.00    -0.287 OA
BRANCH  13  14
ATOM     14  PA  ATP d   1      35.830  -3.553  51.714  0.00  0.00     0.417 P 
ATOM     15  O1A ATP d   1      35.918  -4.199  50.409  0.00  0.00    -0.624 OA
ATOM     16  O2A ATP d   1      35.637  -2.102  51.901  0.00  0.00    -0.624 OA
BRANCH  14  17
ATOM     17  O3A ATP d   1      35.801  -4.506  52.960  0.00  0.00    -0.180 OA
BRANCH  17  18
ATOM     18  PB  ATP d   1      34.526  -5.068  53.948  0.00  0.00     0.428 P 
ATOM     19  O1B ATP d   1      34.529  -3.814  54.648  0.00  0.00    -0.624 OA
ATOM     20  O2B ATP d   1      35.259  -6.232  54.443  0.00  0.00    -0.624 OA
BRANCH  18  21
ATOM     21  O3B ATP d   1      33.523  -5.229  52.688  0.00  0.00    -0.173 OA
BRANCH  21  22
ATOM     22  PG  ATP d   1      33.060  -6.486  51.717  0.00  0.00     0.431 P 
ATOM     23  O1G ATP d   1      33.570  -6.297  50.305  0.00  0.00    -0.616 OA
ATOM     24  O2G ATP d   1      31.558  -6.540  51.811  0.00  0.00    -0.616 OA
ATOM     25  O3G ATP d   1      33.693  -7.695  52.325  0.00  0.00    -0.616 OA
ENDBRANCH  21  22
ENDBRANCH  18  21
ENDBRANCH  17  18
ENDBRANCH  14  17
ENDBRANCH  13  14
ENDBRANCH  10  13
ENDBRANCH   1  10
BRANCH   3  26
ATOM     26  O3  ATP d   1      41.587  -3.546  50.944  0.00  0.00    -0.390 OA
ATOM     27  H5  ATP d   1      42.045  -2.714  50.953  0.00  0.00     0.210 HD
ENDBRANCH   3  26
BRANCH   5  28
ATOM     28  N9  ATP d   1      39.456  -3.656  55.340  0.00  0.00    -0.294 N 
ATOM     29  C8  ATP d   1      38.097  -4.001  55.387  0.00  0.00     0.071 A 
ATOM     30  N7  ATP d   1      37.791  -4.804  56.361  0.00  0.00    -0.236 NA
ATOM     31  H9  ATP d   1      37.365  -3.629  54.672  0.00  0.00     0.144 H 
ATOM     32  C5  ATP d   1      39.020  -5.005  56.999  0.00  0.00     0.149 A 
ATOM     33  C6  ATP d   1      39.409  -5.764  58.155  0.00  0.00     0.155 A 
ATOM     34  C4  ATP d   1      40.025  -4.309  56.381  0.00  0.00     0.167 A 
ATOM     35  N1  ATP d   1      40.759  -5.747  58.554  0.00  0.00    -0.222 NA
ATOM     36  C2  ATP d   1      41.655  -5.028  57.845  0.00  0.00     0.091 A 
ATOM     37  N3  ATP d   1      41.415  -4.289  56.749  0.00  0.00    -0.222 NA
ATOM     38  H12 ATP d   1      42.679  -5.049  58.199  0.00  0.00     0.146 H 
BRANCH  33  39
ATOM     39  N6  ATP d   1      38.537  -6.493  58.849  0.00  0.00    -0.382 N 
ATOM     40  H10 ATP d   1      38.851  -7.025  59.673  0.00  0.00     0.157 HD
ATOM     41  H11 ATP d   1      37.548  -6.525  58.562  0.00  0.00     0.157 HD
ENDBRANCH  33  39
ENDBRANCH   5  28
BRANCH   4  42
ATOM     42  O2  ATP d   1      42.503  -2.740  53.448  0.00  0.00    -0.388 OA
ATOM     43  H7  ATP d   1      43.119  -3.198  52.889  0.00  0.00     0.210 HD
ENDBRANCH   4  42
TORSDOF 11
