REMARK  3 active torsions:
REMARK  status: ('A' for Active; 'I' for Inactive)
REMARK    1  A    between atoms: C7_14  and  C1_8 
REMARK    2  A    between atoms: C7_14  and  C10_15 
REMARK    3  A    between atoms: C7_14  and  O8_16 
ROOT
ATOM      1  H1  RMN d   1      30.246  19.248  -6.742  0.00  0.00     0.084 H 
ATOM      2  H2  RMN d   1      30.029  20.586  -8.822  0.00  0.00     0.083 H 
ATOM      3  H3  RMN d   1      27.933  21.832  -9.305  0.00  0.00     0.083 H 
ATOM      4  H4  RMN d   1      26.020  21.763  -7.710  0.00  0.00     0.083 H 
ATOM      5  H5  RMN d   1      26.224  20.426  -5.615  0.00  0.00     0.084 H 
ATOM      6  C1  RMN d   1      28.254  19.727  -6.012  0.00  0.00    -0.019 A 
ATOM      7  C2  RMN d   1      29.328  19.788  -6.942  0.00  0.00    -0.074 A 
ATOM      8  C3  RMN d   1      29.205  20.545  -8.119  0.00  0.00    -0.082 A 
ATOM      9  C4  RMN d   1      28.014  21.253  -8.392  0.00  0.00    -0.083 A 
ATOM     10  C5  RMN d   1      26.932  21.217  -7.496  0.00  0.00    -0.082 A 
ATOM     11  C6  RMN d   1      27.053  20.458  -6.312  0.00  0.00    -0.074 A 
ENDROOT
BRANCH   6  12
ATOM     12  C7  RMN d   1      28.395  18.874  -4.692  0.00  0.00     0.144 C 
ATOM     13  H6  RMN d   1      28.299  17.817  -4.979  0.00  0.00     0.107 H 
BRANCH  12  14
ATOM     14  C10 RMN d   1      27.329  19.164  -3.663  0.00  0.00     0.207 C 
ATOM     15  O11 RMN d   1      26.261  18.674  -3.910  0.00  0.00    -0.646 OA
ATOM     16  O12 RMN d   1      27.588  19.824  -2.689  0.00  0.00    -0.646 OA
ENDBRANCH  12  14
BRANCH  12  17
ATOM     17  O8  RMN d   1      29.706  19.058  -4.078  0.00  0.00    -0.380 OA
ATOM     18  H7  RMN d   1      29.797  18.462  -3.344  0.00  0.00     0.211 HD
ENDBRANCH  12  17
ENDBRANCH   6  12
TORSDOF 3
