REMARK  3 active torsions:
REMARK  status: ('A' for Active; 'I' for Inactive)
REMARK    1  A    between atoms: C1_1  and  C7_7 
REMARK    2  A    between atoms: C7_7  and  C10_8 
REMARK    3  A    between atoms: C7_7  and  O8_9 
ROOT
ATOM      1  C1  RMN d   1      36.715   2.157  17.659  0.00  0.00    -0.019 A 
ATOM      2  C2  RMN d   1      38.053   1.974  17.343  0.00  0.00    -0.074 A 
ATOM      3  C3  RMN d   1      38.954   2.995  17.556  0.00  0.00    -0.082 A 
ATOM      4  C4  RMN d   1      38.529   4.209  18.075  0.00  0.00    -0.083 A 
ATOM      5  C5  RMN d   1      37.202   4.408  18.410  0.00  0.00    -0.082 A 
ATOM      6  C6  RMN d   1      36.302   3.379  18.201  0.00  0.00    -0.074 A 
ATOM      7  H1  RMN d   1      38.389   1.030  16.929  0.00  0.00     0.084 H 
ATOM      8  H2  RMN d   1      40.001   2.848  17.317  0.00  0.00     0.083 H 
ATOM      9  H3  RMN d   1      39.245   5.010  18.220  0.00  0.00     0.083 H 
ATOM     10  H4  RMN d   1      36.874   5.353  18.828  0.00  0.00     0.083 H 
ATOM     11  H5  RMN d   1      35.259   3.522  18.461  0.00  0.00     0.084 H 
ENDROOT
BRANCH   1  12
ATOM     12  C7  RMN d   1      35.667   1.034  17.416  0.00  0.00     0.144 C 
ATOM     13  H6  RMN d   1      35.087   1.333  16.531  0.00  0.00     0.107 H 
BRANCH  12  14
ATOM     14  C10 RMN d   1      34.686   0.955  18.579  0.00  0.00     0.207 C 
ATOM     15  O11 RMN d   1      34.022   1.948  18.730  0.00  0.00    -0.646 OA
ATOM     16  O12 RMN d   1      34.642  -0.032  19.285  0.00  0.00    -0.646 OA
ENDBRANCH  12  14
BRANCH  12  17
ATOM     17  O8  RMN d   1      36.260  -0.264  17.094  0.00  0.00    -0.380 OA
ATOM     18  H7  RMN d   1      36.730  -0.593  17.852  0.00  0.00     0.211 HD
ENDBRANCH  12  17
ENDBRANCH   1  12
TORSDOF 3
