REMARK  14 active torsions:
REMARK  status: ('A' for Active; 'I' for Inactive)
REMARK    1  A    between atoms: C12_1  and  C2_2 
REMARK    2  A    between atoms: C12_1  and  C14_5 
REMARK    3  A    between atoms: C2_2  and  O1_3 
REMARK    4  A    between atoms: C14_5  and  C15_6 
REMARK    5  A    between atoms: C14_5  and  N23_14 
REMARK    6  A    between atoms: C15_6  and  C16_7 
REMARK    7  A    between atoms: C16_7  and  C17_8 
REMARK       I    between atoms: N23_14  and  C24_15 
REMARK    8  A    between atoms: C24_15  and  C26_17 
REMARK    9  A    between atoms: C26_17  and  C27_18 
REMARK   10  A    between atoms: C26_17  and  N34_25 
REMARK   11  A    between atoms: C27_18  and  C28_19 
REMARK       I    between atoms: N34_25  and  C35_26 
REMARK   12  A    between atoms: C35_26  and  O37_28 
REMARK   13  A    between atoms: O37_28  and  C38_29 
REMARK   14  A    between atoms: C38_29  and  C39_30 
ROOT
ATOM      1  C26 P10 d   1       1.805  10.698   6.653  0.00  0.00     0.095 C 
ATOM      2  H15 P10 d   1       1.205  11.362   7.293  0.00  0.00     0.088 H 
ENDROOT
BRANCH   1   3
ATOM      3  C24 P10 d   1       3.277  11.098   6.741  0.00  0.00     0.241 C 
ATOM      4  N23 P10 d   1       3.640  11.777   7.878  0.00  0.00    -0.348 N 
ATOM      5  H14 P10 d   1       2.957  11.935   8.591  0.00  0.00     0.163 HD
ATOM      6  O25 P10 d   1       4.095  10.779   5.872  0.00  0.00    -0.271 OA
BRANCH   4   7
ATOM      7  C14 P10 d   1       5.026  12.284   8.075  0.00  0.00     0.072 C 
ATOM      8  H4  P10 d   1       5.534  12.184   7.104  0.00  0.00     0.084 H 
BRANCH   7   9
ATOM      9  C12 P10 d   1       5.869  11.578   9.067  0.00  0.00     0.172 C 
ATOM     10  O13 P10 d   1       7.096  11.642   9.155  0.00  0.00    -0.293 OA
BRANCH   9  11
ATOM     11  C2  P10 d   1       5.139  10.809   9.983  0.00  0.00     0.073 C 
ATOM     12  H1  P10 d   1       4.938   9.815   9.556  0.00  0.00     0.085 H 
ATOM     13  H2  P10 d   1       4.186  11.309  10.211  0.00  0.00     0.085 H 
BRANCH  11  14
ATOM     14  O1  P10 d   1       5.913  10.673  11.182  0.00  0.00    -0.394 OA
ATOM     15  H3  P10 d   1       5.429  10.153  11.813  0.00  0.00     0.209 HD
ENDBRANCH  11  14
ENDBRANCH   9  11
ENDBRANCH   7   9
BRANCH   7  16
ATOM     16  C15 P10 d   1       4.981  13.748   8.431  0.00  0.00    -0.036 C 
ATOM     17  H5  P10 d   1       5.990  14.108   8.680  0.00  0.00     0.037 H 
ATOM     18  H6  P10 d   1       4.313  13.908   9.290  0.00  0.00     0.037 H 
BRANCH  16  19
ATOM     19  C16 P10 d   1       4.440  14.497   7.189  0.00  0.00    -0.039 C 
ATOM     20  H7  P10 d   1       3.477  14.055   6.895  0.00  0.00     0.040 H 
ATOM     21  H8  P10 d   1       5.160  14.390   6.364  0.00  0.00     0.040 H 
BRANCH  19  22
ATOM     22  C17 P10 d   1       4.239  15.967   7.480  0.00  0.00    -0.058 A 
ATOM     23  C18 P10 d   1       5.331  16.829   7.298  0.00  0.00    -0.077 A 
ATOM     24  C19 P10 d   1       5.229  18.210   7.487  0.00  0.00    -0.082 A 
ATOM     25  H9  P10 d   1       6.285  16.410   7.001  0.00  0.00     0.084 H 
ATOM     26  C20 P10 d   1       4.020  18.726   7.997  0.00  0.00    -0.083 A 
ATOM     27  H10 P10 d   1       6.057  18.867   7.248  0.00  0.00     0.083 H 
ATOM     28  C21 P10 d   1       2.904  17.882   8.172  0.00  0.00    -0.082 A 
ATOM     29  H11 P10 d   1       3.948  19.776   8.256  0.00  0.00     0.083 H 
ATOM     30  C22 P10 d   1       3.014  16.504   7.921  0.00  0.00    -0.077 A 
ATOM     31  H12 P10 d   1       1.958  18.298   8.501  0.00  0.00     0.083 H 
ATOM     32  H13 P10 d   1       2.158  15.855   8.066  0.00  0.00     0.084 H 
ENDBRANCH  19  22
ENDBRANCH  16  19
ENDBRANCH   7  16
ENDBRANCH   4   7
ENDBRANCH   1   3
BRANCH   1  33
ATOM     33  C27 P10 d   1       1.622   9.226   7.095  0.00  0.00    -0.014 C 
ATOM     34  H16 P10 d   1       1.760   9.178   8.185  0.00  0.00     0.043 H 
ATOM     35  H17 P10 d   1       2.398   8.623   6.601  0.00  0.00     0.043 H 
BRANCH  33  36
ATOM     36  C28 P10 d   1       0.265   8.613   6.763  0.00  0.00    -0.056 C 
ATOM     37  C29 P10 d   1       0.248   7.403   6.016  0.00  0.00    -0.077 C 
ATOM     38  C30 P10 d   1      -0.986   6.821   5.633  0.00  0.00    -0.082 C 
ATOM     39  H18 P10 d   1       1.181   6.925   5.739  0.00  0.00     0.084 H 
ATOM     40  C31 P10 d   1      -2.197   7.388   6.102  0.00  0.00    -0.083 C 
ATOM     41  H19 P10 d   1      -1.003   5.950   4.987  0.00  0.00     0.083 H 
ATOM     42  C32 P10 d   1      -2.164   8.616   6.802  0.00  0.00    -0.082 C 
ATOM     43  H20 P10 d   1      -3.141   6.885   5.926  0.00  0.00     0.083 H 
ATOM     44  C33 P10 d   1      -0.930   9.168   7.189  0.00  0.00    -0.077 C 
ATOM     45  H21 P10 d   1      -3.088   9.131   7.040  0.00  0.00     0.083 H 
ATOM     46  H22 P10 d   1      -0.914  10.041   7.831  0.00  0.00     0.084 H 
ENDBRANCH  33  36
ENDBRANCH   1  33
BRANCH   1  47
ATOM     47  N34 P10 d   1       1.333  10.791   5.222  0.00  0.00    -0.323 N 
ATOM     48  C35 P10 d   1       1.035  12.005   4.675  0.00  0.00     0.361 C 
ATOM     49  O36 P10 d   1       0.949  13.056   5.321  0.00  0.00    -0.238 OA
ATOM     50  H23 P10 d   1       1.238   9.960   4.673  0.00  0.00     0.165 HD
BRANCH  48  51
ATOM     51  O37 P10 d   1       0.876  11.861   3.334  0.00  0.00    -0.299 OA
BRANCH  51  52
ATOM     52  C38 P10 d   1       0.462  13.053   2.590  0.00  0.00     0.056 C 
ATOM     53  H24 P10 d   1       1.096  13.910   2.859  0.00  0.00     0.082 H 
ATOM     54  H25 P10 d   1      -0.590  13.292   2.807  0.00  0.00     0.082 H 
BRANCH  52  55
ATOM     55  C39 P10 d   1       0.631  12.715   1.132  0.00  0.00    -0.016 A 
ATOM     56  C40 P10 d   1      -0.328  12.002   0.400  0.00  0.00    -0.072 A 
ATOM     57  C41 P10 d   1      -0.057  11.673  -0.937  0.00  0.00    -0.065 A 
ATOM     58  H26 P10 d   1      -1.265  11.709   0.860  0.00  0.00     0.084 H 
ATOM     59  C42 P10 d   1       1.092  12.175  -1.561  0.00  0.00     0.002 A 
ATOM     60  H27 P10 d   1      -0.736  11.031  -1.486  0.00  0.00     0.085 H 
ATOM     61  N43 P10 d   1       2.002  12.878  -0.825  0.00  0.00    -0.272 NA
ATOM     62  H28 P10 d   1       1.257  12.007  -2.619  0.00  0.00     0.114 H 
ATOM     63  C44 P10 d   1       1.798  13.149   0.495  0.00  0.00     0.010 A 
ATOM     64  H29 P10 d   1       2.543  13.703   1.054  0.00  0.00     0.115 H 
ENDBRANCH  52  55
ENDBRANCH  51  52
ENDBRANCH  48  51
ENDBRANCH   1  47
TORSDOF 14
