REMARK  13 active torsions:
REMARK  status: ('A' for Active; 'I' for Inactive)
REMARK    1  A    between atoms: O1_1  and  C6_2 
REMARK    2  A    between atoms: C6_2  and  C7_3 
REMARK    3  A    between atoms: C7_3  and  C9_5 
REMARK    4  A    between atoms: C9_5  and  C10_6 
REMARK    5  A    between atoms: C9_5  and  N17_13 
REMARK    6  A    between atoms: C10_6  and  C11_7 
REMARK       I    between atoms: N17_13  and  C18_14 
REMARK    7  A    between atoms: C18_14  and  C20_16 
REMARK    8  A    between atoms: C20_16  and  C21_17 
REMARK    9  A    between atoms: C20_16  and  N28_24 
REMARK   10  A    between atoms: C21_17  and  C22_18 
REMARK       I    between atoms: N28_24  and  C29_25 
REMARK   11  A    between atoms: C29_25  and  O31_27 
REMARK   12  A    between atoms: O31_27  and  C32_28 
REMARK   13  A    between atoms: C32_28  and  C33_29 
ROOT
ATOM      1  C20 T10 d   1       1.858  10.811   6.735  0.00  0.00     0.095 C 
ATOM      2  H13 T10 d   1       1.203  11.388   7.404  0.00  0.00     0.088 H 
ENDROOT
BRANCH   1   3
ATOM      3  C18 T10 d   1       3.312  11.316   6.830  0.00  0.00     0.241 C 
ATOM      4  N17 T10 d   1       3.612  11.950   7.998  0.00  0.00    -0.347 N 
ATOM      5  H12 T10 d   1       2.928  11.954   8.727  0.00  0.00     0.163 HD
ATOM      6  O19 T10 d   1       4.143  11.120   5.929  0.00  0.00    -0.271 OA
BRANCH   4   7
ATOM      7  C9  T10 d   1       4.931  12.647   8.243  0.00  0.00     0.076 C 
ATOM      8  H4  T10 d   1       5.365  12.935   7.274  0.00  0.00     0.085 H 
BRANCH   7   9
ATOM      9  C7  T10 d   1       5.929  11.799   9.024  0.00  0.00     0.172 C 
ATOM     10  O8  T10 d   1       7.149  11.739   9.016  0.00  0.00    -0.293 OA
BRANCH   9  11
ATOM     11  C6  T10 d   1       5.266  10.809   9.963  0.00  0.00     0.073 C 
ATOM     12  H2  T10 d   1       4.296  11.183  10.324  0.00  0.00     0.085 H 
ATOM     13  H3  T10 d   1       5.125   9.829   9.483  0.00  0.00     0.085 H 
BRANCH  11  14
ATOM     14  O1  T10 d   1       6.218  10.743  11.007  0.00  0.00    -0.394 OA
ATOM     15  H1  T10 d   1       5.912  10.140  11.675  0.00  0.00     0.209 HD
ENDBRANCH  11  14
ENDBRANCH   9  11
ENDBRANCH   7   9
BRANCH   7  16
ATOM     16  C10 T10 d   1       4.703  13.908   9.139  0.00  0.00    -0.015 C 
ATOM     17  H5  T10 d   1       4.320  13.569  10.113  0.00  0.00     0.043 H 
ATOM     18  H6  T10 d   1       3.949  14.542   8.649  0.00  0.00     0.043 H 
BRANCH  16  19
ATOM     19  C11 T10 d   1       5.935  14.753   9.388  0.00  0.00    -0.056 A 
ATOM     20  C12 T10 d   1       6.194  15.832   8.498  0.00  0.00    -0.077 A 
ATOM     21  C13 T10 d   1       7.353  16.634   8.684  0.00  0.00    -0.082 A 
ATOM     22  H7  T10 d   1       5.511  16.042   7.682  0.00  0.00     0.084 H 
ATOM     23  C14 T10 d   1       8.263  16.390   9.725  0.00  0.00    -0.083 A 
ATOM     24  H8  T10 d   1       7.539  17.457   8.003  0.00  0.00     0.083 H 
ATOM     25  C15 T10 d   1       8.021  15.345  10.643  0.00  0.00    -0.082 A 
ATOM     26  H9  T10 d   1       9.151  17.004   9.824  0.00  0.00     0.083 H 
ATOM     27  C16 T10 d   1       6.857  14.626  10.447  0.00  0.00    -0.077 A 
ATOM     28  H10 T10 d   1       8.706  15.120  11.452  0.00  0.00     0.083 H 
ATOM     29  H11 T10 d   1       6.626  13.877  11.195  0.00  0.00     0.084 H 
ENDBRANCH  16  19
ENDBRANCH   7  16
ENDBRANCH   4   7
ENDBRANCH   1   3
BRANCH   1  30
ATOM     30  C21 T10 d   1       1.835   9.315   7.140  0.00  0.00    -0.014 C 
ATOM     31  H14 T10 d   1       1.985   9.239   8.227  0.00  0.00     0.043 H 
ATOM     32  H15 T10 d   1       2.652   8.793   6.620  0.00  0.00     0.043 H 
BRANCH  30  33
ATOM     33  C22 T10 d   1       0.498   8.639   6.773  0.00  0.00    -0.056 A 
ATOM     34  C23 T10 d   1       0.539   7.440   6.014  0.00  0.00    -0.077 A 
ATOM     35  C24 T10 d   1      -0.694   6.821   5.730  0.00  0.00    -0.082 A 
ATOM     36  H16 T10 d   1       1.477   7.020   5.669  0.00  0.00     0.084 H 
ATOM     37  C25 T10 d   1      -1.928   7.394   6.099  0.00  0.00    -0.083 A 
ATOM     38  H17 T10 d   1      -0.694   5.870   5.209  0.00  0.00     0.083 H 
ATOM     39  C26 T10 d   1      -1.930   8.602   6.821  0.00  0.00    -0.082 A 
ATOM     40  H18 T10 d   1      -2.861   6.912   5.831  0.00  0.00     0.083 H 
ATOM     41  C27 T10 d   1      -0.724   9.197   7.168  0.00  0.00    -0.077 A 
ATOM     42  H19 T10 d   1      -2.868   9.066   7.105  0.00  0.00     0.083 H 
ATOM     43  H20 T10 d   1      -0.729  10.109   7.755  0.00  0.00     0.084 H 
ENDBRANCH  30  33
ENDBRANCH   1  30
BRANCH   1  44
ATOM     44  N28 T10 d   1       1.430  10.987   5.332  0.00  0.00    -0.323 N 
ATOM     45  C29 T10 d   1       1.135  12.154   4.737  0.00  0.00     0.361 C 
ATOM     46  O30 T10 d   1       1.001  13.183   5.383  0.00  0.00    -0.238 OA
ATOM     47  H21 T10 d   1       1.353  10.161   4.774  0.00  0.00     0.165 HD
BRANCH  45  48
ATOM     48  O31 T10 d   1       0.975  12.035   3.388  0.00  0.00    -0.299 OA
BRANCH  48  49
ATOM     49  C32 T10 d   1       0.634  13.284   2.665  0.00  0.00     0.054 C 
ATOM     50  H22 T10 d   1       1.327  14.091   2.942  0.00  0.00     0.082 H 
ATOM     51  H23 T10 d   1      -0.397  13.592   2.893  0.00  0.00     0.082 H 
BRANCH  49  52
ATOM     52  C33 T10 d   1       0.773  12.949   1.209  0.00  0.00    -0.034 A 
ATOM     53  C34 T10 d   1      -0.284  12.326   0.508  0.00  0.00    -0.075 A 
ATOM     54  C35 T10 d   1      -0.113  12.014  -0.836  0.00  0.00    -0.082 A 
ATOM     55  H24 T10 d   1      -1.216  12.095   1.011  0.00  0.00     0.084 H 
ATOM     56  C36 T10 d   1       1.088  12.298  -1.506  0.00  0.00    -0.083 A 
ATOM     57  H25 T10 d   1      -0.924  11.541  -1.378  0.00  0.00     0.083 H 
ATOM     58  C37 T10 d   1       2.104  12.964  -0.827  0.00  0.00    -0.082 A 
ATOM     59  H26 T10 d   1       1.222  12.002  -2.540  0.00  0.00     0.083 H 
ATOM     60  C38 T10 d   1       1.975  13.234   0.561  0.00  0.00    -0.075 A 
ATOM     61  H27 T10 d   1       2.995  13.277  -1.359  0.00  0.00     0.083 H 
ATOM     62  H28 T10 d   1       2.805  13.659   1.113  0.00  0.00     0.084 H 
ENDBRANCH  49  52
ENDBRANCH  48  49
ENDBRANCH  45  48
ENDBRANCH   1  44
TORSDOF 13
