REMARK  7 active torsions:
REMARK  status: ('A' for Active; 'I' for Inactive)
REMARK    1  A    between atoms: P_1  and  O5'_5 
REMARK    2  A    between atoms: O5'_5  and  C5'_6 
REMARK    3  A    between atoms: C5'_6  and  C4'_7 
REMARK    4  A    between atoms: C3'_9  and  O3'_10 
REMARK    5  A    between atoms: C2'_11  and  O2'_12 
REMARK    6  A    between atoms: C1'_13  and  N9_14 
REMARK    7  A    between atoms: C5_17  and  C6_18 
REMARK       I    between atoms: C6_18  and  N1_20 
ROOT
ATOM      1  C4' RVP d   1      64.521  54.418  16.985  0.00  0.00     0.089 C 
ATOM      2  O4' RVP d   1      63.766  55.605  16.540  0.00  0.00    -0.352 OA
ATOM      3  C3' RVP d   1      63.437  53.370  17.179  0.00  0.00     0.091 C 
ATOM      4  C2' RVP d   1      62.343  54.162  17.832  0.00  0.00     0.106 C 
ATOM      5  C1' RVP d   1      62.434  55.486  17.067  0.00  0.00     0.154 C 
ATOM      6  H3  RVP d   1      65.007  54.595  17.956  0.00  0.00     0.090 H 
ATOM      7  H4  RVP d   1      63.092  53.012  16.198  0.00  0.00     0.091 H 
ATOM      8  H6  RVP d   1      61.370  53.688  17.638  0.00  0.00     0.094 H 
ATOM      9  H8  RVP d   1      62.234  56.309  17.769  0.00  0.00     0.125 H 
ENDROOT
BRANCH   5  10
ATOM     10  N9  RVP d   1      61.475  55.602  15.903  0.00  0.00    -0.229 N 
ATOM     11  C8  RVP d   1      60.989  54.694  14.978  0.00  0.00     0.088 A 
ATOM     12  N7  RVP d   1      60.171  55.231  14.129  0.00  0.00    -0.216 NA
ATOM     13  H9  RVP d   1      61.265  53.641  14.965  0.00  0.00     0.146 H 
ATOM     14  C5  RVP d   1      60.084  56.544  14.468  0.00  0.00     0.238 A 
ATOM     15  N4  RVP d   1      60.883  56.810  15.574  0.00  0.00    -0.143 NA
BRANCH  14  16
ATOM     16  C6  RVP d   1      59.329  57.634  13.877  0.00  0.00     0.288 C 
ATOM     17  O6  RVP d   1      58.592  57.567  12.906  0.00  0.00    -0.264 OA
ATOM     18  N1  RVP d   1      59.501  58.902  14.532  0.00  0.00    -0.363 N 
ATOM     19  H10 RVP d   1      59.019  59.710  14.193  0.00  0.00     0.159 HD
ATOM     20  H11 RVP d   1      60.103  58.977  15.327  0.00  0.00     0.159 HD
ENDBRANCH  14  16
ENDBRANCH   5  10
BRANCH   4  21
ATOM     21  O2' RVP d   1      62.482  54.278  19.236  0.00  0.00    -0.388 OA
ATOM     22  H7  RVP d   1      62.476  53.412  19.626  0.00  0.00     0.210 HD
ENDBRANCH   4  21
BRANCH   1  23
ATOM     23  C5' RVP d   1      65.601  54.207  15.962  0.00  0.00     0.059 C 
ATOM     24  H1  RVP d   1      66.107  53.252  16.167  0.00  0.00     0.079 H 
ATOM     25  H2  RVP d   1      65.145  54.173  14.962  0.00  0.00     0.079 H 
BRANCH  23  26
ATOM     26  O5' RVP d   1      66.564  55.260  15.998  0.00  0.00    -0.280 OA
BRANCH  26  27
ATOM     27  P   RVP d   1      67.806  55.192  15.010  0.00  0.00     0.422 P 
ATOM     28  O1P RVP d   1      67.447  55.106  13.566  0.00  0.00    -0.617 OA
ATOM     29  O2P RVP d   1      68.618  53.993  15.386  0.00  0.00    -0.617 OA
ATOM     30  O3P RVP d   1      68.589  56.489  15.335  0.00  0.00    -0.617 OA
ENDBRANCH  26  27
ENDBRANCH  23  26
ENDBRANCH   1  23
BRANCH   3  31
ATOM     31  O3' RVP d   1      63.863  52.229  17.914  0.00  0.00    -0.390 OA
ATOM     32  H5  RVP d   1      64.151  52.500  18.778  0.00  0.00     0.210 HD
ENDBRANCH   3  31
TORSDOF 7
