REMARK  14 active torsions:
REMARK  status: ('A' for Active; 'I' for Inactive)
REMARK       I    between atoms: C1_2  and  N1_1 
REMARK       I    between atoms: N_9  and  C1_2 
REMARK    1  A    between atoms: CA_10  and  N_9 
REMARK    2  A    between atoms: C_11  and  CA_10 
REMARK    3  A    between atoms: CA_10  and  CB_13 
REMARK       I    between atoms: N_21  and  C_11 
REMARK    4  A    between atoms: CB_13  and  CG_14 
REMARK    5  A    between atoms: CG_14  and  CD1_15 
REMARK    6  A    between atoms: CG_14  and  CD2_16 
REMARK    7  A    between atoms: C1_18  and  C2_19 
REMARK    8  A    between atoms: S1_35  and  C1_18 
REMARK    9  A    between atoms: C2_19  and  C3_20 
REMARK   10  A    between atoms: C3_20  and  N_21 
REMARK   11  A    between atoms: C3_20  and  C4_22 
REMARK   12  A    between atoms: C4_22  and  C5_23 
REMARK   13  A    between atoms: C5_23  and  C1'_24 
REMARK   14  A    between atoms: C4_34  and  S1_35 
ROOT
ATOM      1  C3  0D6 d   1      19.620   5.922   5.809  0.00  0.00     0.013 C 
ATOM      2  H26 0D6 d   1      20.084   5.968   6.805  0.00  0.00     0.072 H 
ENDROOT
BRANCH   1   3
ATOM      3  C2  0D6 d   1      18.165   6.409   5.974  0.00  0.00    -0.034 C 
ATOM      4  H24 0D6 d   1      17.615   5.679   6.586  0.00  0.00     0.037 H 
ATOM      5  H25 0D6 d   1      18.174   7.383   6.485  0.00  0.00     0.037 H 
BRANCH   3   6
ATOM      6  C1  0D6 d   1      17.437   6.567   4.612  0.00  0.00     0.035 C 
ATOM      7  H22 0D6 d   1      16.493   6.003   4.627  0.00  0.00     0.056 H 
ATOM      8  H23 0D6 d   1      18.077   6.188   3.802  0.00  0.00     0.056 H 
BRANCH   6   9
ATOM      9  S1  0D6 d   1      17.093   8.339   4.349  0.00  0.00     0.175 S 
ATOM     10  O1  0D6 d   1      15.807   8.974   4.966  0.00  0.00    -0.223 OA
ATOM     11  O2  0D6 d   1      18.323   9.217   4.677  0.00  0.00    -0.223 OA
BRANCH   9  12
ATOM     12  C4  0D6 d   1      16.931   8.502   2.593  0.00  0.00     0.059 A 
ATOM     13  C3  0D6 d   1      16.790   9.775   1.994  0.00  0.00    -0.062 A 
ATOM     14  C2  0D6 d   1      16.272   9.914   0.695  0.00  0.00    -0.082 A 
ATOM     15  H39 0D6 d   1      17.087  10.659   2.546  0.00  0.00     0.085 H 
ATOM     16  C1  0D6 d   1      15.866   8.793  -0.030  0.00  0.00    -0.083 A 
ATOM     17  H38 0D6 d   1      16.187  10.900   0.253  0.00  0.00     0.083 H 
ATOM     18  C6  0D6 d   1      15.983   7.530   0.527  0.00  0.00    -0.082 A 
ATOM     19  H37 0D6 d   1      15.460   8.910  -1.028  0.00  0.00     0.083 H 
ATOM     20  C5  0D6 d   1      16.510   7.379   1.819  0.00  0.00    -0.062 A 
ATOM     21  H41 0D6 d   1      15.668   6.658  -0.035  0.00  0.00     0.083 H 
ATOM     22  H40 0D6 d   1      16.600   6.384   2.240  0.00  0.00     0.085 H 
ENDBRANCH   9  12
ENDBRANCH   6   9
ENDBRANCH   3   6
ENDBRANCH   1   3
BRANCH   1  23
ATOM     23  N   0D6 d   1      19.676   4.544   5.368  0.00  0.00    -0.355 N 
ATOM     24  C   0D6 d   1      20.104   3.574   6.163  0.00  0.00     0.240 C 
ATOM     25  O   0D6 d   1      20.603   3.777   7.267  0.00  0.00    -0.271 OA
ATOM     26  H27 0D6 d   1      19.384   4.318   4.439  0.00  0.00     0.162 HD
BRANCH  24  27
ATOM     27  CA  0D6 d   1      20.085   2.182   5.590  0.00  0.00     0.091 C 
ATOM     28  H12 0D6 d   1      19.844   2.225   4.518  0.00  0.00     0.087 H 
BRANCH  27  29
ATOM     29  N   0D6 d   1      21.408   1.597   5.763  0.00  0.00    -0.330 N 
ATOM     30  C1  0D6 d   1      22.467   2.154   5.176  0.00  0.00     0.319 C 
ATOM     31  N1  0D6 d   1      23.684   1.627   5.333  0.00  0.00    -0.331 N 
ATOM     32  O1  0D6 d   1      22.315   3.094   4.395  0.00  0.00    -0.247 OA
ATOM     33  C2  0D6 d   1      24.889   2.186   4.636  0.00  0.00     0.022 C 
ATOM     34  C6  0D6 d   1      23.942   0.354   6.060  0.00  0.00     0.022 C 
ATOM     35  C3  0D6 d   1      26.104   2.190   5.488  0.00  0.00     0.096 C 
ATOM     36  H1  0D6 d   1      24.670   3.221   4.334  0.00  0.00     0.067 H 
ATOM     37  H2  0D6 d   1      25.090   1.577   3.742  0.00  0.00     0.067 H 
ATOM     38  N4  0D6 d   1      26.345   0.849   6.018  0.00  0.00    -0.072 N 
ATOM     39  H3  0D6 d   1      25.962   2.892   6.323  0.00  0.00     0.078 H 
ATOM     40  H4  0D6 d   1      26.970   2.506   4.887  0.00  0.00     0.078 H 
ATOM     41  C5  0D6 d   1      25.237   0.357   6.833  0.00  0.00     0.096 C 
ATOM     42  H5  0D6 d   1      27.178   0.872   6.586  0.00  0.00     0.277 HD
ATOM     43  H6  0D6 d   1      26.482   0.217   5.245  0.00  0.00     0.277 HD
ATOM     44  H7  0D6 d   1      25.126   1.006   7.714  0.00  0.00     0.078 H 
ATOM     45  H8  0D6 d   1      25.461  -0.669   7.159  0.00  0.00     0.078 H 
ATOM     46  H9  0D6 d   1      23.976  -0.466   5.327  0.00  0.00     0.067 H 
ATOM     47  H10 0D6 d   1      23.116   0.182   6.765  0.00  0.00     0.067 H 
ATOM     48  H11 0D6 d   1      21.522   0.776   6.323  0.00  0.00     0.165 HD
ENDBRANCH  27  29
BRANCH  27  49
ATOM     49  CB  0D6 d   1      19.020   1.366   6.308  0.00  0.00    -0.035 C 
ATOM     50  H13 0D6 d   1      18.218   2.070   6.576  0.00  0.00     0.037 H 
ATOM     51  H14 0D6 d   1      19.491   0.980   7.224  0.00  0.00     0.037 H 
BRANCH  49  52
ATOM     52  CG  0D6 d   1      18.340   0.174   5.637  0.00  0.00    -0.059 C 
ATOM     53  H15 0D6 d   1      17.279   0.432   5.502  0.00  0.00     0.038 H 
BRANCH  52  54
ATOM     54  CD1 0D6 d   1      18.880  -0.171   4.260  0.00  0.00    -0.073 C 
ATOM     55  H16 0D6 d   1      18.333  -1.037   3.858  0.00  0.00     0.028 H 
ATOM     56  H17 0D6 d   1      19.950  -0.416   4.336  0.00  0.00     0.028 H 
ATOM     57  H18 0D6 d   1      18.748   0.690   3.588  0.00  0.00     0.028 H 
ENDBRANCH  52  54
BRANCH  52  58
ATOM     58  CD2 0D6 d   1      18.417  -0.985   6.585  0.00  0.00    -0.073 C 
ATOM     59  H19 0D6 d   1      18.015  -0.685   7.564  0.00  0.00     0.028 H 
ATOM     60  H20 0D6 d   1      19.466  -1.297   6.699  0.00  0.00     0.028 H 
ATOM     61  H21 0D6 d   1      17.826  -1.823   6.188  0.00  0.00     0.028 H 
ENDBRANCH  52  58
ENDBRANCH  49  52
ENDBRANCH  27  49
ENDBRANCH  24  27
ENDBRANCH   1  23
BRANCH   1  62
ATOM     62  C4  0D6 d   1      20.460   6.805   4.883  0.00  0.00    -0.043 C 
ATOM     63  H28 0D6 d   1      20.311   7.857   5.168  0.00  0.00     0.036 H 
ATOM     64  H29 0D6 d   1      20.120   6.654   3.848  0.00  0.00     0.036 H 
BRANCH  62  65
ATOM     65  C5  0D6 d   1      21.948   6.483   4.961  0.00  0.00    -0.039 C 
ATOM     66  H30 0D6 d   1      22.089   5.413   4.747  0.00  0.00     0.040 H 
ATOM     67  H31 0D6 d   1      22.304   6.703   5.978  0.00  0.00     0.040 H 
BRANCH  65  68
ATOM     68  C1' 0D6 d   1      22.765   7.285   3.979  0.00  0.00    -0.058 A 
ATOM     69  C2' 0D6 d   1      23.248   6.684   2.801  0.00  0.00    -0.077 A 
ATOM     70  C3' 0D6 d   1      23.922   7.464   1.847  0.00  0.00    -0.082 A 
ATOM     71  H32 0D6 d   1      23.100   5.624   2.631  0.00  0.00     0.084 H 
ATOM     72  C4' 0D6 d   1      24.117   8.837   2.071  0.00  0.00    -0.083 A 
ATOM     73  H33 0D6 d   1      24.292   7.006   0.937  0.00  0.00     0.083 H 
ATOM     74  C5' 0D6 d   1      23.650   9.436   3.237  0.00  0.00    -0.082 A 
ATOM     75  H34 0D6 d   1      24.635   9.434   1.330  0.00  0.00     0.083 H 
ATOM     76  C6' 0D6 d   1      22.981   8.666   4.189  0.00  0.00    -0.077 A 
ATOM     77  H35 0D6 d   1      23.805  10.496   3.405  0.00  0.00     0.083 H 
ATOM     78  H36 0D6 d   1      22.623   9.132   5.100  0.00  0.00     0.084 H 
ENDBRANCH  65  68
ENDBRANCH  62  65
ENDBRANCH   1  62
TORSDOF 14
