REMARK  14 active torsions:
REMARK  status: ('A' for Active; 'I' for Inactive)
REMARK    1  A    between atoms: C3_2  and  C30_14 
REMARK    2  A    between atoms: C4_3  and  O4_39 
REMARK    3  A    between atoms: C5_4  and  O5_40 
REMARK    4  A    between atoms: C6_5  and  C60_21 
REMARK    5  A    between atoms: N2_36  and  C20_6 
REMARK    6  A    between atoms: C20_6  and  C21_7 
REMARK    7  A    between atoms: C24_10  and  C27_13 
REMARK    8  A    between atoms: C27_13  and  O27_41 
REMARK    9  A    between atoms: C30_14  and  C31_15 
REMARK   10  A    between atoms: C60_21  and  C61_22 
REMARK   11  A    between atoms: N7_37  and  C70_28 
REMARK   12  A    between atoms: C70_28  and  C71_29 
REMARK   13  A    between atoms: C74_32  and  C77_35 
REMARK   14  A    between atoms: C77_35  and  O77_42 
ROOT
ATOM      1  C1  DMP d   1      -8.948  15.311  27.921  0.00  0.00     0.322 C 
ATOM      2  C3  DMP d   1      -8.676  17.656  27.224  0.00  0.00     0.047 C 
ATOM      3  C4  DMP d   1     -10.064  18.243  27.245  0.00  0.00     0.082 C 
ATOM      4  C5  DMP d   1     -10.708  17.973  28.582  0.00  0.00     0.082 C 
ATOM      5  C6  DMP d   1     -10.975  16.499  28.789  0.00  0.00     0.047 C 
ATOM      6  N2  DMP d   1      -8.581  16.207  27.007  0.00  0.00    -0.322 N 
ATOM      7  N7  DMP d   1      -9.839  15.584  28.889  0.00  0.00    -0.322 N 
ATOM      8  O1  DMP d   1      -8.432  14.208  27.878  0.00  0.00    -0.247 OA
ATOM      9  H1  DMP d   1      -8.218  18.109  26.333  0.00  0.00     0.077 H 
ATOM     10  H2  DMP d   1     -10.683  17.810  26.446  0.00  0.00     0.090 H 
ATOM     11  H3  DMP d   1     -10.044  18.345  29.376  0.00  0.00     0.090 H 
ATOM     12  H4  DMP d   1     -11.434  16.478  29.788  0.00  0.00     0.077 H 
ENDROOT
BRANCH   6  13
ATOM     13  C20 DMP d   1      -7.870  15.692  25.838  0.00  0.00     0.024 C 
ATOM     14  H5  DMP d   1      -7.854  14.595  25.924  0.00  0.00     0.071 H 
ATOM     15  H6  DMP d   1      -6.841  16.078  25.887  0.00  0.00     0.071 H 
BRANCH  13  16
ATOM     16  C21 DMP d   1      -8.401  16.021  24.478  0.00  0.00    -0.040 A 
ATOM     17  C26 DMP d   1      -7.435  16.203  23.482  0.00  0.00    -0.075 A 
ATOM     18  C25 DMP d   1      -7.823  16.529  22.178  0.00  0.00    -0.074 A 
ATOM     19  H10 DMP d   1      -6.384  16.091  23.721  0.00  0.00     0.084 H 
ATOM     20  C24 DMP d   1      -9.195  16.640  21.846  0.00  0.00    -0.035 A 
ATOM     21  H9  DMP d   1      -7.069  16.698  21.418  0.00  0.00     0.084 H 
ATOM     22  C23 DMP d   1     -10.173  16.456  22.843  0.00  0.00    -0.074 A 
ATOM     23  C22 DMP d   1      -9.773  16.128  24.159  0.00  0.00    -0.075 A 
ATOM     24  H8  DMP d   1     -11.225  16.565  22.603  0.00  0.00     0.084 H 
ATOM     25  H7  DMP d   1     -10.521  15.958  24.925  0.00  0.00     0.084 H 
BRANCH  20  26
ATOM     26  C27 DMP d   1      -9.597  17.002  20.432  0.00  0.00     0.040 C 
ATOM     27  H11 DMP d   1     -10.607  17.438  20.449  0.00  0.00     0.081 H 
ATOM     28  H12 DMP d   1      -9.602  16.089  19.818  0.00  0.00     0.081 H 
BRANCH  26  29
ATOM     29  O27 DMP d   1      -8.689  17.953  19.846  0.00  0.00    -0.396 OA
ATOM     30  H37 DMP d   1      -8.972  18.156  18.962  0.00  0.00     0.209 HD
ENDBRANCH  26  29
ENDBRANCH  20  26
ENDBRANCH  13  16
ENDBRANCH   6  13
BRANCH   2  31
ATOM     31  C30 DMP d   1      -7.743  18.042  28.395  0.00  0.00    -0.019 C 
ATOM     32  H13 DMP d   1      -7.713  17.216  29.121  0.00  0.00     0.043 H 
ATOM     33  H14 DMP d   1      -8.133  18.947  28.885  0.00  0.00     0.043 H 
BRANCH  31  34
ATOM     34  C31 DMP d   1      -6.354  18.311  27.895  0.00  0.00    -0.056 A 
ATOM     35  C36 DMP d   1      -6.014  19.642  27.560  0.00  0.00    -0.077 A 
ATOM     36  C35 DMP d   1      -4.754  19.934  27.001  0.00  0.00    -0.082 A 
ATOM     37  H19 DMP d   1      -6.726  20.441  27.734  0.00  0.00     0.084 H 
ATOM     38  C34 DMP d   1      -3.842  18.882  26.759  0.00  0.00    -0.083 A 
ATOM     39  H18 DMP d   1      -4.487  20.956  26.759  0.00  0.00     0.083 H 
ATOM     40  C33 DMP d   1      -4.179  17.551  27.096  0.00  0.00    -0.082 A 
ATOM     41  H17 DMP d   1      -2.878  19.097  26.312  0.00  0.00     0.083 H 
ATOM     42  C32 DMP d   1      -5.437  17.262  27.665  0.00  0.00    -0.077 A 
ATOM     43  H16 DMP d   1      -3.470  16.751  26.917  0.00  0.00     0.083 H 
ATOM     44  H15 DMP d   1      -5.698  16.242  27.924  0.00  0.00     0.084 H 
ENDBRANCH  31  34
ENDBRANCH   2  31
BRANCH   7  45
ATOM     45  C70 DMP d   1      -9.787  14.733  30.052  0.00  0.00     0.024 C 
ATOM     46  H27 DMP d   1      -8.833  14.187  30.015  0.00  0.00     0.071 H 
ATOM     47  H28 DMP d   1     -10.621  14.020  29.973  0.00  0.00     0.071 H 
BRANCH  45  48
ATOM     48  C71 DMP d   1      -9.878  15.374  31.394  0.00  0.00    -0.040 A 
ATOM     49  C76 DMP d   1      -9.108  16.500  31.776  0.00  0.00    -0.075 A 
ATOM     50  C75 DMP d   1      -9.139  16.914  33.129  0.00  0.00    -0.074 A 
ATOM     51  H32 DMP d   1      -8.508  17.033  31.048  0.00  0.00     0.084 H 
ATOM     52  C74 DMP d   1      -9.959  16.217  34.061  0.00  0.00    -0.035 A 
ATOM     53  H31 DMP d   1      -8.541  17.758  33.454  0.00  0.00     0.084 H 
ATOM     54  C73 DMP d   1     -10.734  15.109  33.642  0.00  0.00    -0.074 A 
ATOM     55  C72 DMP d   1     -10.703  14.696  32.309  0.00  0.00    -0.075 A 
ATOM     56  H30 DMP d   1     -11.353  14.580  34.358  0.00  0.00     0.084 H 
ATOM     57  H29 DMP d   1     -11.310  13.860  31.982  0.00  0.00     0.084 H 
BRANCH  52  58
ATOM     58  C77 DMP d   1      -9.976  16.614  35.521  0.00  0.00     0.040 C 
ATOM     59  H33 DMP d   1      -9.631  17.655  35.608  0.00  0.00     0.081 H 
ATOM     60  H34 DMP d   1      -9.293  15.953  36.075  0.00  0.00     0.081 H 
BRANCH  58  61
ATOM     61  O77 DMP d   1     -11.282  16.513  36.097  0.00  0.00    -0.396 OA
ATOM     62  H38 DMP d   1     -11.245  16.771  37.011  0.00  0.00     0.209 HD
ENDBRANCH  58  61
ENDBRANCH  52  58
ENDBRANCH  45  48
ENDBRANCH   7  45
BRANCH   3  63
ATOM     63  O4  DMP d   1      -9.880  19.618  27.030  0.00  0.00    -0.391 OA
ATOM     64  H35 DMP d   1     -10.724  20.053  27.031  0.00  0.00     0.210 HD
ENDBRANCH   3  63
BRANCH   5  65
ATOM     65  C60 DMP d   1     -12.006  15.831  27.872  0.00  0.00    -0.019 C 
ATOM     66  H20 DMP d   1     -11.492  15.457  26.974  0.00  0.00     0.043 H 
ATOM     67  H21 DMP d   1     -12.757  16.580  27.579  0.00  0.00     0.043 H 
BRANCH  65  68
ATOM     68  C61 DMP d   1     -12.711  14.672  28.548  0.00  0.00    -0.056 A 
ATOM     69  C66 DMP d   1     -12.289  13.339  28.324  0.00  0.00    -0.077 A 
ATOM     70  C65 DMP d   1     -12.941  12.276  28.984  0.00  0.00    -0.082 A 
ATOM     71  H26 DMP d   1     -11.467  13.136  27.647  0.00  0.00     0.084 H 
ATOM     72  C64 DMP d   1     -14.035  12.543  29.841  0.00  0.00    -0.083 A 
ATOM     73  H25 DMP d   1     -12.604  11.256  28.835  0.00  0.00     0.083 H 
ATOM     74  C63 DMP d   1     -14.464  13.873  30.059  0.00  0.00    -0.082 A 
ATOM     75  H24 DMP d   1     -14.547  11.724  30.333  0.00  0.00     0.083 H 
ATOM     76  C62 DMP d   1     -13.804  14.940  29.411  0.00  0.00    -0.077 A 
ATOM     77  H23 DMP d   1     -15.298  14.073  30.722  0.00  0.00     0.083 H 
ATOM     78  H22 DMP d   1     -14.132  15.961  29.573  0.00  0.00     0.084 H 
ENDBRANCH  65  68
ENDBRANCH   5  65
BRANCH   4  79
ATOM     79  O5  DMP d   1     -11.958  18.605  28.668  0.00  0.00    -0.391 OA
ATOM     80  H36 DMP d   1     -11.845  19.543  28.565  0.00  0.00     0.210 HD
ENDBRANCH   4  79
TORSDOF 14
