REMARK  22 active torsions:
REMARK  status: ('A' for Active; 'I' for Inactive)
REMARK    1  A    between atoms: N_1  and  CA_2 
REMARK    2  A    between atoms: CA_2  and  C_3 
REMARK    3  A    between atoms: CA_2  and  CB_5 
REMARK       I    between atoms: C_3  and  N_8 
REMARK    4  A    between atoms: CB_5  and  CG1_6 
REMARK    5  A    between atoms: CB_5  and  CG2_7 
REMARK    6  A    between atoms: N_8  and  CA_9 
REMARK    7  A    between atoms: CA_9  and  C_10 
REMARK    8  A    between atoms: CA_9  and  CB_12 
REMARK       I    between atoms: C_10  and  N_13 
REMARK    9  A    between atoms: N_13  and  CA_14 
REMARK   10  A    between atoms: CA_14  and  C_15 
REMARK   11  A    between atoms: CA_14  and  CB_17 
REMARK       I    between atoms: C_15  and  N_24 
REMARK   12  A    between atoms: CB_17  and  CG_18 
REMARK   13  A    between atoms: N_24  and  CA_25 
REMARK   14  A    between atoms: CA_25  and  C_26 
REMARK   15  A    between atoms: CA_25  and  CB_28 
REMARK       I    between atoms: C_26  and  N_35 
REMARK   16  A    between atoms: CB_28  and  CG_29 
REMARK   17  A    between atoms: CG_29  and  CD_30 
REMARK   18  A    between atoms: CD_30  and  NE_31 
REMARK       I    between atoms: NE_31  and  CZ_32 
REMARK       I    between atoms: CZ_32  and  NH1_33 
REMARK   19  A    between atoms: N_35  and  CA_36 
REMARK   20  A    between atoms: CA_36  and  C_37 
REMARK   21  A    between atoms: CA_36  and  CB_39 
REMARK   22  A    between atoms: CB_39  and  OG_40 
ROOT
ATOM      1  CA  PHE d   1      12.030  12.653   4.899  0.00  0.00     0.093 C 
ATOM      2  H18 PHE d   1      12.247  11.756   4.301  0.00  0.00     0.088 H 
ENDROOT
BRANCH   1   3
ATOM      3  N   PHE d   1      13.207  12.906   5.800  0.00  0.00    -0.346 N 
ATOM      4  C   ALA d   1      13.864  11.912   6.429  0.00  0.00     0.240 C 
ATOM      5  O   ALA d   1      13.768  10.748   6.167  0.00  0.00    -0.271 OA
ATOM      6  H17 PHE d   1      13.514  13.848   5.938  0.00  0.00     0.163 HD
BRANCH   4   7
ATOM      7  CA  ALA d   1      15.089  12.220   7.380  0.00  0.00     0.086 C 
ATOM      8  H13 ALA d   1      15.413  11.222   7.711  0.00  0.00     0.086 H 
BRANCH   7   9
ATOM      9  N   ALA d   1      16.335  12.818   6.819  0.00  0.00    -0.346 N 
ATOM     10  C   VAL d   1      17.555  12.286   7.013  0.00  0.00     0.249 C 
ATOM     11  O   VAL d   1      17.764  11.379   7.825  0.00  0.00    -0.271 OA
ATOM     12  H12 ALA d   1      16.260  13.653   6.274  0.00  0.00     0.163 HD
BRANCH  10  13
ATOM     13  CA  VAL d   1      18.734  12.928   6.223  0.00  0.00     0.178 C 
ATOM     14  H4  VAL d   1      18.272  13.554   5.446  0.00  0.00     0.099 H 
BRANCH  13  15
ATOM     15  N   VAL d   1      19.526  13.838   7.096  0.00  0.00    -0.066 N 
ATOM     16  H1  VAL d   1      18.904  14.474   7.571  0.00  0.00     0.275 HD
ATOM     17  H2  VAL d   1      20.177  14.363   6.532  0.00  0.00     0.275 HD
ATOM     18  H3  VAL d   1      20.033  13.294   7.776  0.00  0.00     0.275 HD
ENDBRANCH  13  15
BRANCH  13  19
ATOM     19  CB  VAL d   1      19.678  11.911   5.458  0.00  0.00    -0.025 C 
ATOM     20  H5  VAL d   1      19.202  11.675   4.495  0.00  0.00     0.042 H 
BRANCH  19  21
ATOM     21  CG1 VAL d   1      21.039  12.530   5.181  0.00  0.00    -0.071 C 
ATOM     22  H6  VAL d   1      21.671  11.803   4.650  0.00  0.00     0.028 H 
ATOM     23  H7  VAL d   1      21.517  12.806   6.133  0.00  0.00     0.028 H 
ATOM     24  H8  VAL d   1      20.913  13.429   4.560  0.00  0.00     0.028 H 
ENDBRANCH  19  21
BRANCH  19  25
ATOM     25  CG2 VAL d   1      19.872  10.628   6.207  0.00  0.00    -0.071 C 
ATOM     26  H9  VAL d   1      18.892  10.172   6.412  0.00  0.00     0.028 H 
ATOM     27  H10 VAL d   1      20.388  10.832   7.157  0.00  0.00     0.028 H 
ATOM     28  H11 VAL d   1      20.478   9.938   5.602  0.00  0.00     0.028 H 
ENDBRANCH  19  25
ENDBRANCH  13  19
ENDBRANCH  10  13
ENDBRANCH   7   9
BRANCH   7  29
ATOM     29  CB  ALA d   1      14.637  12.938   8.663  0.00  0.00    -0.049 C 
ATOM     30  H14 ALA d   1      13.718  12.467   9.042  0.00  0.00     0.030 H 
ATOM     31  H15 ALA d   1      14.441  13.997   8.441  0.00  0.00     0.030 H 
ATOM     32  H16 ALA d   1      15.428  12.863   9.423  0.00  0.00     0.030 H 
ENDBRANCH   7  29
ENDBRANCH   4   7
ENDBRANCH   1   3
BRANCH   1  33
ATOM     33  C   PHE d   1      11.562  13.828   4.017  0.00  0.00     0.241 C 
ATOM     34  O   PHE d   1      12.147  14.918   3.979  0.00  0.00    -0.271 OA
ATOM     35  N   ARG d   1      10.368  13.579   3.452  0.00  0.00    -0.346 N 
ATOM     36  H26 ARG d   1       9.995  12.661   3.588  0.00  0.00     0.163 HD
BRANCH  35  37
ATOM     37  CA  ARG d   1       9.552  14.505   2.658  0.00  0.00     0.089 C 
ATOM     38  H27 ARG d   1       9.761  15.537   2.975  0.00  0.00     0.087 H 
BRANCH  37  39
ATOM     39  C   ARG d   1       8.063  14.199   2.734  0.00  0.00     0.241 C 
ATOM     40  O   ARG d   1       7.611  13.287   3.420  0.00  0.00    -0.271 OA
ATOM     41  N   SER d   1       7.347  14.950   1.903  0.00  0.00    -0.343 N 
ATOM     42  H39 SER d   1       7.849  15.661   1.411  0.00  0.00     0.163 HD
BRANCH  41  43
ATOM     43  CA  SER d   1       5.908  14.864   1.619  0.00  0.00     0.116 C 
ATOM     44  H40 SER d   1       5.575  15.912   1.604  0.00  0.00     0.093 H 
BRANCH  43  45
ATOM     45  C   SER d   1       4.925  14.166   2.552  0.00  0.00     0.198 C 
ATOM     46  O   SER d   1       4.816  14.701   3.654  0.00  0.00    -0.646 OA
ATOM     47  O1  SER d   1       4.282  13.133   2.224  0.00  0.00    -0.646 OA
ENDBRANCH  43  45
BRANCH  43  48
ATOM     48  CB  SER d   1       5.695  14.305   0.214  0.00  0.00     0.045 C 
ATOM     49  H41 SER d   1       6.033  13.259   0.184  0.00  0.00     0.077 H 
ATOM     50  H42 SER d   1       6.277  14.899  -0.506  0.00  0.00     0.077 H 
BRANCH  48  51
ATOM     51  OG  SER d   1       4.321  14.364  -0.133  0.00  0.00    -0.398 OA
ATOM     52  H43 SER d   1       3.817  13.850   0.487  0.00  0.00     0.209 HD
ENDBRANCH  48  51
ENDBRANCH  43  48
ENDBRANCH  41  43
ENDBRANCH  37  39
BRANCH  37  53
ATOM     53  CB  ARG d   1       9.815  14.311   1.181  0.00  0.00    -0.036 C 
ATOM     54  H28 ARG d   1       8.944  13.807   0.737  0.00  0.00     0.036 H 
ATOM     55  H29 ARG d   1      10.704  13.673   1.068  0.00  0.00     0.036 H 
BRANCH  53  56
ATOM     56  CG  ARG d   1      10.048  15.561   0.450  0.00  0.00    -0.048 C 
ATOM     57  H30 ARG d   1       9.465  16.380   0.896  0.00  0.00     0.035 H 
ATOM     58  H31 ARG d   1       9.768  15.444  -0.607  0.00  0.00     0.035 H 
BRANCH  56  59
ATOM     59  CD  ARG d   1      11.469  15.830   0.569  0.00  0.00     0.009 C 
ATOM     60  H32 ARG d   1      12.009  14.996   0.097  0.00  0.00     0.064 H 
ATOM     61  H33 ARG d   1      11.715  15.866   1.641  0.00  0.00     0.064 H 
BRANCH  59  62
ATOM     62  NE  ARG d   1      11.938  17.050  -0.029  0.00  0.00    -0.227 N 
ATOM     63  CZ  ARG d   1      13.203  17.381   0.050  0.00  0.00     0.665 C 
ATOM     64  NH1 ARG d   1      14.024  16.558   0.693  0.00  0.00    -0.235 N 
ATOM     65  NH2 ARG d   1      13.651  18.499  -0.488  0.00  0.00    -0.235 N 
ATOM     66  H35 ARG d   1      15.025  16.788   0.774  0.00  0.00     0.174 HD
ATOM     67  H36 ARG d   1      13.660  15.690   1.111  0.00  0.00     0.174 HD
ATOM     68  H37 ARG d   1      13.003  19.128  -0.984  0.00  0.00     0.174 HD
ATOM     69  H38 ARG d   1      14.649  18.743  -0.412  0.00  0.00     0.174 HD
ATOM     70  H34 ARG d   1      11.277  17.667  -0.522  0.00  0.00     0.177 HD
ENDBRANCH  59  62
ENDBRANCH  56  59
ENDBRANCH  53  56
ENDBRANCH  37  53
ENDBRANCH  35  37
ENDBRANCH   1  33
BRANCH   1  71
ATOM     71  CB  PHE d   1      10.693  12.552   5.641  0.00  0.00    -0.014 C 
ATOM     72  H19 PHE d   1       9.896  12.616   4.886  0.00  0.00     0.043 H 
ATOM     73  H20 PHE d   1      10.629  13.418   6.316  0.00  0.00     0.043 H 
BRANCH  71  74
ATOM     74  CG  PHE d   1      10.428  11.326   6.465  0.00  0.00    -0.056 A 
ATOM     75  CD1 PHE d   1      11.406  10.569   7.085  0.00  0.00    -0.077 A 
ATOM     76  CE1 PHE d   1      11.031   9.485   7.898  0.00  0.00    -0.082 A 
ATOM     77  H21 PHE d   1      12.454  10.810   6.945  0.00  0.00     0.084 H 
ATOM     78  CZ  PHE d   1       9.684   9.195   8.102  0.00  0.00    -0.083 A 
ATOM     79  H23 PHE d   1      11.793   8.873   8.368  0.00  0.00     0.083 H 
ATOM     80  CE2 PHE d   1       8.724   9.971   7.507  0.00  0.00    -0.082 A 
ATOM     81  H25 PHE d   1       9.396   8.359   8.729  0.00  0.00     0.083 H 
ATOM     82  CD2 PHE d   1       9.096  11.022   6.713  0.00  0.00    -0.077 A 
ATOM     83  H24 PHE d   1       7.674   9.753   7.665  0.00  0.00     0.083 H 
ATOM     84  H22 PHE d   1       8.325  11.637   6.263  0.00  0.00     0.084 H 
ENDBRANCH  71  74
ENDBRANCH   1  71
TORSDOF 22
