REMARK WARNING: 32 MAX_TORS EXCEEDED!!!
REMARK  39 active torsions:
REMARK  status: ('A' for Active; 'I' for Inactive)
REMARK    1  A    between atoms: N_1  and  CA_2 
REMARK    2  A    between atoms: CA_2  and  C_3 
REMARK    3  A    between atoms: CA_2  and  CB_5 
REMARK       I    between atoms: C_3  and  N_10 
REMARK    4  A    between atoms: CB_5  and  CG_6 
REMARK    5  A    between atoms: CG_6  and  CD_7 
REMARK    6  A    between atoms: N_10  and  CA_11 
REMARK    7  A    between atoms: CA_11  and  C_12 
REMARK    8  A    between atoms: CA_11  and  CB_14 
REMARK       I    between atoms: C_12  and  N_22 
REMARK    9  A    between atoms: CB_14  and  CG_15 
REMARK   10  A    between atoms: CZ_20  and  OH_21 
REMARK   11  A    between atoms: N_22  and  CA_23 
REMARK   12  A    between atoms: CA_23  and  C_24 
REMARK   13  A    between atoms: CA_23  and  CB_26 
REMARK       I    between atoms: C_24  and  N_30 
REMARK   14  A    between atoms: CB_26  and  CG_27 
REMARK   15  A    between atoms: CG_27  and  CD1_28 
REMARK   16  A    between atoms: CG_27  and  CD2_29 
REMARK   17  A    between atoms: N_30  and  CA_31 
REMARK   18  A    between atoms: CA_31  and  C_32 
REMARK       I    between atoms: C_32  and  N_34 
REMARK   19  A    between atoms: N_34  and  CA_35 
REMARK   20  A    between atoms: CA_35  and  C_36 
REMARK   21  A    between atoms: CA_35  and  CB_38 
REMARK       I    between atoms: C_36  and  N_42 
REMARK   22  A    between atoms: CB_38  and  CG_39 
REMARK   23  A    between atoms: CG_39  and  CD1_40 
REMARK   24  A    between atoms: CG_39  and  CD2_41 
REMARK   25  A    between atoms: N_42  and  CA_43 
REMARK   26  A    between atoms: CA_43  and  C_44 
REMARK   27  A    between atoms: CA_43  and  CB_46 
REMARK       I    between atoms: C_44  and  N_50 
REMARK   28  A    between atoms: CB_46  and  CG_47 
REMARK   29  A    between atoms: N_50  and  CA_51 
REMARK   30  A    between atoms: CA_51  and  C_52 
REMARK   31  A    between atoms: CA_51  and  CB_54 
REMARK       I    between atoms: C_52  and  N_57 
REMARK   32  A    between atoms: CB_54  and  CG1_55 
REMARK   33  A    between atoms: CB_54  and  CG2_56 
REMARK   34  A    between atoms: CA_58  and  C_59 
REMARK       I    between atoms: C_59  and  N_64 
REMARK   35  A    between atoms: N_64  and  CA_65 
REMARK   36  A    between atoms: CA_65  and  C_66 
REMARK   37  A    between atoms: CA_65  and  CB_68 
REMARK   38  A    between atoms: CB_68  and  CG1_69 
REMARK   39  A    between atoms: CB_68  and  CG2_70 
ROOT
ATOM      1  CA  LEU d   1      14.198   4.241  13.124  0.00  0.00     0.089 C 
ATOM      2  H33 LEU d   1      14.337   5.277  12.781  0.00  0.00     0.087 H 
ENDROOT
BRANCH   1   3
ATOM      3  N   LEU d   1      15.511   3.712  13.427  0.00  0.00    -0.346 N 
ATOM      4  C   GLY d   1      16.459   4.506  13.937  0.00  0.00     0.236 C 
ATOM      5  O   GLY d   1      16.241   5.689  14.111  0.00  0.00    -0.272 OA
ATOM      6  H32 LEU d   1      15.710   2.748  13.254  0.00  0.00     0.163 HD
BRANCH   4   7
ATOM      7  CA  GLY d   1      17.779   3.879  14.283  0.00  0.00     0.069 C 
ATOM      8  H30 GLY d   1      18.557   4.444  13.749  0.00  0.00     0.078 H 
ATOM      9  H31 GLY d   1      17.920   3.997  15.367  0.00  0.00     0.078 H 
BRANCH   7  10
ATOM     10  N   GLY d   1      17.979   2.494  13.979  0.00  0.00    -0.351 N 
ATOM     11  C   LEU d   1      18.564   2.124  12.839  0.00  0.00     0.240 C 
ATOM     12  O   LEU d   1      18.851   2.945  11.976  0.00  0.00    -0.271 OA
ATOM     13  H29 GLY d   1      17.677   1.796  14.629  0.00  0.00     0.163 HD
BRANCH  11  14
ATOM     14  CA  LEU d   1      18.891   0.630  12.688  0.00  0.00     0.089 C 
ATOM     15  H19 LEU d   1      19.961   0.489  12.900  0.00  0.00     0.087 H 
BRANCH  14  16
ATOM     16  N   LEU d   1      18.146  -0.169  13.619  0.00  0.00    -0.346 N 
ATOM     17  C   TYR d   1      18.694  -1.035  14.473  0.00  0.00     0.241 C 
ATOM     18  O   TYR d   1      19.908  -1.122  14.660  0.00  0.00    -0.271 OA
ATOM     19  H18 LEU d   1      17.151  -0.070  13.628  0.00  0.00     0.163 HD
BRANCH  17  20
ATOM     20  CA  TYR d   1      17.777  -1.933  15.289  0.00  0.00     0.093 C 
ATOM     21  H10 TYR d   1      16.750  -1.862  14.902  0.00  0.00     0.088 H 
BRANCH  20  22
ATOM     22  N   TYR d   1      18.219  -3.305  15.204  0.00  0.00    -0.346 N 
ATOM     23  C   GLU d   1      18.095  -4.072  14.116  0.00  0.00     0.249 C 
ATOM     24  O   GLU d   1      17.560  -3.650  13.068  0.00  0.00    -0.271 OA
ATOM     25  H9  TYR d   1      18.646  -3.708  16.013  0.00  0.00     0.163 HD
BRANCH  23  26
ATOM     26  CA  GLU d   1      18.640  -5.506  14.115  0.00  0.00     0.176 C 
ATOM     27  H4  GLU d   1      18.619  -5.887  15.147  0.00  0.00     0.099 H 
BRANCH  26  28
ATOM     28  N   GLU d   1      17.824  -6.373  13.285  0.00  0.00    -0.066 N 
ATOM     29  H1  GLU d   1      18.202  -7.307  13.301  0.00  0.00     0.275 HD
ATOM     30  H2  GLU d   1      17.823  -6.028  12.338  0.00  0.00     0.275 HD
ATOM     31  H3  GLU d   1      16.880  -6.386  13.639  0.00  0.00     0.275 HD
ENDBRANCH  26  28
BRANCH  26  32
ATOM     32  CB  GLU d   1      20.079  -5.528  13.614  0.00  0.00    -0.021 C 
ATOM     33  H5  GLU d   1      20.477  -6.542  13.766  0.00  0.00     0.037 H 
ATOM     34  H6  GLU d   1      20.660  -4.812  14.215  0.00  0.00     0.037 H 
BRANCH  32  35
ATOM     35  CG  GLU d   1      20.259  -5.166  12.145  0.00  0.00     0.018 C 
ATOM     36  H7  GLU d   1      19.733  -4.222  11.940  0.00  0.00     0.049 H 
ATOM     37  H8  GLU d   1      19.832  -5.966  11.522  0.00  0.00     0.049 H 
BRANCH  35  38
ATOM     38  CD  GLU d   1      21.737  -5.000  11.801  0.00  0.00     0.172 C 
ATOM     39  OE1 GLU d   1      22.578  -5.028  12.723  0.00  0.00    -0.648 OA
ATOM     40  OE2 GLU d   1      22.055  -4.834  10.601  0.00  0.00    -0.648 OA
ENDBRANCH  35  38
ENDBRANCH  32  35
ENDBRANCH  26  32
ENDBRANCH  23  26
ENDBRANCH  20  22
BRANCH  20  41
ATOM     41  CB  TYR d   1      17.813  -1.440  16.751  0.00  0.00    -0.014 C 
ATOM     42  H11 TYR d   1      18.853  -1.455  17.109  0.00  0.00     0.043 H 
ATOM     43  H12 TYR d   1      17.202  -2.112  17.371  0.00  0.00     0.043 H 
BRANCH  41  44
ATOM     44  CG  TYR d   1      17.268  -0.024  16.868  0.00  0.00    -0.056 A 
ATOM     45  CD1 TYR d   1      15.948   0.254  16.567  0.00  0.00    -0.074 A 
ATOM     46  CE1 TYR d   1      15.442   1.550  16.688  0.00  0.00    -0.051 A 
ATOM     47  H13 TYR d   1      15.296  -0.545  16.232  0.00  0.00     0.084 H 
ATOM     48  CZ  TYR d   1      16.284   2.551  17.091  0.00  0.00     0.065 A 
ATOM     49  H15 TYR d   1      14.402   1.759  16.467  0.00  0.00     0.087 H 
ATOM     50  CE2 TYR d   1      17.618   2.317  17.394  0.00  0.00    -0.051 A 
ATOM     51  CD2 TYR d   1      18.106   1.025  17.286  0.00  0.00    -0.074 A 
ATOM     52  H16 TYR d   1      18.265   3.128  17.709  0.00  0.00     0.087 H 
ATOM     53  H14 TYR d   1      19.143   0.821  17.526  0.00  0.00     0.084 H 
BRANCH  48  54
ATOM     54  OH  TYR d   1      15.787   3.843  17.181  0.00  0.00    -0.361 OA
ATOM     55  H17 TYR d   1      15.887   4.158  18.072  0.00  0.00     0.217 HD
ENDBRANCH  48  54
ENDBRANCH  41  44
ENDBRANCH  20  41
ENDBRANCH  17  20
ENDBRANCH  14  16
BRANCH  14  56
ATOM     56  CB  LEU d   1      18.623   0.187  11.246  0.00  0.00    -0.035 C 
ATOM     57  H20 LEU d   1      19.146   0.890  10.581  0.00  0.00     0.037 H 
ATOM     58  H21 LEU d   1      17.539   0.258  11.074  0.00  0.00     0.037 H 
BRANCH  56  59
ATOM     59  CG  LEU d   1      19.059  -1.226  10.857  0.00  0.00    -0.059 C 
ATOM     60  H22 LEU d   1      18.512  -1.954  11.474  0.00  0.00     0.038 H 
BRANCH  59  61
ATOM     61  CD1 LEU d   1      18.686  -1.464   9.383  0.00  0.00    -0.073 C 
ATOM     62  H23 LEU d   1      18.993  -2.478   9.086  0.00  0.00     0.028 H 
ATOM     63  H24 LEU d   1      19.200  -0.725   8.751  0.00  0.00     0.028 H 
ATOM     64  H25 LEU d   1      17.598  -1.359   9.258  0.00  0.00     0.028 H 
ENDBRANCH  59  61
BRANCH  59  65
ATOM     65  CD2 LEU d   1      20.546  -1.393  11.133  0.00  0.00    -0.073 C 
ATOM     66  H26 LEU d   1      20.744  -1.210  12.200  0.00  0.00     0.028 H 
ATOM     67  H27 LEU d   1      21.115  -0.673  10.526  0.00  0.00     0.028 H 
ATOM     68  H28 LEU d   1      20.855  -2.416  10.873  0.00  0.00     0.028 H 
ENDBRANCH  59  65
ENDBRANCH  56  59
ENDBRANCH  14  56
ENDBRANCH  11  14
ENDBRANCH   7  10
ENDBRANCH   4   7
ENDBRANCH   1   3
BRANCH   1  69
ATOM     69  C   LEU d   1      13.288   4.275  14.356  0.00  0.00     0.241 C 
ATOM     70  O   LEU d   1      12.772   3.241  14.793  0.00  0.00    -0.271 OA
ATOM     71  N   ASP d   1      13.072   5.468  14.875  0.00  0.00    -0.346 N 
ATOM     72  H43 ASP d   1      13.502   6.263  14.447  0.00  0.00     0.163 HD
BRANCH  71  73
ATOM     73  CA  ASP d   1      12.231   5.674  16.047  0.00  0.00     0.098 C 
ATOM     74  H44 ASP d   1      11.939   4.699  16.463  0.00  0.00     0.088 H 
BRANCH  73  75
ATOM     75  C   ASP d   1      10.977   6.389  15.563  0.00  0.00     0.241 C 
ATOM     76  O   ASP d   1      10.868   6.795  14.412  0.00  0.00    -0.271 OA
ATOM     77  N   VAL d   1      10.034   6.542  16.473  0.00  0.00    -0.346 N 
ATOM     78  H47 VAL d   1      10.242   6.271  17.413  0.00  0.00     0.163 HD
BRANCH  77  79
ATOM     79  CA  VAL d   1       8.726   7.073  16.200  0.00  0.00     0.092 C 
ATOM     80  H48 VAL d   1       8.715   7.414  15.154  0.00  0.00     0.088 H 
BRANCH  79  81
ATOM     81  C   VAL d   1       8.424   8.269  17.108  0.00  0.00     0.243 C 
ATOM     82  O   VAL d   1       8.294   8.059  18.329  0.00  0.00    -0.271 OA
ATOM     83  N   PRO d   1       8.279   9.457  16.558  0.00  0.00    -0.337 N 
ATOM     84  CA  PRO d   1       7.904  10.615  17.405  0.00  0.00     0.091 C 
ATOM     85  CD  PRO d   1       8.540   9.853  15.169  0.00  0.00    -0.001 C 
ATOM     86  CB  PRO d   1       8.090  11.840  16.491  0.00  0.00    -0.036 C 
ATOM     87  H56 PRO d   1       8.560  10.677  18.285  0.00  0.00     0.087 H 
ATOM     88  CG  PRO d   1       8.598  11.325  15.223  0.00  0.00    -0.048 C 
ATOM     89  H57 PRO d   1       8.812  12.541  16.935  0.00  0.00     0.036 H 
ATOM     90  H58 PRO d   1       7.128  12.351  16.337  0.00  0.00     0.036 H 
ATOM     91  H59 PRO d   1       9.643  11.645  15.101  0.00  0.00     0.035 H 
ATOM     92  H60 PRO d   1       7.991  11.736  14.403  0.00  0.00     0.035 H 
ATOM     93  H61 PRO d   1       7.728   9.518  14.508  0.00  0.00     0.064 H 
ATOM     94  H62 PRO d   1       9.495   9.437  14.817  0.00  0.00     0.064 H 
BRANCH  84  95
ATOM     95  C   PRO d   1       6.462  10.541  17.853  0.00  0.00     0.241 C 
ATOM     96  O   PRO d   1       5.548  10.209  17.092  0.00  0.00    -0.271 OA
ATOM     97  N   VAL d   1       6.244  10.824  19.133  0.00  0.00    -0.344 N 
ATOM     98  H63 VAL d   1       7.029  11.001  19.727  0.00  0.00     0.163 HD
BRANCH  97  99
ATOM     99  CA  VAL d   1       4.914  10.886  19.698  0.00  0.00     0.099 C 
ATOM    100  H64 VAL d   1       4.179  10.897  18.880  0.00  0.00     0.090 H 
BRANCH  99 101
ATOM    101  C   VAL d   1       4.765  12.168  20.523  0.00  0.00     0.197 C 
ATOM    102  O   VAL d   1       3.629  12.416  20.987  0.00  0.00    -0.646 OA
ATOM    103  OXT VAL d   1       5.730  12.972  20.686  0.00  0.00    -0.646 OA
ENDBRANCH  99 101
BRANCH  99 104
ATOM    104  CB  VAL d   1       4.645   9.655  20.598  0.00  0.00    -0.032 C 
ATOM    105  H65 VAL d   1       3.650   9.777  21.051  0.00  0.00     0.042 H 
BRANCH 104 106
ATOM    106  CG1 VAL d   1       4.648   8.370  19.777  0.00  0.00    -0.071 C 
ATOM    107  H66 VAL d   1       4.455   7.512  20.438  0.00  0.00     0.028 H 
ATOM    108  H67 VAL d   1       5.628   8.247  19.293  0.00  0.00     0.028 H 
ATOM    109  H68 VAL d   1       3.863   8.424  19.008  0.00  0.00     0.028 H 
ENDBRANCH 104 106
BRANCH 104 110
ATOM    110  CG2 VAL d   1       5.678   9.536  21.728  0.00  0.00    -0.071 C 
ATOM    111  H69 VAL d   1       5.679  10.461  22.323  0.00  0.00     0.028 H 
ATOM    112  H70 VAL d   1       6.677   9.377  21.296  0.00  0.00     0.028 H 
ATOM    113  H71 VAL d   1       5.418   8.685  22.375  0.00  0.00     0.028 H 
ENDBRANCH 104 110
ENDBRANCH  99 104
ENDBRANCH  97  99
ENDBRANCH  84  95
ENDBRANCH  79  81
BRANCH  79 114
ATOM    114  CB  VAL d   1       7.596   6.030  16.380  0.00  0.00    -0.033 C 
ATOM    115  H49 VAL d   1       7.602   5.690  17.426  0.00  0.00     0.042 H 
BRANCH 114 116
ATOM    116  CG1 VAL d   1       6.223   6.657  16.088  0.00  0.00    -0.071 C 
ATOM    117  H50 VAL d   1       5.438   5.899  16.222  0.00  0.00     0.028 H 
ATOM    118  H51 VAL d   1       6.202   7.027  15.053  0.00  0.00     0.028 H 
ATOM    119  H52 VAL d   1       6.047   7.493  16.780  0.00  0.00     0.028 H 
ENDBRANCH 114 116
BRANCH 114 120
ATOM    120  CG2 VAL d   1       7.850   4.825  15.485  0.00  0.00    -0.071 C 
ATOM    121  H53 VAL d   1       8.837   4.398  15.716  0.00  0.00     0.028 H 
ATOM    122  H54 VAL d   1       7.824   5.139  14.431  0.00  0.00     0.028 H 
ATOM    123  H55 VAL d   1       7.073   4.067  15.661  0.00  0.00     0.028 H 
ENDBRANCH 114 120
ENDBRANCH  79 114
ENDBRANCH  77  79
ENDBRANCH  73  75
BRANCH  73 124
ATOM    124  CB  ASP d   1      13.008   6.431  17.125  0.00  0.00     0.043 C 
ATOM    125  H45 ASP d   1      13.813   5.768  17.474  0.00  0.00     0.052 H 
ATOM    126  H46 ASP d   1      12.311   6.628  17.953  0.00  0.00     0.052 H 
BRANCH 124 127
ATOM    127  CG  ASP d   1      13.640   7.743  16.750  0.00  0.00     0.175 C 
ATOM    128  OD1 ASP d   1      13.500   8.131  15.577  0.00  0.00    -0.648 OA
ATOM    129  OD2 ASP d   1      14.269   8.345  17.641  0.00  0.00    -0.648 OA
ENDBRANCH 124 127
ENDBRANCH  73 124
ENDBRANCH  71  73
ENDBRANCH   1  69
BRANCH   1 130
ATOM    130  CB  LEU d   1      13.501   3.464  11.994  0.00  0.00    -0.035 C 
ATOM    131  H34 LEU d   1      13.261   2.454  12.356  0.00  0.00     0.037 H 
ATOM    132  H35 LEU d   1      14.188   3.393  11.138  0.00  0.00     0.037 H 
BRANCH 130 133
ATOM    133  CG  LEU d   1      12.203   4.143  11.529  0.00  0.00    -0.059 C 
ATOM    134  H36 LEU d   1      11.601   4.376  12.420  0.00  0.00     0.038 H 
BRANCH 133 135
ATOM    135  CD1 LEU d   1      12.478   5.427  10.790  0.00  0.00    -0.073 C 
ATOM    136  H37 LEU d   1      11.526   5.880  10.475  0.00  0.00     0.028 H 
ATOM    137  H38 LEU d   1      13.094   5.215   9.904  0.00  0.00     0.028 H 
ATOM    138  H39 LEU d   1      13.014   6.123  11.451  0.00  0.00     0.028 H 
ENDBRANCH 133 135
BRANCH 133 139
ATOM    139  CD2 LEU d   1      11.402   3.220  10.631  0.00  0.00    -0.073 C 
ATOM    140  H40 LEU d   1      11.196   2.279  11.162  0.00  0.00     0.028 H 
ATOM    141  H41 LEU d   1      11.977   3.007   9.718  0.00  0.00     0.028 H 
ATOM    142  H42 LEU d   1      10.452   3.704  10.362  0.00  0.00     0.028 H 
ENDBRANCH 133 139
ENDBRANCH 130 133
ENDBRANCH   1 130
TORSDOF 39
