REMARK  21 active torsions:
REMARK  status: ('A' for Active; 'I' for Inactive)
REMARK    1  A    between atoms: C_2  and  CA_1 
REMARK    2  A    between atoms: CA_1  and  C5_7 
REMARK       I    between atoms: N_16  and  C_2 
REMARK    3  A    between atoms: C2_4  and  C20_12 
REMARK    4  A    between atoms: CA_17  and  N_16 
REMARK    5  A    between atoms: C_18  and  CA_17 
REMARK    6  A    between atoms: CA_17  and  CB_20 
REMARK       I    between atoms: N_22  and  C_18 
REMARK    7  A    between atoms: CB_20  and  SG_21 
REMARK    8  A    between atoms: CA_23  and  N_22 
REMARK    9  A    between atoms: CA_23  and  CB_24 
REMARK   10  A    between atoms: C_31  and  CA_23 
REMARK   11  A    between atoms: CB_24  and  CG_25 
REMARK   12  A    between atoms: CG_25  and  CD_26 
REMARK   13  A    between atoms: CD_26  and  NE_27 
REMARK       I    between atoms: NE_27  and  CZ_28 
REMARK       I    between atoms: CZ_28  and  NH1_29 
REMARK       I    between atoms: N_33  and  C_31 
REMARK   14  A    between atoms: CA_34  and  N_33 
REMARK   15  A    between atoms: C_35  and  CA_34 
REMARK   16  A    between atoms: CA_34  and  CB_37 
REMARK       I    between atoms: N_53  and  C_35 
REMARK   17  A    between atoms: CB_37  and  CG_38 
REMARK   18  A    between atoms: CZ_43  and  OH_44 
REMARK   19  A    between atoms: C2_51  and  C1'_45 
REMARK   20  A    between atoms: C1_52  and  C2_51 
REMARK   21  A    between atoms: C1_52  and  N_53 
ROOT
ATOM      1  CA  DAR d   1      -0.826  19.422 121.386  0.00  0.00     0.089 C 
ATOM      2  H18 DAR d   1       0.013  18.930 121.900  0.00  0.00     0.087 H 
ENDROOT
BRANCH   1   3
ATOM      3  N   DAR d   1      -1.911  18.343 121.346  0.00  0.00    -0.346 N 
ATOM      4  C   CYS d   1      -2.290  17.690 122.550  0.00  0.00     0.241 C 
ATOM      5  O   CYS d   1      -1.859  17.868 123.707  0.00  0.00    -0.271 OA
ATOM      6  H17 DAR d   1      -2.349  18.100 120.481  0.00  0.00     0.163 HD
BRANCH   4   7
ATOM      7  CA  CYS d   1      -3.321  16.696 122.245  0.00  0.00     0.097 C 
ATOM      8  H13 CYS d   1      -2.897  16.086 121.434  0.00  0.00     0.088 H 
BRANCH   7   9
ATOM      9  N   CYS d   1      -3.738  15.807 123.176  0.00  0.00    -0.347 N 
ATOM     10  C   BP4 d   1      -3.656  14.389 123.016  0.00  0.00     0.222 C 
ATOM     11  O   BP4 d   1      -3.158  13.946 121.976  0.00  0.00    -0.273 OA
ATOM     12  H12 CYS d   1      -4.126  16.163 124.026  0.00  0.00     0.163 HD
BRANCH  10  13
ATOM     13  CA  BP4 d   1      -3.746  13.458 124.204  0.00  0.00     0.033 C 
ATOM     14  H1  BP4 d   1      -2.955  12.701 124.101  0.00  0.00     0.054 H 
ATOM     15  H2  BP4 d   1      -4.730  12.967 124.175  0.00  0.00     0.054 H 
BRANCH  13  16
ATOM     16  C5  BP4 d   1      -3.591  14.113 125.561  0.00  0.00    -0.049 A 
ATOM     17  C4  BP4 d   1      -2.271  14.283 126.138  0.00  0.00    -0.076 A 
ATOM     18  C3  BP4 d   1      -2.130  14.885 127.447  0.00  0.00    -0.072 A 
ATOM     19  H4  BP4 d   1      -1.393  13.960 125.591  0.00  0.00     0.084 H 
ATOM     20  C2  BP4 d   1      -3.307  15.336 128.205  0.00  0.00    -0.026 A 
ATOM     21  H3  BP4 d   1      -1.141  15.005 127.875  0.00  0.00     0.084 H 
ATOM     22  C1  BP4 d   1      -4.633  15.161 127.588  0.00  0.00    -0.072 A 
ATOM     23  C6  BP4 d   1      -4.768  14.556 126.288  0.00  0.00    -0.076 A 
ATOM     24  H6  BP4 d   1      -5.518  15.492 128.119  0.00  0.00     0.084 H 
ATOM     25  H5  BP4 d   1      -5.752  14.431 125.850  0.00  0.00     0.084 H 
BRANCH  20  26
ATOM     26  C20 BP4 d   1      -3.154  15.958 129.589  0.00  0.00    -0.026 A 
ATOM     27  C18 BP4 d   1      -4.313  16.101 130.484  0.00  0.00    -0.072 A 
ATOM     28  C23 BP4 d   1      -4.175  16.685 131.810  0.00  0.00    -0.082 A 
ATOM     29  H8  BP4 d   1      -5.288  15.765 130.150  0.00  0.00     0.084 H 
ATOM     30  C11 BP4 d   1      -2.867  17.142 132.268  0.00  0.00    -0.083 A 
ATOM     31  H9  BP4 d   1      -5.041  16.780 132.455  0.00  0.00     0.083 H 
ATOM     32  C26 BP4 d   1      -1.702  17.010 131.402  0.00  0.00    -0.082 A 
ATOM     33  H7  BP4 d   1      -2.762  17.580 133.254  0.00  0.00     0.083 H 
ATOM     34  C25 BP4 d   1      -1.843  16.425 130.075  0.00  0.00    -0.072 A 
ATOM     35  H11 BP4 d   1      -0.731  17.347 131.745  0.00  0.00     0.083 H 
ATOM     36  H10 BP4 d   1      -0.972  16.332 129.436  0.00  0.00     0.084 H 
ENDBRANCH  20  26
ENDBRANCH  13  16
ENDBRANCH  10  13
ENDBRANCH   7   9
BRANCH   7  37
ATOM     37  CB  CYS d   1      -4.607  17.440 121.668  0.00  0.00     0.001 C 
ATOM     38  H14 CYS d   1      -4.299  18.032 120.793  0.00  0.00     0.052 H 
ATOM     39  H15 CYS d   1      -4.994  18.112 122.448  0.00  0.00     0.052 H 
BRANCH  37  40
ATOM     40  SG  CYS d   1      -5.972  16.312 121.149  0.00  0.00    -0.180 SA
ATOM     41  H16 CYS d   1      -6.743  16.858 120.798  0.00  0.00     0.101 HD
ENDBRANCH  37  40
ENDBRANCH   7  37
ENDBRANCH   4   7
ENDBRANCH   1   3
BRANCH   1  42
ATOM     42  CB  DAR d   1      -1.189  20.695 122.275  0.00  0.00    -0.036 C 
ATOM     43  H19 DAR d   1      -0.436  21.472 122.077  0.00  0.00     0.036 H 
ATOM     44  H20 DAR d   1      -1.138  20.395 123.332  0.00  0.00     0.036 H 
BRANCH  42  45
ATOM     45  CG  DAR d   1      -2.621  21.325 122.014  0.00  0.00    -0.048 C 
ATOM     46  H21 DAR d   1      -3.300  21.030 122.827  0.00  0.00     0.035 H 
ATOM     47  H22 DAR d   1      -3.012  20.951 121.056  0.00  0.00     0.035 H 
BRANCH  45  48
ATOM     48  CD  DAR d   1      -2.535  22.786 121.963  0.00  0.00     0.009 C 
ATOM     49  H23 DAR d   1      -1.836  23.017 121.146  0.00  0.00     0.064 H 
ATOM     50  H24 DAR d   1      -2.093  23.094 122.922  0.00  0.00     0.064 H 
BRANCH  48  51
ATOM     51  NE  DAR d   1      -3.629  23.613 121.769  0.00  0.00    -0.227 N 
ATOM     52  CZ  DAR d   1      -4.478  23.736 120.649  0.00  0.00     0.665 C 
ATOM     53  NH1 DAR d   1      -4.039  23.844 119.351  0.00  0.00    -0.235 N 
ATOM     54  NH2 DAR d   1      -5.825  23.769 120.754  0.00  0.00    -0.235 N 
ATOM     55  H26 DAR d   1      -4.720  23.931 118.583  0.00  0.00     0.174 HD
ATOM     56  H27 DAR d   1      -3.030  23.838 119.147  0.00  0.00     0.174 HD
ATOM     57  H28 DAR d   1      -6.271  23.696 121.679  0.00  0.00     0.174 HD
ATOM     58  H29 DAR d   1      -6.405  23.867 119.909  0.00  0.00     0.174 HD
ATOM     59  H25 DAR d   1      -3.857  24.231 122.561  0.00  0.00     0.177 HD
ENDBRANCH  48  51
ENDBRANCH  45  48
ENDBRANCH  42  45
ENDBRANCH   1  42
BRANCH   1  60
ATOM     60  C   DAR d   1      -0.255  19.900 120.089  0.00  0.00     0.241 C 
ATOM     61  O   DAR d   1       0.878  20.409 120.113  0.00  0.00    -0.271 OA
ATOM     62  N   TYR d   1      -0.997  19.781 118.997  0.00  0.00    -0.346 N 
ATOM     63  H30 TYR d   1      -1.899  19.356 119.068  0.00  0.00     0.163 HD
BRANCH  62  64
ATOM     64  CA  TYR d   1      -0.567  20.222 117.775  0.00  0.00     0.093 C 
ATOM     65  H31 TYR d   1       0.520  20.076 117.686  0.00  0.00     0.088 H 
BRANCH  64  66
ATOM     66  C   TYR d   1      -0.937  21.728 117.834  0.00  0.00     0.240 C 
ATOM     67  O   TYR d   1      -2.095  22.034 118.217  0.00  0.00    -0.271 OA
ATOM     68  N   PEA d   1      -0.052  22.852 117.433  0.00  0.00    -0.359 N 
ATOM     69  H48 PEA d   1       0.877  22.640 117.129  0.00  0.00     0.162 HD
BRANCH  68  70
ATOM     70  C1  PEA d   1      -0.489  24.311 117.462  0.00  0.00    -0.001 C 
ATOM     71  H46 PEA d   1      -0.093  24.852 116.590  0.00  0.00     0.064 H 
ATOM     72  H47 PEA d   1      -1.586  24.387 117.474  0.00  0.00     0.064 H 
BRANCH  70  73
ATOM     73  C2  PEA d   1       0.091  24.853 118.727  0.00  0.00    -0.026 C 
ATOM     74  H44 PEA d   1      -0.286  25.884 118.798  0.00  0.00     0.042 H 
ATOM     75  H45 PEA d   1      -0.350  24.244 119.530  0.00  0.00     0.042 H 
BRANCH  73  76
ATOM     76  C1' PEA d   1       1.562  24.946 119.064  0.00  0.00    -0.057 A 
ATOM     77  C6' PEA d   1       2.532  25.319 118.036  0.00  0.00    -0.077 A 
ATOM     78  C5' PEA d   1       3.941  25.404 118.367  0.00  0.00    -0.082 A 
ATOM     79  H39 PEA d   1       2.198  25.532 117.027  0.00  0.00     0.084 H 
ATOM     80  C4' PEA d   1       4.379  25.120 119.720  0.00  0.00    -0.083 A 
ATOM     81  H40 PEA d   1       4.663  25.678 117.607  0.00  0.00     0.083 H 
ATOM     82  C3' PEA d   1       3.416  24.746 120.740  0.00  0.00    -0.082 A 
ATOM     83  H41 PEA d   1       5.431  25.187 119.971  0.00  0.00     0.083 H 
ATOM     84  C2' PEA d   1       2.013  24.659 120.417  0.00  0.00    -0.077 A 
ATOM     85  H42 PEA d   1       3.753  24.531 121.748  0.00  0.00     0.083 H 
ATOM     86  H43 PEA d   1       1.296  24.380 121.181  0.00  0.00     0.084 H 
ENDBRANCH  73  76
ENDBRANCH  70  73
ENDBRANCH  68  70
ENDBRANCH  64  66
BRANCH  64  87
ATOM     87  CB  TYR d   1      -1.267  19.582 116.506  0.00  0.00    -0.014 C 
ATOM     88  H32 TYR d   1      -2.356  19.576 116.663  0.00  0.00     0.043 H 
ATOM     89  H33 TYR d   1      -0.908  18.549 116.383  0.00  0.00     0.043 H 
BRANCH  87  90
ATOM     90  CG  TYR d   1      -0.946  20.390 115.205  0.00  0.00    -0.056 A 
ATOM     91  CD1 TYR d   1       0.234  20.058 114.415  0.00  0.00    -0.074 A 
ATOM     92  CE1 TYR d   1       0.531  20.825 113.228  0.00  0.00    -0.051 A 
ATOM     93  H34 TYR d   1       0.882  19.243 114.716  0.00  0.00     0.084 H 
ATOM     94  CZ  TYR d   1      -0.340  21.917 112.826  0.00  0.00     0.065 A 
ATOM     95  H36 TYR d   1       1.406  20.586 112.635  0.00  0.00     0.087 H 
ATOM     96  CE2 TYR d   1      -1.511  22.251 113.594  0.00  0.00    -0.051 A 
ATOM     97  CD2 TYR d   1      -1.825  21.503 114.769  0.00  0.00    -0.074 A 
ATOM     98  H37 TYR d   1      -2.152  23.067 113.281  0.00  0.00     0.087 H 
ATOM     99  H35 TYR d   1      -2.710  21.749 115.345  0.00  0.00     0.084 H 
BRANCH  94 100
ATOM    100  OH  TYR d   1      -0.053  22.640 111.723  0.00  0.00    -0.361 OA
ATOM    101  H38 TYR d   1       0.742  22.305 111.324  0.00  0.00     0.217 HD
ENDBRANCH  94 100
ENDBRANCH  87  90
ENDBRANCH  64  87
ENDBRANCH  62  64
ENDBRANCH   1  60
TORSDOF 21
