REMARK WARNING: 32 MAX_TORS EXCEEDED!!!
REMARK  42 active torsions:
REMARK  status: ('A' for Active; 'I' for Inactive)
REMARK    1  A    between atoms: N_1  and  CN_2 
REMARK    2  A    between atoms: CA_3  and  CB_6 
REMARK    3  A    between atoms: CB_6  and  OG1_7 
REMARK    4  A    between atoms: CB_6  and  CG2_8 
REMARK    5  A    between atoms: CG2_8  and  CD1_9 
REMARK    6  A    between atoms: CG2_8  and  CD2_10 
REMARK    7  A    between atoms: CD2_10  and  CE_11 
REMARK    8  A    between atoms: CZ_12  and  CH_13 
REMARK    9  A    between atoms: CA_15  and  CB_16 
REMARK   10  A    between atoms: CB_16  and  CG_17 
REMARK   11  A    between atoms: CG_17  and  CD_18 
REMARK   12  A    between atoms: CD_18  and  OG_19 
REMARK   13  A    between atoms: N_22  and  CN_26 
REMARK   14  A    between atoms: N_27  and  CN_28 
REMARK   15  A    between atoms: CA_29  and  CB_30 
REMARK   16  A    between atoms: CB_30  and  CG_31 
REMARK   17  A    between atoms: CG_31  and  CD1_32 
REMARK   18  A    between atoms: CG_31  and  CD2_33 
REMARK   19  A    between atoms: CA_37  and  CB_40 
REMARK   20  A    between atoms: CB_40  and  CG1_41 
REMARK   21  A    between atoms: CB_40  and  CG2_42 
REMARK   22  A    between atoms: N_43  and  CN_44 
REMARK   23  A    between atoms: CA_45  and  CB_46 
REMARK   24  A    between atoms: CB_46  and  CG_47 
REMARK   25  A    between atoms: CG_47  and  CD1_48 
REMARK   26  A    between atoms: CG_47  and  CD2_49 
REMARK   27  A    between atoms: CA_53  and  CB_56 
REMARK   28  A    between atoms: CA_58  and  CB_59 
REMARK   29  A    between atoms: N_62  and  CN_63 
REMARK   30  A    between atoms: CA_64  and  CB_65 
REMARK   31  A    between atoms: CB_65  and  CG_66 
REMARK   32  A    between atoms: CG_66  and  CD1_67 
REMARK   33  A    between atoms: CG_66  and  CD2_68 
REMARK   34  A    between atoms: N_71  and  CN_72 
REMARK   35  A    between atoms: CA_73  and  CB_74 
REMARK   36  A    between atoms: CB_74  and  CG_75 
REMARK   37  A    between atoms: CG_75  and  CD1_76 
REMARK   38  A    between atoms: CG_75  and  CD2_77 
REMARK   39  A    between atoms: N_80  and  CN_81 
REMARK   40  A    between atoms: CA_82  and  CB_83 
REMARK   41  A    between atoms: CB_83  and  CG1_84 
REMARK   42  A    between atoms: CB_83  and  CG2_85 
ROOT
ATOM      1  N   BMT d   1       5.223  34.796  19.618  0.00  0.00    -0.339 N 
ATOM      2  CA  BMT d   1       6.449  34.683  18.815  0.00  0.00     0.116 C 
ATOM      3  C   BMT d   1       7.670  35.478  19.344  0.00  0.00     0.243 C 
ATOM      4  O   BMT d   1       7.604  36.103  20.403  0.00  0.00    -0.271 OA
ATOM      5  H4  BMT d   1       6.734  33.621  18.854  0.00  0.00     0.091 H 
ATOM      6  N   AA4 d   1       8.819  35.284  18.696  0.00  0.00    -0.346 N 
ATOM      7  CA  AA4 d   1      10.077  35.929  19.092  0.00  0.00     0.089 C 
ATOM      8  C   AA4 d   1      10.561  36.843  17.967  0.00  0.00     0.242 C 
ATOM      9  O   AA4 d   1      11.370  36.403  17.152  0.00  0.00    -0.271 OA
ATOM     10  H18 AA4 d   1       8.824  34.672  17.905  0.00  0.00     0.163 HD
ATOM     11  H19 AA4 d   1       9.915  36.514  20.009  0.00  0.00     0.087 H 
ATOM     12  N   SAR d   1      10.230  38.128  17.998  0.00  0.00    -0.346 N 
ATOM     13  CA  SAR d   1      10.690  38.989  16.913  0.00  0.00     0.071 C 
ATOM     14  C   SAR d   1       9.545  39.703  16.207  0.00  0.00     0.238 C 
ATOM     15  O   SAR d   1       9.522  40.940  16.236  0.00  0.00    -0.272 OA
ATOM     16  H27 SAR d   1      11.228  38.372  16.178  0.00  0.00     0.079 H 
ATOM     17  H28 SAR d   1      11.374  39.744  17.328  0.00  0.00     0.079 H 
ATOM     18  N   MLE d   1       8.818  38.998  15.332  0.00  0.00    -0.342 N 
ATOM     19  CA  MLE d   1       7.669  39.614  14.652  0.00  0.00     0.091 C 
ATOM     20  C   MLE d   1       6.357  39.165  15.316  0.00  0.00     0.241 C 
ATOM     21  O   MLE d   1       5.849  38.077  15.021  0.00  0.00    -0.271 OA
ATOM     22  N   MLE d   1       2.633  38.836  15.697  0.00  0.00    -0.341 N 
ATOM     23  CA  MLE d   1       1.538  38.961  14.736  0.00  0.00     0.091 C 
ATOM     24  C   MLE d   1       0.193  39.221  15.404  0.00  0.00     0.241 C 
ATOM     25  O   MLE d   1       0.140  39.536  16.595  0.00  0.00    -0.271 OA
ATOM     26  N   MLE d   1      -3.637  36.243  18.841  0.00  0.00    -0.341 N 
ATOM     27  CA  MLE d   1      -3.032  35.908  20.118  0.00  0.00     0.091 C 
ATOM     28  C   MLE d   1      -1.914  34.910  19.945  0.00  0.00     0.243 C 
ATOM     29  O   MLE d   1      -2.064  33.746  20.296  0.00  0.00    -0.271 OA
ATOM     30  N   MLE d   1      -0.764  35.365  19.469  0.00  0.00    -0.341 N 
ATOM     31  CA  MLE d   1       0.337  34.420  19.286  0.00  0.00     0.091 C 
ATOM     32  C   MLE d   1       1.495  34.711  20.231  0.00  0.00     0.243 C 
ATOM     33  O   MLE d   1       1.407  35.655  21.022  0.00  0.00    -0.271 OA
ATOM     34  H35 MLE d   1       7.760  40.707  14.740  0.00  0.00     0.087 H 
ATOM     35  H57 MLE d   1       1.762  39.833  14.104  0.00  0.00     0.087 H 
ATOM     36  H80 MLE d   1      -2.613  36.826  20.555  0.00  0.00     0.087 H 
ATOM     37  H93 MLE d   1      -0.041  33.411  19.511  0.00  0.00     0.087 H 
ATOM     38  N   VAL d   1       5.827  39.993  16.216  0.00  0.00    -0.346 N 
ATOM     39  CA  VAL d   1       4.582  39.679  16.916  0.00  0.00     0.092 C 
ATOM     40  C   VAL d   1       3.425  39.884  15.939  0.00  0.00     0.243 C 
ATOM     41  O   VAL d   1       3.315  40.964  15.335  0.00  0.00    -0.271 OA
ATOM     42  H45 VAL d   1       6.294  40.854  16.418  0.00  0.00     0.163 HD
ATOM     43  H46 VAL d   1       4.604  38.633  17.256  0.00  0.00     0.088 H 
ATOM     44  N   ALA d   1      -0.777  39.520  14.548  0.00  0.00    -0.346 N 
ATOM     45  CA  ALA d   1      -2.136  39.792  14.989  0.00  0.00     0.086 C 
ATOM     46  C   ALA d   1      -2.708  38.565  15.684  0.00  0.00     0.240 C 
ATOM     47  O   ALA d   1      -2.475  37.437  15.232  0.00  0.00    -0.271 OA
ATOM     48  H67 ALA d   1      -0.567  39.559  13.571  0.00  0.00     0.163 HD
ATOM     49  H68 ALA d   1      -2.124  40.635  15.696  0.00  0.00     0.086 H 
ATOM     50  N   DAL d   1      -3.751  38.828  16.465  0.00  0.00    -0.346 N 
ATOM     51  CA  DAL d   1      -4.460  37.783  17.180  0.00  0.00     0.086 C 
ATOM     52  C   DAL d   1      -3.804  37.515  18.513  0.00  0.00     0.242 C 
ATOM     53  O   DAL d   1      -3.417  38.446  19.210  0.00  0.00    -0.271 OA
ATOM     54  H72 DAL d   1      -4.056  39.775  16.563  0.00  0.00     0.163 HD
ATOM     55  H73 DAL d   1      -4.430  36.861  16.580  0.00  0.00     0.086 H 
ATOM     56  N   MVA d   1       2.399  33.738  20.376  0.00  0.00    -0.341 N 
ATOM     57  CA  MVA d   1       3.573  33.962  21.236  0.00  0.00     0.094 C 
ATOM     58  C   MVA d   1       4.870  33.791  20.423  0.00  0.00     0.243 C 
ATOM     59  O   MVA d   1       5.460  32.705  20.418  0.00  0.00    -0.271 OA
ATOM     60 6H10 MVA d   1       3.529  35.000  21.598  0.00  0.00     0.088 H 
ENDROOT
BRANCH   2  61
ATOM     61  CB  BMT d   1       6.209  35.027  17.329  0.00  0.00     0.067 C 
ATOM     62  H5  BMT d   1       7.103  34.735  16.758  0.00  0.00     0.087 H 
BRANCH  61  63
ATOM     63  OG1 BMT d   1       6.017  36.439  17.201  0.00  0.00    -0.393 OA
ATOM     64  H6  BMT d   1       5.869  36.656  16.288  0.00  0.00     0.210 HD
ENDBRANCH  61  63
BRANCH  61  65
ATOM     65  CG2 BMT d   1       4.988  34.283  16.732  0.00  0.00    -0.027 C 
ATOM     66  H7  BMT d   1       4.080  34.626  17.249  0.00  0.00     0.043 H 
BRANCH  65  67
ATOM     67  CD1 BMT d   1       5.114  32.752  16.918  0.00  0.00    -0.070 C 
ATOM     68  H8  BMT d   1       4.233  32.256  16.484  0.00  0.00     0.028 H 
ATOM     69  H9  BMT d   1       5.176  32.517  17.991  0.00  0.00     0.028 H 
ATOM     70  H10 BMT d   1       6.023  32.395  16.411  0.00  0.00     0.028 H 
ENDBRANCH  65  67
BRANCH  65  71
ATOM     71  CD2 BMT d   1       4.867  34.617  15.235  0.00  0.00    -0.045 C 
ATOM     72  H11 BMT d   1       4.766  35.708  15.136  0.00  0.00     0.039 H 
ATOM     73  H12 BMT d   1       3.961  34.128  14.848  0.00  0.00     0.039 H 
BRANCH  71  74
ATOM     74  CE  BMT d   1       6.054  34.169  14.374  0.00  0.00    -0.106 C 
ATOM     75  CZ  BMT d   1       6.727  35.062  13.644  0.00  0.00    -0.110 C 
ATOM     76  H14 BMT d   1       6.439  36.112  13.658  0.00  0.00     0.075 H 
ATOM     77  H13 BMT d   1       6.349  33.121  14.358  0.00  0.00     0.076 H 
BRANCH  75  78
ATOM     78  CH  BMT d   1       7.891  34.601  12.799  0.00  0.00    -0.060 C 
ATOM     79  H15 BMT d   1       8.324  35.463  12.270  0.00  0.00     0.032 H 
ATOM     80  H16 BMT d   1       7.541  33.859  12.066  0.00  0.00     0.032 H 
ATOM     81  H17 BMT d   1       8.656  34.146  13.445  0.00  0.00     0.032 H 
ENDBRANCH  75  78
ENDBRANCH  71  74
ENDBRANCH  65  71
ENDBRANCH  61  65
ENDBRANCH   2  61
BRANCH   1  82
ATOM     82  CN  BMT d   1       4.642  36.174  19.757  0.00  0.00    -0.015 C 
ATOM     83  H1  BMT d   1       5.077  36.834  18.992  0.00  0.00     0.056 H 
ATOM     84  H2  BMT d   1       4.873  36.570  20.757  0.00  0.00     0.056 H 
ATOM     85  H3  BMT d   1       3.551  36.127  19.624  0.00  0.00     0.056 H 
ENDBRANCH   1  82
BRANCH  57  86
ATOM     86  CB  MVA d   1       3.591  33.014  22.497  0.00  0.00    -0.033 C 
ATOM     87 7H10 MVA d   1       3.812  31.988  22.166  0.00  0.00     0.042 H 
BRANCH  86  88
ATOM     88  CG1 MVA d   1       4.679  33.473  23.479  0.00  0.00    -0.071 C 
ATOM     89 8H10 MVA d   1       4.686  32.808  24.355  0.00  0.00     0.028 H 
ATOM     90 9H10 MVA d   1       4.470  34.504  23.802  0.00  0.00     0.028 H 
ATOM     91 0H11 MVA d   1       5.660  33.436  22.983  0.00  0.00     0.028 H 
ENDBRANCH  86  88
BRANCH  86  92
ATOM     92  CG2 MVA d   1       2.212  33.025  23.222  0.00  0.00    -0.071 C 
ATOM     93 1H11 MVA d   1       1.428  32.697  22.524  0.00  0.00     0.028 H 
ATOM     94 2H11 MVA d   1       1.989  34.044  23.571  0.00  0.00     0.028 H 
ATOM     95 3H11 MVA d   1       2.245  32.342  24.083  0.00  0.00     0.028 H 
ENDBRANCH  86  92
ENDBRANCH  57  86
BRANCH   7  96
ATOM     96  CB  AA4 d   1      11.167  34.875  19.331  0.00  0.00    -0.036 C 
ATOM     97  H20 AA4 d   1      12.032  35.381  19.785  0.00  0.00     0.036 H 
ATOM     98  H21 AA4 d   1      11.456  34.460  18.354  0.00  0.00     0.036 H 
BRANCH  96  99
ATOM     99  CG  AA4 d   1      10.779  33.718  20.232  0.00  0.00    -0.043 C 
ATOM    100  H22 AA4 d   1       9.821  33.301  19.889  0.00  0.00     0.036 H 
ATOM    101  H23 AA4 d   1      10.671  34.087  21.263  0.00  0.00     0.036 H 
BRANCH  99 102
ATOM    102  CD  AA4 d   1      11.835  32.622  20.205  0.00  0.00     0.017 C 
ATOM    103  H24 AA4 d   1      11.947  32.272  19.168  0.00  0.00     0.073 H 
ATOM    104  H25 AA4 d   1      11.491  31.791  20.838  0.00  0.00     0.073 H 
BRANCH 102 105
ATOM    105  OG  AA4 d   1      13.101  33.049  20.674  0.00  0.00    -0.401 OA
ATOM    106  H26 AA4 d   1      13.714  32.324  20.633  0.00  0.00     0.209 HD
ENDBRANCH 102 105
ENDBRANCH  99 102
ENDBRANCH  96  99
ENDBRANCH   7  96
BRANCH  56 107
ATOM    107  CN  MVA d   1       2.256  32.296  19.877  0.00  0.00    -0.015 C 
ATOM    108 3H10 MVA d   1       1.359  32.214  19.245  0.00  0.00     0.056 H 
ATOM    109 4H10 MVA d   1       2.161  31.618  20.738  0.00  0.00     0.056 H 
ATOM    110 5H10 MVA d   1       3.145  32.021  19.290  0.00  0.00     0.056 H 
ENDBRANCH  56 107
BRANCH  12 111
ATOM    111  CN  SAR d   1       9.289  38.838  18.944  0.00  0.00    -0.015 C 
ATOM    112  H29 SAR d   1       8.976  38.145  19.738  0.00  0.00     0.056 H 
ATOM    113  H30 SAR d   1       8.404  39.185  18.390  0.00  0.00     0.056 H 
ATOM    114  H31 SAR d   1       9.802  39.701  19.392  0.00  0.00     0.056 H 
ENDBRANCH  12 111
BRANCH  31 115
ATOM    115  CB  MLE d   1       0.824  34.439  17.834  0.00  0.00    -0.035 C 
ATOM    116  H94 MLE d   1       1.726  33.811  17.791  0.00  0.00     0.037 H 
ATOM    117  H95 MLE d   1       1.091  35.480  17.600  0.00  0.00     0.037 H 
BRANCH 115 118
ATOM    118  CG  MLE d   1      -0.110  33.955  16.714  0.00  0.00    -0.059 C 
ATOM    119  H96 MLE d   1      -0.948  34.660  16.611  0.00  0.00     0.038 H 
BRANCH 118 120
ATOM    120  CD1 MLE d   1       0.729  33.950  15.448  0.00  0.00    -0.073 C 
ATOM    121  H97 MLE d   1       0.114  33.610  14.602  0.00  0.00     0.028 H 
ATOM    122  H98 MLE d   1       1.583  33.269  15.577  0.00  0.00     0.028 H 
ATOM    123  H99 MLE d   1       1.097  34.967  15.248  0.00  0.00     0.028 H 
ENDBRANCH 118 120
BRANCH 118 124
ATOM    124  CD2 MLE d   1      -0.673  32.568  16.941  0.00  0.00    -0.073 C 
ATOM    125 0H10 MLE d   1      -1.282  32.565  17.857  0.00  0.00     0.028 H 
ATOM    126 1H10 MLE d   1       0.153  31.850  17.048  0.00  0.00     0.028 H 
ATOM    127 2H10 MLE d   1      -1.299  32.282  16.083  0.00  0.00     0.028 H 
ENDBRANCH 118 124
ENDBRANCH 115 118
ENDBRANCH  31 115
BRANCH  30 128
ATOM    128  CN  MLE d   1      -0.539  36.778  19.010  0.00  0.00    -0.015 C 
ATOM    129  H90 MLE d   1      -1.442  37.375  19.206  0.00  0.00     0.056 H 
ATOM    130  H91 MLE d   1      -0.324  36.783  17.931  0.00  0.00     0.056 H 
ATOM    131  H92 MLE d   1       0.313  37.210  19.556  0.00  0.00     0.056 H 
ENDBRANCH  30 128
BRANCH  18 132
ATOM    132  CN  MLE d   1       9.077  37.591  14.877  0.00  0.00    -0.015 C 
ATOM    133  H32 MLE d   1       9.944  37.184  15.418  0.00  0.00     0.056 H 
ATOM    134  H33 MLE d   1       9.284  37.587  13.797  0.00  0.00     0.056 H 
ATOM    135  H34 MLE d   1       8.193  36.970  15.083  0.00  0.00     0.056 H 
ENDBRANCH  18 132
BRANCH  27 136
ATOM    136  CB  MLE d   1      -4.093  35.352  21.075  0.00  0.00    -0.035 C 
ATOM    137  H81 MLE d   1      -3.581  35.033  21.995  0.00  0.00     0.037 H 
ATOM    138  H82 MLE d   1      -4.556  34.479  20.592  0.00  0.00     0.037 H 
BRANCH 136 139
ATOM    139  CG  MLE d   1      -5.214  36.314  21.475  0.00  0.00    -0.059 C 
ATOM    140  H83 MLE d   1      -5.697  36.696  20.564  0.00  0.00     0.038 H 
BRANCH 139 141
ATOM    141  CD1 MLE d   1      -6.238  35.576  22.292  0.00  0.00    -0.073 C 
ATOM    142  H84 MLE d   1      -7.044  36.267  22.580  0.00  0.00     0.028 H 
ATOM    143  H85 MLE d   1      -5.762  35.170  23.197  0.00  0.00     0.028 H 
ATOM    144  H86 MLE d   1      -6.657  34.751  21.697  0.00  0.00     0.028 H 
ENDBRANCH 139 141
BRANCH 139 145
ATOM    145  CD2 MLE d   1      -4.648  37.492  22.255  0.00  0.00    -0.073 C 
ATOM    146  H87 MLE d   1      -3.902  38.016  21.639  0.00  0.00     0.028 H 
ATOM    147  H88 MLE d   1      -4.170  37.127  23.176  0.00  0.00     0.028 H 
ATOM    148  H89 MLE d   1      -5.462  38.185  22.514  0.00  0.00     0.028 H 
ENDBRANCH 139 145
ENDBRANCH 136 139
ENDBRANCH  27 136
BRANCH  19 149
ATOM    149  CB  MLE d   1       7.617  39.243  13.162  0.00  0.00    -0.035 C 
ATOM    150  H36 MLE d   1       6.557  39.103  12.905  0.00  0.00     0.037 H 
ATOM    151  H37 MLE d   1       8.150  38.287  13.053  0.00  0.00     0.037 H 
BRANCH 149 152
ATOM    152  CG  MLE d   1       8.203  40.198  12.120  0.00  0.00    -0.059 C 
ATOM    153  H38 MLE d   1       7.913  39.849  11.118  0.00  0.00     0.038 H 
BRANCH 152 154
ATOM    154  CD1 MLE d   1       7.652  41.630  12.314  0.00  0.00    -0.073 C 
ATOM    155  H39 MLE d   1       8.087  42.296  11.555  0.00  0.00     0.028 H 
ATOM    156  H40 MLE d   1       7.920  41.993  13.317  0.00  0.00     0.028 H 
ATOM    157  H41 MLE d   1       6.557  41.619  12.208  0.00  0.00     0.028 H 
ENDBRANCH 152 154
BRANCH 152 158
ATOM    158  CD2 MLE d   1       9.718  40.175  12.223  0.00  0.00    -0.073 C 
ATOM    159  H42 MLE d   1      10.079  39.146  12.081  0.00  0.00     0.028 H 
ATOM    160  H43 MLE d   1      10.024  40.537  13.216  0.00  0.00     0.028 H 
ATOM    161  H44 MLE d   1      10.148  40.825  11.447  0.00  0.00     0.028 H 
ENDBRANCH 152 158
ENDBRANCH 149 152
ENDBRANCH  19 149
BRANCH  26 162
ATOM    162  CN  MLE d   1      -4.074  35.045  18.028  0.00  0.00    -0.015 C 
ATOM    163  H77 MLE d   1      -4.519  35.387  17.082  0.00  0.00     0.056 H 
ATOM    164  H78 MLE d   1      -4.819  34.468  18.596  0.00  0.00     0.056 H 
ATOM    165  H79 MLE d   1      -3.202  34.409  17.815  0.00  0.00     0.056 H 
ENDBRANCH  26 162
BRANCH  51 166
ATOM    166  CB  DAL d   1      -5.915  38.191  17.385  0.00  0.00    -0.049 C 
ATOM    167  H74 DAL d   1      -6.446  37.395  17.927  0.00  0.00     0.030 H 
ATOM    168  H75 DAL d   1      -6.393  38.350  16.407  0.00  0.00     0.030 H 
ATOM    169  H76 DAL d   1      -5.956  39.122  17.969  0.00  0.00     0.030 H 
ENDBRANCH  51 166
BRANCH  39 170
ATOM    170  CB  VAL d   1       4.392  40.600  18.123  0.00  0.00    -0.033 C 
ATOM    171  H47 VAL d   1       4.267  41.633  17.765  0.00  0.00     0.042 H 
BRANCH 170 172
ATOM    172  CG1 VAL d   1       3.143  40.198  18.890  0.00  0.00    -0.071 C 
ATOM    173  H48 VAL d   1       3.014  40.864  19.756  0.00  0.00     0.028 H 
ATOM    174  H49 VAL d   1       3.245  39.160  19.239  0.00  0.00     0.028 H 
ATOM    175  H50 VAL d   1       2.266  40.279  18.231  0.00  0.00     0.028 H 
ENDBRANCH 170 172
BRANCH 170 176
ATOM    176  CG2 VAL d   1       5.602  40.542  19.003  0.00  0.00    -0.071 C 
ATOM    177  H51 VAL d   1       6.490  40.837  18.425  0.00  0.00     0.028 H 
ATOM    178  H52 VAL d   1       5.733  39.517  19.379  0.00  0.00     0.028 H 
ATOM    179  H53 VAL d   1       5.472  41.230  19.851  0.00  0.00     0.028 H 
ENDBRANCH 170 176
ENDBRANCH  39 170
BRANCH  22 180
ATOM    180  CN  MLE d   1       2.539  37.591  16.531  0.00  0.00    -0.015 C 
ATOM    181  H54 MLE d   1       3.386  37.554  17.231  0.00  0.00     0.056 H 
ATOM    182  H55 MLE d   1       2.566  36.708  15.876  0.00  0.00     0.056 H 
ATOM    183  H56 MLE d   1       1.596  37.599  17.097  0.00  0.00     0.056 H 
ENDBRANCH  22 180
BRANCH  45 184
ATOM    184  CB  ALA d   1      -3.018  40.161  13.774  0.00  0.00    -0.049 C 
ATOM    185  H69 ALA d   1      -4.044  40.365  14.114  0.00  0.00     0.030 H 
ATOM    186  H70 ALA d   1      -3.028  39.324  13.061  0.00  0.00     0.030 H 
ATOM    187  H71 ALA d   1      -2.609  41.056  13.283  0.00  0.00     0.030 H 
ENDBRANCH  45 184
BRANCH  23 188
ATOM    188  CB  MLE d   1       1.449  37.731  13.812  0.00  0.00    -0.035 C 
ATOM    189  H58 MLE d   1       0.725  37.974  13.020  0.00  0.00     0.037 H 
ATOM    190  H59 MLE d   1       1.063  36.899  14.419  0.00  0.00     0.037 H 
BRANCH 188 191
ATOM    191  CG  MLE d   1       2.727  37.228  13.117  0.00  0.00    -0.059 C 
ATOM    192  H60 MLE d   1       3.441  36.920  13.895  0.00  0.00     0.038 H 
BRANCH 191 193
ATOM    193  CD1 MLE d   1       2.402  36.007  12.260  0.00  0.00    -0.073 C 
ATOM    194  H61 MLE d   1       3.318  35.652  11.766  0.00  0.00     0.028 H 
ATOM    195  H62 MLE d   1       1.657  36.281  11.498  0.00  0.00     0.028 H 
ATOM    196  H63 MLE d   1       1.996  35.208  12.898  0.00  0.00     0.028 H 
ENDBRANCH 191 193
BRANCH 191 197
ATOM    197  CD2 MLE d   1       3.381  38.319  12.294  0.00  0.00    -0.073 C 
ATOM    198  H64 MLE d   1       3.602  39.182  12.939  0.00  0.00     0.028 H 
ATOM    199  H65 MLE d   1       2.700  38.629  11.488  0.00  0.00     0.028 H 
ATOM    200  H66 MLE d   1       4.316  37.938  11.858  0.00  0.00     0.028 H 
ENDBRANCH 191 197
ENDBRANCH 188 191
ENDBRANCH  23 188
TORSDOF 42
