REMARK  14 active torsions:
REMARK  status: ('A' for Active; 'I' for Inactive)
REMARK    1  A    between atoms: CP1_1  and  C1_7 
REMARK    2  A    between atoms: C1_7  and  C2_8 
REMARK    3  A    between atoms: C2_8  and  N1_9 
REMARK       I    between atoms: N1_9  and  C3_10 
REMARK    4  A    between atoms: C3_10  and  C4_12 
REMARK    5  A    between atoms: C4_12  and  O2_13 
REMARK    6  A    between atoms: O2_13  and  P_14 
REMARK    7  A    between atoms: P_14  and  C5_17 
REMARK    8  A    between atoms: C5_17  and  C6_18 
REMARK    9  A    between atoms: C5_17  and  N2_25 
REMARK   10  A    between atoms: C6_18  and  CR1_19 
REMARK       I    between atoms: N2_25  and  C7_26 
REMARK   11  A    between atoms: C7_26  and  C8_28 
REMARK   12  A    between atoms: C8_28  and  C9_29 
REMARK   13  A    between atoms: C9_29  and  C10_30 
REMARK   14  A    between atoms: C10_30  and  C11_31 
ROOT
ATOM      1  C5  HAL d   1      59.185  -1.578  38.093  0.00  0.00     0.116 C 
ATOM      2  H13 HAL d   1      58.232  -2.098  38.269  0.00  0.00     0.093 H 
ENDROOT
BRANCH   1   3
ATOM      3  P   HAL d   1      59.241  -1.245  36.689  0.00  0.00     0.273 P 
ATOM      4  O3  HAL d   1      60.600  -0.689  36.422  0.00  0.00    -0.645 OA
ATOM      5  O4  HAL d   1      58.791  -2.457  35.954  0.00  0.00    -0.645 OA
BRANCH   3   6
ATOM      6  O2  HAL d   1      58.162  -0.088  36.475  0.00  0.00    -0.301 OA
BRANCH   6   7
ATOM      7  C4  HAL d   1      57.462   0.040  35.243  0.00  0.00     0.103 C 
ATOM      8  H11 HAL d   1      57.596  -0.879  34.653  0.00  0.00     0.089 H 
ATOM      9  H12 HAL d   1      56.392   0.191  35.448  0.00  0.00     0.089 H 
BRANCH   7  10
ATOM     10  C3  HAL d   1      57.991   1.223  34.453  0.00  0.00     0.241 C 
ATOM     11  N1  HAL d   1      59.312   1.316  34.314  0.00  0.00    -0.359 N 
ATOM     12  H10 HAL d   1      59.883   0.612  34.737  0.00  0.00     0.162 HD
ATOM     13  O1  HAL d   1      57.210   2.032  33.947  0.00  0.00    -0.271 OA
BRANCH  11  14
ATOM     14  C2  HAL d   1      59.972   2.388  33.579  0.00  0.00    -0.001 C 
ATOM     15  H8  HAL d   1      59.558   2.414  32.560  0.00  0.00     0.064 H 
ATOM     16  H9  HAL d   1      59.756   3.339  34.087  0.00  0.00     0.064 H 
BRANCH  14  17
ATOM     17  C1  HAL d   1      61.465   2.235  33.478  0.00  0.00    -0.026 C 
ATOM     18  H6  HAL d   1      61.887   2.251  34.494  0.00  0.00     0.042 H 
ATOM     19  H7  HAL d   1      61.685   1.267  33.004  0.00  0.00     0.042 H 
BRANCH  17  20
ATOM     20  CP1 HAL d   1      62.125   3.326  32.668  0.00  0.00    -0.057 A 
ATOM     21  CP2 HAL d   1      63.327   3.091  32.003  0.00  0.00    -0.077 A 
ATOM     22  CP3 HAL d   1      63.929   4.096  31.227  0.00  0.00    -0.082 A 
ATOM     23  H1  HAL d   1      63.803   2.121  32.085  0.00  0.00     0.084 H 
ATOM     24  CP4 HAL d   1      63.316   5.342  31.122  0.00  0.00    -0.083 A 
ATOM     25  H2  HAL d   1      64.864   3.903  30.714  0.00  0.00     0.083 H 
ATOM     26  CP5 HAL d   1      62.113   5.583  31.788  0.00  0.00    -0.082 A 
ATOM     27  H3  HAL d   1      63.772   6.123  30.524  0.00  0.00     0.083 H 
ATOM     28  CP6 HAL d   1      61.530   4.585  32.551  0.00  0.00    -0.077 A 
ATOM     29  H4  HAL d   1      61.635   6.552  31.708  0.00  0.00     0.083 H 
ATOM     30  H5  HAL d   1      60.597   4.784  33.066  0.00  0.00     0.084 H 
ENDBRANCH  17  20
ENDBRANCH  14  17
ENDBRANCH  11  14
ENDBRANCH   7  10
ENDBRANCH   6   7
ENDBRANCH   3   6
ENDBRANCH   1   3
BRANCH   1  31
ATOM     31  C6  HAL d   1      60.324  -2.530  38.508  0.00  0.00    -0.011 C 
ATOM     32  H14 HAL d   1      61.228  -1.929  38.687  0.00  0.00     0.044 H 
ATOM     33  H15 HAL d   1      60.507  -3.230  37.680  0.00  0.00     0.044 H 
BRANCH  31  34
ATOM     34  CR1 HAL d   1      60.036  -3.336  39.755  0.00  0.00    -0.056 A 
ATOM     35  CR2 HAL d   1      59.556  -4.641  39.659  0.00  0.00    -0.077 A 
ATOM     36  CR3 HAL d   1      59.268  -5.387  40.810  0.00  0.00    -0.082 A 
ATOM     37  H16 HAL d   1      59.404  -5.085  38.682  0.00  0.00     0.084 H 
ATOM     38  CR4 HAL d   1      59.459  -4.830  42.073  0.00  0.00    -0.083 A 
ATOM     39  H17 HAL d   1      58.895  -6.401  40.717  0.00  0.00     0.083 H 
ATOM     40  CR5 HAL d   1      59.943  -3.521  42.183  0.00  0.00    -0.082 A 
ATOM     41  H18 HAL d   1      59.234  -5.406  42.964  0.00  0.00     0.083 H 
ATOM     42  CR6 HAL d   1      60.229  -2.782  41.025  0.00  0.00    -0.077 A 
ATOM     43  H19 HAL d   1      60.096  -3.079  43.161  0.00  0.00     0.083 H 
ATOM     44  H20 HAL d   1      60.604  -1.769  41.116  0.00  0.00     0.084 H 
ENDBRANCH  31  34
ENDBRANCH   1  31
BRANCH   1  45
ATOM     45  N2  HAL d   1      59.207  -0.385  38.939  0.00  0.00    -0.344 N 
ATOM     46  C7  HAL d   1      58.239  -0.158  39.819  0.00  0.00     0.218 C 
ATOM     47  O5  HAL d   1      57.291  -0.923  39.959  0.00  0.00    -0.274 OA
ATOM     48  H21 HAL d   1      59.960   0.267  38.854  0.00  0.00     0.163 HD
BRANCH  46  49
ATOM     49  C8  HAL d   1      58.336   1.119  40.650  0.00  0.00     0.010 C 
ATOM     50  H22 HAL d   1      58.031   1.970  40.023  0.00  0.00     0.047 H 
ATOM     51  H23 HAL d   1      59.381   1.253  40.967  0.00  0.00     0.047 H 
BRANCH  49  52
ATOM     52  C9  HAL d   1      57.444   1.085  41.900  0.00  0.00    -0.048 C 
ATOM     53  H24 HAL d   1      56.398   0.927  41.599  0.00  0.00     0.034 H 
ATOM     54  H25 HAL d   1      57.531   2.041  42.437  0.00  0.00     0.034 H 
BRANCH  52  55
ATOM     55  C10 HAL d   1      57.885  -0.051  42.813  0.00  0.00     0.016 C 
ATOM     56  H26 HAL d   1      58.935   0.121  43.093  0.00  0.00     0.049 H 
ATOM     57  H27 HAL d   1      57.805  -0.994  42.252  0.00  0.00     0.049 H 
BRANCH  55  58
ATOM     58  C11 HAL d   1      57.066  -0.185  44.091  0.00  0.00     0.172 C 
ATOM     59  O6  HAL d   1      57.148  -1.265  44.712  0.00  0.00    -0.648 OA
ATOM     60  O7  HAL d   1      56.359   0.763  44.490  0.00  0.00    -0.648 OA
ENDBRANCH  55  58
ENDBRANCH  52  55
ENDBRANCH  49  52
ENDBRANCH  46  49
ENDBRANCH   1  45
TORSDOF 14
