REMARK  5 active torsions:
REMARK  status: ('A' for Active; 'I' for Inactive)
REMARK    1  A    between atoms: C5_5  and  C8_8 
REMARK    2  A    between atoms: C10_10  and  O18_18 
REMARK    3  A    between atoms: C11_11  and  O15_15 
REMARK    4  A    between atoms: O15_15  and  C14_14 
REMARK    5  A    between atoms: O18_18  and  C19_19 
ROOT
ATOM      1  C8  ZAR d   1      44.691   6.246 121.406  0.00  0.00    -0.003 A 
ATOM      2  C9  ZAR d   1      44.753   5.107 122.286  0.00  0.00    -0.036 A 
ATOM      3  C10 ZAR d   1      44.875   5.254 123.705  0.00  0.00     0.102 A 
ATOM      4  C11 ZAR d   1      44.938   6.561 124.282  0.00  0.00     0.108 A 
ATOM      5  C12 ZAR d   1      44.877   7.701 123.413  0.00  0.00    -0.047 A 
ATOM      6  C13 ZAR d   1      44.753   7.540 122.014  0.00  0.00    -0.068 A 
ATOM      7  H4  ZAR d   1      44.706   4.111 121.862  0.00  0.00     0.089 H 
ATOM      8  H5  ZAR d   1      44.927   8.698 123.835  0.00  0.00     0.087 H 
ATOM      9  H6  ZAR d   1      44.703   8.421 121.384  0.00  0.00     0.085 H 
ENDROOT
BRANCH   1  10
ATOM     10  C5  ZAR d   1      44.575   6.082 120.054  0.00  0.00     0.087 A 
ATOM     11  N4  ZAR d   1      44.535   4.871 119.595  0.00  0.00    -0.171 NA
ATOM     12  N3  ZAR d   1      44.420   4.556 118.230  0.00  0.00    -0.243 N 
ATOM     13  C2  ZAR d   1      44.340   5.575 117.281  0.00  0.00     0.261 A 
ATOM     14  H1  ZAR d   1      44.395   3.600 117.939  0.00  0.00     0.192 HD
ATOM     15  O1  ZAR d   1      44.241   5.307 116.097  0.00  0.00    -0.267 OA
ATOM     16  C7  ZAR d   1      44.377   7.008 117.721  0.00  0.00    -0.014 A 
ATOM     17  C6  ZAR d   1      44.491   7.221 119.052  0.00  0.00    -0.047 A 
ATOM     18  H3  ZAR d   1      44.316   7.830 117.010  0.00  0.00     0.092 H 
ATOM     19  H2  ZAR d   1      44.524   8.246 119.419  0.00  0.00     0.087 H 
ENDBRANCH   1  10
BRANCH   3  20
ATOM     20  O18 ZAR d   1      44.934   4.179 124.549  0.00  0.00    -0.353 OA
BRANCH  20  21
ATOM     21  C19 ZAR d   1      44.891   2.796 124.210  0.00  0.00     0.010 C 
ATOM     22  H8  ZAR d   1      44.961   2.192 125.126  0.00  0.00     0.066 H 
ATOM     23  H9  ZAR d   1      45.734   2.555 123.546  0.00  0.00     0.066 H 
ATOM     24  H10 ZAR d   1      43.944   2.574 123.696  0.00  0.00     0.066 H 
ENDBRANCH  20  21
ENDBRANCH   3  20
BRANCH   4  25
ATOM     25  O15 ZAR d   1      45.064   6.648 125.651  0.00  0.00    -0.287 OA
BRANCH  25  26
ATOM     26  C14 ZAR d   1      45.166   7.787 126.507  0.00  0.00     0.310 C 
ATOM     27  F16 ZAR d   1      46.311   8.522 126.197  0.00  0.00    -0.184 F 
ATOM     28  F17 ZAR d   1      44.077   8.630 126.389  0.00  0.00    -0.184 F 
ATOM     29  H7  ZAR d   1      45.231   7.435 127.547  0.00  0.00     0.195 H 
ENDBRANCH  25  26
ENDBRANCH   4  25
TORSDOF 5
