REMARK  4 active torsions:
REMARK  status: ('A' for Active; 'I' for Inactive)
REMARK    1  A    between atoms: C02_2  and  C01_1 
REMARK    2  A    between atoms: C03_3  and  C02_2 
REMARK    3  A    between atoms: C02_2  and  NP3_6 
REMARK    4  A    between atoms: N14_7  and  C03_3 
ROOT
ATOM      1  C03 QUS d   1      32.103  54.884   4.470  0.00  0.00     0.062 C 
ATOM      2  H2  QUS d   1      32.951  54.968   5.165  0.00  0.00     0.072 H 
ATOM      3  H3  QUS d   1      31.502  55.805   4.511  0.00  0.00     0.072 H 
ENDROOT
BRANCH   1   4
ATOM      4  C02 QUS d   1      31.224  53.701   4.904  0.00  0.00     0.200 C 
ATOM      5  H1  QUS d   1      31.519  52.805   4.338  0.00  0.00     0.104 H 
BRANCH   4   6
ATOM      6  C01 QUS d   1      31.482  53.532   6.403  0.00  0.00     0.206 C 
ATOM      7  O16 QUS d   1      30.511  53.513   7.189  0.00  0.00    -0.646 OA
ATOM      8  O17 QUS d   1      32.677  53.418   6.776  0.00  0.00    -0.646 OA
ENDBRANCH   4   6
BRANCH   4   9
ATOM      9  NP3 QUS d   1      29.752  53.892   4.792  0.00  0.00    -0.064 N 
ATOM     10  H4  QUS d   1      29.280  53.057   5.102  0.00  0.00     0.275 HD
ATOM     11  H5  QUS d   1      29.509  54.078   3.831  0.00  0.00     0.275 HD
ATOM     12  H6  QUS d   1      29.470  54.671   5.367  0.00  0.00     0.275 HD
ENDBRANCH   4   9
ENDBRANCH   1   4
BRANCH   1  13
ATOM     13  N14 QUS d   1      32.626  54.721   3.104  0.00  0.00    -0.194 N 
ATOM     14  O20 QUS d   1      31.806  55.166   2.029  0.00  0.00    -0.174 OA
ATOM     15  C05 QUS d   1      32.235  54.487   0.939  0.00  0.00     0.391 A 
ATOM     16  O19 QUS d   1      31.723  54.657  -0.147  0.00  0.00    -0.236 OA
ATOM     17  N15 QUS d   1      33.257  53.666   1.327  0.00  0.00    -0.251 N 
ATOM     18  C04 QUS d   1      33.519  53.780   2.649  0.00  0.00     0.351 A 
ATOM     19  H7  QUS d   1      33.751  53.055   0.708  0.00  0.00     0.176 HD
ATOM     20  O18 QUS d   1      34.339  53.216   3.345  0.00  0.00    -0.244 OA
ENDBRANCH   1  13
TORSDOF 4
