REMARK  8 active torsions:
REMARK  status: ('A' for Active; 'I' for Inactive)
REMARK    1  A    between atoms: C2_36  and  C1_33 
REMARK    2  A    between atoms: C3_37  and  C2_36 
REMARK    3  A    between atoms: C13_52  and  C3_37 
REMARK    4  A    between atoms: C3_37  and  C4_38 
REMARK       I    between atoms: C4_38  and  N2_40 
REMARK    5  A    between atoms: N2_40  and  C5_41 
REMARK    6  A    between atoms: C14_53  and  C13_52 
REMARK    7  A    between atoms: C14_53  and  C16_55 
REMARK    8  A    between atoms: C14_53  and  C15_54 
ROOT
ATOM      1  H5  RSS d   1       7.485  44.297  70.679  0.00  0.00     0.088 H 
ATOM      2  H6  RSS d   1       5.409  44.321  71.115  0.00  0.00     0.162 HD
ATOM      3  H7  RSS d   1       3.412  45.768  69.912  0.00  0.00     0.064 H 
ATOM      4  H8  RSS d   1       3.818  46.783  71.338  0.00  0.00     0.064 H 
ATOM      5  H9  RSS d   1       3.045  43.796  71.380  0.00  0.00     0.035 H 
ATOM      6  H10 RSS d   1       1.999  45.160  71.899  0.00  0.00     0.035 H 
ATOM      7  H11 RSS d   1       4.628  44.371  73.245  0.00  0.00     0.033 H 
ATOM      8  H12 RSS d   1       3.001  43.834  73.784  0.00  0.00     0.033 H 
ATOM      9  H13 RSS d   1       2.380  46.183  74.261  0.00  0.00     0.033 H 
ATOM     10  H14 RSS d   1       4.001  46.726  73.712  0.00  0.00     0.033 H 
ATOM     11  H15 RSS d   1       4.056  44.609  75.787  0.00  0.00     0.035 H 
ATOM     12  H16 RSS d   1       3.280  46.140  76.318  0.00  0.00     0.035 H 
ATOM     13  H17 RSS d   1       5.681  46.033  76.954  0.00  0.00     0.064 H 
ATOM     14  H18 RSS d   1       5.352  47.388  75.823  0.00  0.00     0.064 H 
ATOM     15  H28 RSS d   1       8.477  46.981  71.784  0.00  0.00     0.044 H 
ATOM     16  H29 RSS d   1       9.385  45.433  71.855  0.00  0.00     0.044 H 
ATOM     17  H30 RSS d   1       6.605  47.396  73.580  0.00  0.00     0.112 H 
ATOM     18  H31 RSS d   1       9.007  42.986  72.731  0.00  0.00     0.084 H 
ATOM     19  H32 RSS d   1       6.137  43.586  76.799  0.00  0.00     0.087 H 
ATOM     20  C5  RSS d   1       7.625  45.385  70.603  0.00  0.00     0.093 C 
ATOM     21  C6  RSS d   1       6.276  46.030  70.531  0.00  0.00     0.240 C 
ATOM     22  O4  RSS d   1       6.186  47.219  70.210  0.00  0.00    -0.271 OA
ATOM     23  N3  RSS d   1       5.237  45.276  70.875  0.00  0.00    -0.359 N 
ATOM     24  C7  RSS d   1       3.844  45.764  70.924  0.00  0.00    -0.005 C 
ATOM     25  C8  RSS d   1       3.034  44.792  71.846  0.00  0.00    -0.050 C 
ATOM     26  C9  RSS d   1       3.564  44.645  73.299  0.00  0.00    -0.064 C 
ATOM     27  C10 RSS d   1       3.442  45.907  74.187  0.00  0.00    -0.064 C 
ATOM     28  C11 RSS d   1       3.997  45.694  75.613  0.00  0.00    -0.050 C 
ATOM     29  C12 RSS d   1       5.393  46.294  75.925  0.00  0.00    -0.000 C 
ATOM     30  N4  RSS d   1       6.389  45.752  74.985  0.00  0.00    -0.356 N 
ATOM     31  C17 RSS d   1       8.383  45.887  71.846  0.00  0.00    -0.012 C 
ATOM     32  C18 RSS d   1       7.694  45.541  73.108  0.00  0.00    -0.028 A 
ATOM     33  C19 RSS d   1       6.856  46.374  73.859  0.00  0.00    -0.013 A 
ATOM     34  C20 RSS d   1       7.732  44.331  73.839  0.00  0.00    -0.002 A 
ATOM     35  C21 RSS d   1       6.914  44.499  74.999  0.00  0.00     0.045 A 
ATOM     36  C22 RSS d   1       8.388  43.124  73.610  0.00  0.00    -0.070 A 
ATOM     37  C23 RSS d   1       6.759  43.462  75.920  0.00  0.00    -0.056 A 
ATOM     38  C24 RSS d   1       8.229  42.101  74.537  0.00  0.00    -0.082 A 
ATOM     39  C25 RSS d   1       7.422  42.271  75.680  0.00  0.00    -0.081 A 
ATOM     40  H33 RSS d   1       8.735  41.155  74.378  0.00  0.00     0.083 H 
ATOM     41  H34 RSS d   1       7.319  41.453  76.384  0.00  0.00     0.083 H 
ENDROOT
BRANCH  20  42
ATOM     42  N2  RSS d   1       8.442  45.672  69.430  0.00  0.00    -0.347 N 
ATOM     43  H4  RSS d   1       9.074  46.447  69.465  0.00  0.00     0.163 HD
ATOM     44  C4  RSS d   1       8.384  44.948  68.314  0.00  0.00     0.223 C 
ATOM     45  O3  RSS d   1       7.643  43.960  68.223  0.00  0.00    -0.273 OA
BRANCH  44  46
ATOM     46  C3  RSS d   1       9.313  45.360  67.176  0.00  0.00     0.033 C 
ATOM     47  H3  RSS d   1       9.831  46.294  67.440  0.00  0.00     0.055 H 
BRANCH  46  48
ATOM     48  C2  RSS d   1      10.333  44.236  67.036  0.00  0.00     0.027 C 
ATOM     49  H1  RSS d   1      10.585  43.837  68.030  0.00  0.00     0.050 H 
ATOM     50  H2  RSS d   1       9.916  43.431  66.413  0.00  0.00     0.050 H 
BRANCH  48  51
ATOM     51  C1  RSS d   1      11.558  44.791  66.389  0.00  0.00     0.173 C 
ATOM     52  O2  RSS d   1      12.269  45.663  66.892  0.00  0.00    -0.648 OA
ATOM     53  O1  RSS d   1      11.945  44.472  65.146  0.00  0.00    -0.648 OA
ENDBRANCH  48  51
ENDBRANCH  46  48
BRANCH  46  54
ATOM     54  C13 RSS d   1       8.526  45.591  65.884  0.00  0.00    -0.051 C 
ATOM     55  H19 RSS d   1       7.995  44.659  65.640  0.00  0.00     0.034 H 
ATOM     56  H20 RSS d   1       9.247  45.822  65.086  0.00  0.00     0.034 H 
BRANCH  54  57
ATOM     57  C14 RSS d   1       7.486  46.731  65.928  0.00  0.00    -0.060 C 
ATOM     58  H21 RSS d   1       6.794  46.547  66.763  0.00  0.00     0.038 H 
BRANCH  57  59
ATOM     59  C16 RSS d   1       6.701  46.678  64.619  0.00  0.00    -0.073 C 
ATOM     60  H25 RSS d   1       6.252  45.681  64.501  0.00  0.00     0.028 H 
ATOM     61  H26 RSS d   1       7.380  46.876  63.776  0.00  0.00     0.028 H 
ATOM     62  H27 RSS d   1       5.906  47.438  64.637  0.00  0.00     0.028 H 
ENDBRANCH  57  59
BRANCH  57  63
ATOM     63  C15 RSS d   1       8.143  48.102  66.157  0.00  0.00    -0.073 C 
ATOM     64  H22 RSS d   1       7.367  48.881  66.181  0.00  0.00     0.028 H 
ATOM     65  H23 RSS d   1       8.848  48.312  65.339  0.00  0.00     0.028 H 
ATOM     66  H24 RSS d   1       8.684  48.094  67.115  0.00  0.00     0.028 H 
ENDBRANCH  57  63
ENDBRANCH  54  57
ENDBRANCH  46  54
ENDBRANCH  44  46
ENDBRANCH  20  42
TORSDOF 8
