REMARK  11 active torsions:
REMARK  status: ('A' for Active; 'I' for Inactive)
REMARK    1  A    between atoms: O3B_5  and  PG_1 
REMARK    2  A    between atoms: PB_6  and  O3B_5 
REMARK    3  A    between atoms: O3A_9  and  PB_6 
REMARK    4  A    between atoms: PA_10  and  O3A_9 
REMARK    5  A    between atoms: O5_13  and  PA_10 
REMARK    6  A    between atoms: C5_14  and  O5_13 
REMARK    7  A    between atoms: C4_15  and  C5_14 
REMARK    8  A    between atoms: N1_18  and  C1_17 
REMARK       I    between atoms: C6_21  and  N3_20 
REMARK    9  A    between atoms: C6_21  and  C3_23 
REMARK   10  A    between atoms: C2_26  and  O2_27 
REMARK   11  A    between atoms: C3_28  and  O3_29 
ROOT
ATOM      1  C4  RTP d   1      69.334  33.411   0.564  0.00  0.00     0.089 C 
ATOM      2  O4  RTP d   1      69.362  34.711  -0.084  0.00  0.00    -0.352 OA
ATOM      3  C1  RTP d   1      68.201  35.460   0.267  0.00  0.00     0.154 C 
ATOM      4  C2  RTP d   1      67.472  34.699   1.377  0.00  0.00     0.106 C 
ATOM      5  C3  RTP d   1      67.903  33.287   1.044  0.00  0.00     0.091 C 
ATOM      6  H3  RTP d   1      70.012  33.396   1.430  0.00  0.00     0.090 H 
ATOM      7  H4  RTP d   1      68.488  36.455   0.637  0.00  0.00     0.125 H 
ATOM      8  H8  RTP d   1      66.380  34.818   1.328  0.00  0.00     0.094 H 
ATOM      9  H10 RTP d   1      67.273  32.891   0.234  0.00  0.00     0.091 H 
ENDROOT
BRANCH   1  10
ATOM     10  C5  RTP d   1      69.785  32.353  -0.404  0.00  0.00     0.058 C 
ATOM     11  H1  RTP d   1      70.712  32.681  -0.896  0.00  0.00     0.079 H 
ATOM     12  H2  RTP d   1      69.971  31.416   0.141  0.00  0.00     0.079 H 
BRANCH  10  13
ATOM     13  O5  RTP d   1      68.785  32.135  -1.384  0.00  0.00    -0.287 OA
BRANCH  13  14
ATOM     14  PA  RTP d   1      68.207  30.674  -1.621  0.00  0.00     0.417 P 
ATOM     15  O1A RTP d   1      67.190  30.730  -2.704  0.00  0.00    -0.624 OA
ATOM     16  O2A RTP d   1      69.352  29.735  -1.730  0.00  0.00    -0.624 OA
BRANCH  14  17
ATOM     17  O3A RTP d   1      67.487  30.449  -0.215  0.00  0.00    -0.180 OA
BRANCH  17  18
ATOM     18  PB  RTP d   1      67.311  29.181   0.737  0.00  0.00     0.428 P 
ATOM     19  O1B RTP d   1      67.584  27.980  -0.098  0.00  0.00    -0.624 OA
ATOM     20  O2B RTP d   1      65.983  29.325   1.375  0.00  0.00    -0.624 OA
BRANCH  18  21
ATOM     21  O3B RTP d   1      68.437  29.314   1.886  0.00  0.00    -0.173 OA
BRANCH  21  22
ATOM     22  PG  RTP d   1      70.020  29.191   2.189  0.00  0.00     0.431 P 
ATOM     23  O1G RTP d   1      70.409  30.443   2.901  0.00  0.00    -0.616 OA
ATOM     24  O2G RTP d   1      70.177  27.903   2.924  0.00  0.00    -0.616 OA
ATOM     25  O3G RTP d   1      70.685  29.321   0.861  0.00  0.00    -0.616 OA
ENDBRANCH  21  22
ENDBRANCH  18  21
ENDBRANCH  17  18
ENDBRANCH  14  17
ENDBRANCH  13  14
ENDBRANCH  10  13
ENDBRANCH   1  10
BRANCH   5  26
ATOM     26  O3  RTP d   1      67.799  32.412   2.159  0.00  0.00    -0.390 OA
ATOM     27  H11 RTP d   1      68.079  31.541   1.904  0.00  0.00     0.210 HD
ENDBRANCH   5  26
BRANCH   3  28
ATOM     28  N1  RTP d   1      67.387  35.609  -0.934  0.00  0.00    -0.229 N 
ATOM     29  N2  RTP d   1      66.752  36.747  -1.340  0.00  0.00    -0.143 NA
ATOM     30  C3  RTP d   1      66.101  36.421  -2.524  0.00  0.00     0.238 A 
ATOM     31  N4  RTP d   1      66.346  35.087  -2.837  0.00  0.00    -0.216 NA
ATOM     32  C5  RTP d   1      67.106  34.651  -1.873  0.00  0.00     0.088 A 
ATOM     33  H7  RTP d   1      67.480  33.630  -1.819  0.00  0.00     0.146 H 
BRANCH  30  34
ATOM     34  C6  RTP d   1      65.313  37.310  -3.290  0.00  0.00     0.288 C 
ATOM     35  N3  RTP d   1      65.275  38.586  -2.723  0.00  0.00    -0.363 N 
ATOM     36  H5  RTP d   1      65.775  38.772  -1.877  0.00  0.00     0.159 HD
ATOM     37  H6  RTP d   1      64.748  39.313  -3.163  0.00  0.00     0.159 HD
ATOM     38  O3  RTP d   1      64.696  37.078  -4.335  0.00  0.00    -0.264 OA
ENDBRANCH  30  34
ENDBRANCH   3  28
BRANCH   4  39
ATOM     39  O2  RTP d   1      67.955  35.138   2.635  0.00  0.00    -0.388 OA
ATOM     40  H9  RTP d   1      67.794  36.070   2.727  0.00  0.00     0.210 HD
ENDBRANCH   4  39
TORSDOF 11
