REMARK  13 active torsions:
REMARK  status: ('A' for Active; 'I' for Inactive)
REMARK    1  A    between atoms: C2_2  and  C1_1 
REMARK       I    between atoms: C1_1  and  N1_19 
REMARK    2  A    between atoms: C3_3  and  C2_2 
REMARK    3  A    between atoms: C3_3  and  C4_4 
REMARK    4  A    between atoms: C8_8  and  C3_3 
REMARK    5  A    between atoms: C4_4  and  C5_5 
REMARK    6  A    between atoms: C5_5  and  C6_6 
REMARK    7  A    between atoms: C5_5  and  C7_7 
REMARK       I    between atoms: N2_20  and  C8_8 
REMARK    8  A    between atoms: C9_9  and  C10_10 
REMARK    9  A    between atoms: C9_9  and  C12_12 
REMARK   10  A    between atoms: C9_9  and  N2_20 
REMARK       I    between atoms: C10_10  and  N3_21 
REMARK   11  A    between atoms: N3_21  and  C11_11 
REMARK   12  A    between atoms: C12_12  and  C13_13 
REMARK   13  A    between atoms: N1_19  and  O1_22 
ROOT
ATOM      1  C8  PLH d   1      -3.984  27.850  22.395  0.00  0.00     0.223 C 
ATOM      2  N2  PLH d   1      -5.129  27.823  21.657  0.00  0.00    -0.347 N 
ATOM      3  O3  PLH d   1      -3.921  27.237  23.466  0.00  0.00    -0.273 OA
ATOM      4  H25 PLH d   1      -5.142  28.313  20.785  0.00  0.00     0.163 HD
ENDROOT
BRANCH   1   5
ATOM      5  C3  PLH d   1      -2.815  28.604  21.925  0.00  0.00     0.032 C 
ATOM      6  H3  PLH d   1      -3.121  29.132  21.010  0.00  0.00     0.055 H 
BRANCH   5   7
ATOM      7  C2  PLH d   1      -2.456  29.699  22.961  0.00  0.00     0.022 C 
ATOM      8  H1  PLH d   1      -3.346  30.315  23.157  0.00  0.00     0.048 H 
ATOM      9  H2  PLH d   1      -2.130  29.218  23.895  0.00  0.00     0.048 H 
BRANCH   7  10
ATOM     10  C1  PLH d   1      -1.385  30.552  22.464  0.00  0.00     0.241 C 
ATOM     11  N1  PLH d   1      -0.151  30.506  22.986  0.00  0.00    -0.237 N 
ATOM     12  H24 PLH d   1      -0.006  29.888  23.759  0.00  0.00     0.197 HD
ATOM     13  O2  PLH d   1      -1.656  31.307  21.532  0.00  0.00    -0.271 OA
BRANCH  11  14
ATOM     14  O1  PLH d   1       0.861  31.185  22.581  0.00  0.00    -0.287 OA
ATOM     15  H27 PLH d   1       1.617  30.973  23.115  0.00  0.00     0.244 HD
ENDBRANCH  11  14
ENDBRANCH   7  10
ENDBRANCH   5   7
BRANCH   5  16
ATOM     16  C4  PLH d   1      -1.646  27.678  21.507  0.00  0.00    -0.051 C 
ATOM     17  H4  PLH d   1      -1.381  27.090  22.398  0.00  0.00     0.034 H 
ATOM     18  H5  PLH d   1      -0.807  28.337  21.240  0.00  0.00     0.034 H 
BRANCH  16  19
ATOM     19  C5  PLH d   1      -1.795  26.672  20.349  0.00  0.00    -0.060 C 
ATOM     20  H6  PLH d   1      -2.695  26.057  20.494  0.00  0.00     0.038 H 
BRANCH  19  21
ATOM     21  C6  PLH d   1      -1.848  27.420  18.993  0.00  0.00    -0.073 C 
ATOM     22  H7  PLH d   1      -1.954  26.691  18.176  0.00  0.00     0.028 H 
ATOM     23  H8  PLH d   1      -0.920  27.994  18.854  0.00  0.00     0.028 H 
ATOM     24  H9  PLH d   1      -2.708  28.106  18.986  0.00  0.00     0.028 H 
ENDBRANCH  19  21
BRANCH  19  25
ATOM     25  C7  PLH d   1      -0.538  25.805  20.277  0.00  0.00    -0.073 C 
ATOM     26  H10 PLH d   1      -0.430  25.237  21.213  0.00  0.00     0.028 H 
ATOM     27  H11 PLH d   1       0.343  26.448  20.134  0.00  0.00     0.028 H 
ATOM     28  H12 PLH d   1      -0.623  25.106  19.432  0.00  0.00     0.028 H 
ENDBRANCH  19  25
ENDBRANCH  16  19
ENDBRANCH   5  16
ENDBRANCH   1   5
BRANCH   2  29
ATOM     29  C9  PLH d   1      -6.301  27.138  22.059  0.00  0.00     0.093 C 
ATOM     30  H13 PLH d   1      -6.307  27.098  23.158  0.00  0.00     0.088 H 
BRANCH  29  31
ATOM     31  C10 PLH d   1      -6.432  25.780  21.531  0.00  0.00     0.240 C 
ATOM     32  N3  PLH d   1      -6.776  24.886  22.438  0.00  0.00    -0.364 N 
ATOM     33  H26 PLH d   1      -6.897  25.169  23.390  0.00  0.00     0.161 HD
ATOM     34  O4  PLH d   1      -6.218  25.576  20.317  0.00  0.00    -0.271 OA
BRANCH  32  35
ATOM     35  C11 PLH d   1      -6.976  23.528  22.079  0.00  0.00    -0.018 C 
ATOM     36  H14 PLH d   1      -7.255  22.950  22.972  0.00  0.00     0.056 H 
ATOM     37  H15 PLH d   1      -6.047  23.120  21.654  0.00  0.00     0.056 H 
ATOM     38  H16 PLH d   1      -7.781  23.461  21.332  0.00  0.00     0.056 H 
ENDBRANCH  32  35
ENDBRANCH  29  31
BRANCH  29  39
ATOM     39  C12 PLH d   1      -7.558  27.865  21.554  0.00  0.00    -0.014 C 
ATOM     40  H17 PLH d   1      -8.432  27.229  21.756  0.00  0.00     0.043 H 
ATOM     41  H18 PLH d   1      -7.459  28.019  20.469  0.00  0.00     0.043 H 
BRANCH  39  42
ATOM     42  C13 PLH d   1      -7.778  29.172  22.190  0.00  0.00    -0.056 A 
ATOM     43  C14 PLH d   1      -7.481  30.353  21.553  0.00  0.00    -0.077 A 
ATOM     44  C15 PLH d   1      -7.690  31.570  22.172  0.00  0.00    -0.082 A 
ATOM     45  H19 PLH d   1      -7.076  30.329  20.548  0.00  0.00     0.084 H 
ATOM     46  C16 PLH d   1      -8.199  31.597  23.470  0.00  0.00    -0.083 A 
ATOM     47  H20 PLH d   1      -7.461  32.494  21.654  0.00  0.00     0.083 H 
ATOM     48  C17 PLH d   1      -8.479  30.452  24.145  0.00  0.00    -0.082 A 
ATOM     49  H21 PLH d   1      -8.375  32.553  23.951  0.00  0.00     0.083 H 
ATOM     50  C18 PLH d   1      -8.281  29.258  23.483  0.00  0.00    -0.077 A 
ATOM     51  H22 PLH d   1      -8.844  30.476  25.165  0.00  0.00     0.083 H 
ATOM     52  H23 PLH d   1      -8.531  28.338  23.999  0.00  0.00     0.084 H 
ENDBRANCH  39  42
ENDBRANCH  29  39
ENDBRANCH   2  29
TORSDOF 13
