REMARK  4 active torsions:
REMARK  status: ('A' for Active; 'I' for Inactive)
REMARK    1  A    between atoms: C3_3  and  C12_7 
REMARK    2  A    between atoms: C12_7  and  O17_8 
REMARK    3  A    between atoms: C12_7  and  C13_9 
REMARK    4  A    between atoms: C12_7  and  C14_10 
ROOT
ATOM      1  C1  APG d   1      32.476   3.349  15.626  0.00  0.00    -0.082 A 
ATOM      2  C2  APG d   1      31.244   3.467  16.292  0.00  0.00    -0.073 A 
ATOM      3  C3  APG d   1      31.052   4.456  17.252  0.00  0.00    -0.014 A 
ATOM      4  C4  APG d   1      32.104   5.335  17.559  0.00  0.00    -0.073 A 
ATOM      5  C5  APG d   1      33.328   5.216  16.899  0.00  0.00    -0.082 A 
ATOM      6  C6  APG d   1      33.517   4.227  15.935  0.00  0.00    -0.083 A 
ATOM      7  H1  APG d   1      32.617   2.580  14.876  0.00  0.00     0.083 H 
ATOM      8  H2  APG d   1      30.437   2.783  16.056  0.00  0.00     0.084 H 
ATOM      9  H3  APG d   1      31.965   6.106  18.308  0.00  0.00     0.084 H 
ATOM     10  H4  APG d   1      34.137   5.897  17.138  0.00  0.00     0.083 H 
ATOM     11  H5  APG d   1      34.470   4.140  15.426  0.00  0.00     0.083 H 
ENDROOT
BRANCH   3  12
ATOM     12  C12 APG d   1      29.702   4.477  18.016  0.00  0.00     0.169 C 
BRANCH  12  13
ATOM     13  O17 APG d   1      28.681   3.644  17.470  0.00  0.00    -0.374 OA
ATOM     14  H6  APG d   1      28.493   3.918  16.580  0.00  0.00     0.211 HD
ENDBRANCH  12  13
BRANCH  12  15
ATOM     15  C13 APG d   1      29.124   5.882  18.347  0.00  0.00     0.213 C 
ATOM     16  O14 APG d   1      29.835   6.773  18.807  0.00  0.00    -0.645 OA
ATOM     17  O15 APG d   1      27.919   6.057  18.178  0.00  0.00    -0.645 OA
ENDBRANCH  12  15
BRANCH  12  18
ATOM     18  C14 APG d   1      30.162   3.886  19.361  0.00  0.00    -0.034 C 
ATOM     19  H7  APG d   1      29.305   3.826  20.047  0.00  0.00     0.032 H 
ATOM     20  H8  APG d   1      30.938   4.531  19.799  0.00  0.00     0.032 H 
ATOM     21  H9  APG d   1      30.572   2.878  19.198  0.00  0.00     0.032 H 
ENDBRANCH  12  18
ENDBRANCH   3  12
TORSDOF 4
