REMARK WARNING: 32 MAX_TORS EXCEEDED!!!
REMARK  51 active torsions:
REMARK  status: ('A' for Active; 'I' for Inactive)
REMARK       I    between atoms: N_1  and  CN_2 
REMARK    1  A    between atoms: CA_5  and  N_1 
REMARK    2  A    between atoms: CN_2  and  CM_4 
REMARK    3  A    between atoms: CA_5  and  CB_6 
REMARK    4  A    between atoms: C_9  and  CA_5 
REMARK    5  A    between atoms: CB_6  and  OG1_7 
REMARK    6  A    between atoms: CB_6  and  CG2_8 
REMARK       I    between atoms: N_13  and  C_9 
REMARK    7  A    between atoms: CA_14  and  N_13 
REMARK    8  A    between atoms: C_15  and  CA_14 
REMARK    9  A    between atoms: CA_14  and  CB_17 
REMARK       I    between atoms: N_26  and  C_15 
REMARK   10  A    between atoms: CB_17  and  CG_18 
REMARK   11  A    between atoms: CG_18  and  CD_19 
REMARK   12  A    between atoms: CD_19  and  CE_20 
REMARK   13  A    between atoms: CE_20  and  NZ_21 
REMARK   14  A    between atoms: CA_27  and  N_26 
REMARK   15  A    between atoms: C_28  and  CA_27 
REMARK   16  A    between atoms: CA_27  and  CB_30 
REMARK       I    between atoms: N_35  and  C_28 
REMARK   17  A    between atoms: CB_30  and  CG_31 
REMARK   18  A    between atoms: CA_36  and  N_35 
REMARK   19  A    between atoms: C_37  and  CA_36 
REMARK   20  A    between atoms: CA_36  and  CB_39 
REMARK       I    between atoms: N_44  and  C_37 
REMARK   21  A    between atoms: CB_39  and  OG1_40 
REMARK   22  A    between atoms: CB_39  and  CG2_41 
REMARK   23  A    between atoms: CA_45  and  N_44 
REMARK   24  A    between atoms: C_46  and  CA_45 
REMARK   25  A    between atoms: CA_45  and  CB_48 
REMARK       I    between atoms: N_53  and  C_46 
REMARK   26  A    between atoms: CB_48  and  CG_49 
REMARK       I    between atoms: CG_49  and  ND2_51 
REMARK   27  A    between atoms: CA_54  and  N_53 
REMARK   28  A    between atoms: C_55  and  CA_54 
REMARK   29  A    between atoms: CA_54  and  CB_57 
REMARK       I    between atoms: N_62  and  C_55 
REMARK   30  A    between atoms: CB_57  and  CG_58 
REMARK       I    between atoms: CG_58  and  ND2_60 
REMARK   31  A    between atoms: CA_63  and  N_62 
REMARK   32  A    between atoms: C_64  and  CA_63 
REMARK   33  A    between atoms: CA_63  and  CB_66 
REMARK       I    between atoms: N_71  and  C_64 
REMARK   34  A    between atoms: CB_66  and  CG_67 
REMARK       I    between atoms: CG_67  and  ND2_69 
REMARK   35  A    between atoms: CA_72  and  N_71 
REMARK   36  A    between atoms: C_73  and  CA_72 
REMARK   37  A    between atoms: CA_72  and  CB_75 
REMARK       I    between atoms: N_112  and  C_73 
REMARK   38  A    between atoms: CB_75  and  CG_76 
REMARK   39  A    between atoms: CG_76  and  CD1_77 
REMARK   40  A    between atoms: CG_76  and  CD2_78 
REMARK   41  A    between atoms: C1_80  and  O1_81 
REMARK   42  A    between atoms: C6_87  and  O3_88 
REMARK   43  A    between atoms: C14_96  and  C10_92 
REMARK   44  A    between atoms: NL_105  and  C17_99 
REMARK   45  A    between atoms: C19_101  and  C20_102 
REMARK       I    between atoms: CL_106  and  NL_105 
REMARK   46  A    between atoms: CAL_108  and  CL_106 
REMARK   47  A    between atoms: SG_109  and  CAL_108 
REMARK   48  A    between atoms: CB_110  and  SG_109 
REMARK   49  A    between atoms: CA_111  and  CB_110 
REMARK   50  A    between atoms: CA_111  and  N_112 
REMARK   51  A    between atoms: CA_111  and  C_114 
REMARK       I    between atoms: C_114  and  NT_115 
ROOT
ATOM      1  CA  ASN d   1      -9.767   6.875  40.316  0.00  0.00     0.097 C 
ATOM      2  H42 ASN d   1      -9.694   7.604  41.137  0.00  0.00     0.088 H 
ENDROOT
BRANCH   1   3
ATOM      3  N   ASN d   1      -8.680   5.915  40.501  0.00  0.00    -0.346 N 
ATOM      4  C   ASN d   1      -8.413   4.937  39.639  0.00  0.00     0.241 C 
ATOM      5  O   ASN d   1      -9.096   4.707  38.636  0.00  0.00    -0.271 OA
ATOM      6  H41 ASN d   1      -8.108   5.997  41.317  0.00  0.00     0.163 HD
BRANCH   4   7
ATOM      7  CA  ASN d   1      -7.225   4.061  39.983  0.00  0.00     0.097 C 
ATOM      8  H36 ASN d   1      -6.373   4.360  39.355  0.00  0.00     0.088 H 
BRANCH   7   9
ATOM      9  N   ASN d   1      -6.854   4.263  41.381  0.00  0.00    -0.345 N 
ATOM     10  C   THR d   1      -5.698   4.839  41.714  0.00  0.00     0.243 C 
ATOM     11  O   THR d   1      -4.889   5.218  40.876  0.00  0.00    -0.271 OA
ATOM     12  H35 ASN d   1      -7.479   3.964  42.102  0.00  0.00     0.163 HD
BRANCH  10  13
ATOM     13  CA  THR d   1      -5.404   5.036  43.209  0.00  0.00     0.113 C 
ATOM     14  H29 THR d   1      -5.128   6.085  43.393  0.00  0.00     0.091 H 
BRANCH  13  15
ATOM     15  N   THR d   1      -6.604   4.726  43.972  0.00  0.00    -0.344 N 
ATOM     16  C   ASP d   1      -7.682   5.518  43.969  0.00  0.00     0.241 C 
ATOM     17  O   ASP d   1      -7.813   6.492  43.221  0.00  0.00    -0.271 OA
ATOM     18  H28 THR d   1      -6.623   3.889  44.519  0.00  0.00     0.163 HD
BRANCH  16  19
ATOM     19  CA  ASP d   1      -8.875   4.973  44.740  0.00  0.00     0.098 C 
ATOM     20  H25 ASP d   1      -8.599   4.780  45.787  0.00  0.00     0.088 H 
BRANCH  19  21
ATOM     21  N   ASP d   1     -10.065   5.857  44.712  0.00  0.00    -0.346 N 
ATOM     22  C   LYS d   1     -10.096   7.103  45.196  0.00  0.00     0.241 C 
ATOM     23  O   LYS d   1      -9.137   7.631  45.764  0.00  0.00    -0.271 OA
ATOM     24  H24 ASP d   1     -10.903   5.496  44.303  0.00  0.00     0.163 HD
BRANCH  22  25
ATOM     25  CA  LYS d   1     -11.428   7.862  45.058  0.00  0.00     0.089 C 
ATOM     26  H12 LYS d   1     -12.235   7.116  45.104  0.00  0.00     0.087 H 
BRANCH  25  27
ATOM     27  N   LYS d   1     -11.660   8.817  46.142  0.00  0.00    -0.346 N 
ATOM     28  C   THC d   1     -12.819   8.870  46.802  0.00  0.00     0.243 C 
ATOM     29  O   THC d   1     -13.816   8.195  46.485  0.00  0.00    -0.271 OA
ATOM     30  H11 LYS d   1     -10.928   9.449  46.396  0.00  0.00     0.163 HD
BRANCH  28  31
ATOM     31  CA  THC d   1     -12.917   9.892  47.935  0.00  0.00     0.113 C 
ATOM     32  H5  THC d   1     -12.429  10.830  47.632  0.00  0.00     0.091 H 
BRANCH  31  33
ATOM     33  N   THC d   1     -14.325  10.116  48.196  0.00  0.00    -0.346 N 
ATOM     34  CN  THC d   1     -15.086  10.848  47.394  0.00  0.00     0.214 C 
ATOM     35  ON  THC d   1     -14.637  11.450  46.409  0.00  0.00    -0.274 OA
ATOM     36  H1  THC d   1     -14.737   9.704  49.009  0.00  0.00     0.163 HD
BRANCH  34  37
ATOM     37  CM  THC d   1     -16.560  10.966  47.784  0.00  0.00    -0.003 C 
ATOM     38  H2  THC d   1     -17.085  11.593  47.048  0.00  0.00     0.040 H 
ATOM     39  H3  THC d   1     -16.640  11.425  48.780  0.00  0.00     0.040 H 
ATOM     40  H4  THC d   1     -17.015   9.965  47.804  0.00  0.00     0.040 H 
ENDBRANCH  34  37
ENDBRANCH  31  33
BRANCH  31  41
ATOM     41  CB  THC d   1     -12.273   9.371  49.212  0.00  0.00     0.060 C 
ATOM     42  H6  THC d   1     -13.023   8.784  49.763  0.00  0.00     0.086 H 
BRANCH  41  43
ATOM     43  OG1 THC d   1     -11.880  10.486  50.013  0.00  0.00    -0.393 OA
ATOM     44  H7  THC d   1     -11.476  10.173  50.814  0.00  0.00     0.210 HD
ENDBRANCH  41  43
BRANCH  41  45
ATOM     45  CG2 THC d   1     -11.085   8.478  48.943  0.00  0.00    -0.050 C 
ATOM     46  H8  THC d   1     -10.662   8.133  49.898  0.00  0.00     0.031 H 
ATOM     47  H9  THC d   1     -10.322   9.041  48.386  0.00  0.00     0.031 H 
ATOM     48  H10 THC d   1     -11.406   7.610  48.349  0.00  0.00     0.031 H 
ENDBRANCH  41  45
ENDBRANCH  31  41
ENDBRANCH  28  31
ENDBRANCH  25  27
BRANCH  25  49
ATOM     49  CB  LYS d   1     -11.513   8.557  43.695  0.00  0.00    -0.038 C 
ATOM     50  H13 LYS d   1     -12.454   9.126  43.665  0.00  0.00     0.036 H 
ATOM     51  H14 LYS d   1     -11.531   7.777  42.919  0.00  0.00     0.036 H 
BRANCH  49  52
ATOM     52  CG  LYS d   1     -10.380   9.513  43.368  0.00  0.00    -0.061 C 
ATOM     53  H15 LYS d   1      -9.421   8.985  43.477  0.00  0.00     0.033 H 
ATOM     54  H16 LYS d   1     -10.413  10.362  44.067  0.00  0.00     0.033 H 
BRANCH  52  55
ATOM     55  CD  LYS d   1     -10.500  10.037  41.942  0.00  0.00    -0.043 C 
ATOM     56  H17 LYS d   1     -10.714   9.193  41.270  0.00  0.00     0.035 H 
ATOM     57  H18 LYS d   1      -9.546  10.503  41.653  0.00  0.00     0.035 H 
BRANCH  55  58
ATOM     58  CE  LYS d   1     -11.605  11.062  41.805  0.00  0.00     0.080 C 
ATOM     59  H19 LYS d   1     -12.479  10.725  42.381  0.00  0.00     0.075 H 
ATOM     60  H20 LYS d   1     -11.878  11.154  40.743  0.00  0.00     0.075 H 
BRANCH  58  61
ATOM     61  NZ  LYS d   1     -11.174  12.403  42.315  0.00  0.00    -0.079 N 
ATOM     62  H21 LYS d   1     -11.930  13.061  42.210  0.00  0.00     0.274 HD
ATOM     63  H22 LYS d   1     -10.376  12.722  41.789  0.00  0.00     0.274 HD
ATOM     64  H23 LYS d   1     -10.927  12.328  43.289  0.00  0.00     0.274 HD
ENDBRANCH  58  61
ENDBRANCH  55  58
ENDBRANCH  52  55
ENDBRANCH  49  52
ENDBRANCH  25  49
ENDBRANCH  22  25
ENDBRANCH  19  21
BRANCH  19  65
ATOM     65  CB  ASP d   1      -9.172   3.668  43.996  0.00  0.00     0.043 C 
ATOM     66  H26 ASP d   1      -8.251   3.068  43.965  0.00  0.00     0.052 H 
ATOM     67  H27 ASP d   1      -9.484   3.915  42.971  0.00  0.00     0.052 H 
BRANCH  65  68
ATOM     68  CG  ASP d   1     -10.239   2.856  44.627  0.00  0.00     0.175 C 
ATOM     69  OD1 ASP d   1     -10.511   3.029  45.832  0.00  0.00    -0.648 OA
ATOM     70  OD2 ASP d   1     -10.790   2.019  43.894  0.00  0.00    -0.648 OA
ENDBRANCH  65  68
ENDBRANCH  19  65
ENDBRANCH  16  19
ENDBRANCH  13  15
BRANCH  13  71
ATOM     71  CB  THR d   1      -4.237   4.146  43.596  0.00  0.00     0.060 C 
ATOM     72  H30 THR d   1      -4.550   3.093  43.539  0.00  0.00     0.086 H 
BRANCH  71  73
ATOM     73  OG1 THR d   1      -3.843   4.462  44.930  0.00  0.00    -0.393 OA
ATOM     74  H31 THR d   1      -4.573   4.311  45.519  0.00  0.00     0.210 HD
ENDBRANCH  71  73
BRANCH  71  75
ATOM     75  CG2 THR d   1      -3.039   4.366  42.673  0.00  0.00    -0.050 C 
ATOM     76  H32 THR d   1      -2.213   3.707  42.980  0.00  0.00     0.031 H 
ATOM     77  H33 THR d   1      -2.715   5.415  42.737  0.00  0.00     0.031 H 
ATOM     78  H34 THR d   1      -3.327   4.134  41.637  0.00  0.00     0.031 H 
ENDBRANCH  71  75
ENDBRANCH  13  71
ENDBRANCH  10  13
ENDBRANCH   7   9
BRANCH   7  79
ATOM     79  CB  ASN d   1      -7.557   2.589  39.673  0.00  0.00     0.036 C 
ATOM     80  H37 ASN d   1      -7.853   2.512  38.616  0.00  0.00     0.051 H 
ATOM     81  H38 ASN d   1      -8.396   2.278  40.312  0.00  0.00     0.051 H 
BRANCH  79  82
ATOM     82  CG  ASN d   1      -6.374   1.636  39.920  0.00  0.00     0.217 C 
ATOM     83  OD1 ASN d   1      -5.217   1.940  39.593  0.00  0.00    -0.274 OA
ATOM     84  ND2 ASN d   1      -6.665   0.488  40.511  0.00  0.00    -0.370 N 
ATOM     85  H39 ASN d   1      -5.941  -0.175  40.700  0.00  0.00     0.159 HD
ATOM     86  H40 ASN d   1      -7.609   0.284  40.769  0.00  0.00     0.159 HD
ENDBRANCH  79  82
ENDBRANCH   7  79
ENDBRANCH   4   7
ENDBRANCH   1   3
BRANCH   1  87
ATOM     87  C   ASN d   1     -11.168   6.282  40.381  0.00  0.00     0.241 C 
ATOM     88  O   ASN d   1     -12.044   6.613  39.585  0.00  0.00    -0.271 OA
ATOM     89  N   ASN d   1     -11.381   5.409  41.351  0.00  0.00    -0.346 N 
ATOM     90  H47 ASN d   1     -10.639   5.184  41.983  0.00  0.00     0.163 HD
BRANCH  89  91
ATOM     91  CA  ASN d   1     -12.687   4.766  41.514  0.00  0.00     0.097 C 
ATOM     92  H48 ASN d   1     -13.318   4.990  40.641  0.00  0.00     0.088 H 
BRANCH  91  93
ATOM     93  C   ASN d   1     -13.317   5.338  42.779  0.00  0.00     0.241 C 
ATOM     94  O   ASN d   1     -12.618   5.718  43.728  0.00  0.00    -0.271 OA
ATOM     95  N   LEU d   1     -14.635   5.361  42.837  0.00  0.00    -0.346 N 
ATOM     96  H53 LEU d   1     -15.191   5.021  42.078  0.00  0.00     0.163 HD
BRANCH  95  97
ATOM     97  CA  LEU d   1     -15.251   5.893  44.033  0.00  0.00     0.089 C 
ATOM     98  H54 LEU d   1     -14.675   6.788  44.311  0.00  0.00     0.087 H 
BRANCH  97  99
ATOM     99  C   LEU d   1     -15.161   4.945  45.235  0.00  0.00     0.241 C 
ATOM    100  O   LEU d   1     -15.577   3.788  45.187  0.00  0.00    -0.271 OA
ATOM    101  N   CYF d   1     -14.552   5.429  46.304  0.00  0.00    -0.345 N 
ATOM    102  H82 CYF d   1     -14.207   6.367  46.294  0.00  0.00     0.163 HD
BRANCH 101 103
ATOM    103  CA  CYF d   1     -14.380   4.618  47.484  0.00  0.00     0.097 C 
ATOM    104  H81 CYF d   1     -15.175   3.859  47.525  0.00  0.00     0.088 H 
BRANCH 103 105
ATOM    105  CB  CYF d   1     -13.029   3.939  47.394  0.00  0.00     0.004 C 
ATOM    106  H79 CYF d   1     -12.865   3.642  46.348  0.00  0.00     0.052 H 
ATOM    107  H80 CYF d   1     -12.260   4.667  47.693  0.00  0.00     0.052 H 
BRANCH 105 108
ATOM    108  SG  CYF d   1     -12.847   2.495  48.413  0.00  0.00    -0.157 SA
BRANCH 108 109
ATOM    109  CAL CYF d   1     -12.172   3.228  49.878  0.00  0.00     0.051 C 
ATOM    110  H77 CYF d   1     -12.876   3.974  50.277  0.00  0.00     0.063 H 
ATOM    111  H78 CYF d   1     -11.995   2.449  50.634  0.00  0.00     0.063 H 
BRANCH 109 112
ATOM    112  CL  CYF d   1     -10.886   3.889  49.530  0.00  0.00     0.231 C 
ATOM    113  NL  CYF d   1      -9.809   3.179  49.849  0.00  0.00    -0.327 N 
ATOM    114  H76 CYF d   1     -10.126   2.332  50.275  0.00  0.00     0.169 HD
ATOM    115  OL  CYF d   1     -10.930   4.980  48.967  0.00  0.00    -0.272 OA
BRANCH 113 116
ATOM    116  C17 CYF d   1      -8.480   3.140  49.831  0.00  0.00     0.035 A 
ATOM    117  C16 CYF d   1      -7.754   2.983  51.002  0.00  0.00    -0.057 A 
ATOM    118  C15 CYF d   1      -6.371   2.905  50.999  0.00  0.00    -0.073 A 
ATOM    119  H74 CYF d   1      -8.283   2.920  51.946  0.00  0.00     0.086 H 
ATOM    120  C14 CYF d   1      -5.656   2.998  49.806  0.00  0.00    -0.028 A 
ATOM    121  H73 CYF d   1      -5.839   2.770  51.934  0.00  0.00     0.084 H 
ATOM    122  C19 CYF d   1      -6.375   3.157  48.571  0.00  0.00     0.050 A 
ATOM    123  C18 CYF d   1      -7.784   3.213  48.626  0.00  0.00    -0.040 A 
ATOM    124  H75 CYF d   1      -8.342   3.316  47.702  0.00  0.00     0.088 H 
BRANCH 120 125
ATOM    125  C10 CYF d   1      -4.244   3.001  49.871  0.00  0.00     0.029 A 
ATOM    126  C9  CYF d   1      -3.497   1.988  49.310  0.00  0.00    -0.011 A 
ATOM    127  C4  CYF d   1      -2.130   1.935  49.574  0.00  0.00     0.086 A 
ATOM    128  C8  CYF d   1      -4.068   1.010  48.539  0.00  0.00    -0.070 A 
ATOM    129  O2  CYF d   1      -1.382   2.827  50.341  0.00  0.00    -0.309 OA
ATOM    130  C5  CYF d   1      -1.350   0.919  49.081  0.00  0.00    -0.018 A 
ATOM    131  C3  CYF d   1      -2.227   3.874  50.867  0.00  0.00     0.086 A 
ATOM    132  C2  CYF d   1      -1.564   4.811  51.647  0.00  0.00    -0.018 A 
ATOM    133  C11 CYF d   1      -3.604   3.980  50.646  0.00  0.00    -0.011 A 
ATOM    134  C1  CYF d   1      -2.256   5.863  52.204  0.00  0.00     0.068 A 
ATOM    135  H65 CYF d   1      -0.498   4.714  51.818  0.00  0.00     0.092 H 
ATOM    136  C13 CYF d   1      -3.625   5.988  51.990  0.00  0.00    -0.050 A 
ATOM    137  C12 CYF d   1      -4.299   5.056  51.219  0.00  0.00    -0.070 A 
ATOM    138  H72 CYF d   1      -4.166   6.819  52.429  0.00  0.00     0.087 H 
ATOM    139  H71 CYF d   1      -5.366   5.158  51.058  0.00  0.00     0.084 H 
ATOM    140  C6  CYF d   1      -1.935  -0.074  48.316  0.00  0.00     0.068 A 
ATOM    141  H66 CYF d   1      -0.286   0.895  49.289  0.00  0.00     0.092 H 
ATOM    142  C7  CYF d   1      -3.297  -0.022  48.040  0.00  0.00    -0.050 A 
ATOM    143  H68 CYF d   1      -3.755  -0.793  47.432  0.00  0.00     0.087 H 
ATOM    144  H69 CYF d   1      -5.129   1.046  48.320  0.00  0.00     0.084 H 
ATOM    145  H70 CYF d   1      -4.167   3.610  48.958  0.00  0.00     0.062 H 
BRANCH 134 146
ATOM    146  O1  CYF d   1      -1.623   6.699  52.855  0.00  0.00    -0.361 OA
ATOM    147  H64 CYF d   1      -2.219   7.364  53.179  0.00  0.00     0.217 HD
ENDBRANCH 134 146
BRANCH 140 148
ATOM    148  O3  CYF d   1      -1.256  -1.035  47.919  0.00  0.00    -0.361 OA
ATOM    149  H67 CYF d   1      -1.805  -1.621  47.411  0.00  0.00     0.217 HD
ENDBRANCH 140 148
ENDBRANCH 120 125
BRANCH 122 150
ATOM    150  C20 CYF d   1      -5.787   3.424  47.337  0.00  0.00     0.210 C 
ATOM    151  O4  CYF d   1      -4.635   3.902  47.276  0.00  0.00    -0.644 OA
ATOM    152  O5  CYF d   1      -6.408   3.214  46.261  0.00  0.00    -0.644 OA
ENDBRANCH 122 150
ENDBRANCH 113 116
ENDBRANCH 109 112
ENDBRANCH 108 109
ENDBRANCH 105 108
ENDBRANCH 103 105
BRANCH 103 153
ATOM    153  C   CYF d   1     -14.439   5.471  48.746  0.00  0.00     0.239 C 
ATOM    154  O   CYF d   1     -13.665   6.422  48.886  0.00  0.00    -0.271 OA
ATOM    155  NT  CYF d   1     -15.327   5.113  49.688  0.00  0.00    -0.368 N 
ATOM    156  H83 CYF d   1     -15.401   5.643  50.533  0.00  0.00     0.159 HD
ATOM    157  H84 CYF d   1     -15.914   4.316  49.545  0.00  0.00     0.159 HD
ENDBRANCH 103 153
ENDBRANCH 101 103
ENDBRANCH  97  99
BRANCH  97 158
ATOM    158  CB  LEU d   1     -16.663   6.364  43.733  0.00  0.00    -0.035 C 
ATOM    159  H55 LEU d   1     -17.297   6.252  44.625  0.00  0.00     0.037 H 
ATOM    160  H56 LEU d   1     -17.089   5.780  42.904  0.00  0.00     0.037 H 
BRANCH 158 161
ATOM    161  CG  LEU d   1     -16.561   7.840  43.340  0.00  0.00    -0.059 C 
ATOM    162  H57 LEU d   1     -15.693   7.967  42.676  0.00  0.00     0.038 H 
BRANCH 161 163
ATOM    163  CD1 LEU d   1     -17.793   8.303  42.592  0.00  0.00    -0.073 C 
ATOM    164  H58 LEU d   1     -17.683   9.365  42.327  0.00  0.00     0.028 H 
ATOM    165  H59 LEU d   1     -18.680   8.174  43.230  0.00  0.00     0.028 H 
ATOM    166  H60 LEU d   1     -17.911   7.707  41.675  0.00  0.00     0.028 H 
ENDBRANCH 161 163
BRANCH 161 167
ATOM    167  CD2 LEU d   1     -16.329   8.661  44.608  0.00  0.00    -0.073 C 
ATOM    168  H61 LEU d   1     -15.428   8.295  45.122  0.00  0.00     0.028 H 
ATOM    169  H62 LEU d   1     -17.198   8.559  45.275  0.00  0.00     0.028 H 
ATOM    170  H63 LEU d   1     -16.194   9.719  44.340  0.00  0.00     0.028 H 
ENDBRANCH 161 167
ENDBRANCH 158 161
ENDBRANCH  97 158
ENDBRANCH  95  97
ENDBRANCH  91  93
BRANCH  91 171
ATOM    171  CB  ASN d   1     -12.563   3.227  41.674  0.00  0.00     0.036 C 
ATOM    172  H49 ASN d   1     -13.575   2.809  41.782  0.00  0.00     0.051 H 
ATOM    173  H50 ASN d   1     -11.981   3.021  42.584  0.00  0.00     0.051 H 
BRANCH 171 174
ATOM    174  CG  ASN d   1     -11.864   2.513  40.474  0.00  0.00     0.217 C 
ATOM    175  OD1 ASN d   1     -12.195   2.712  39.293  0.00  0.00    -0.274 OA
ATOM    176  ND2 ASN d   1     -10.952   1.605  40.809  0.00  0.00    -0.370 N 
ATOM    177  H51 ASN d   1     -10.460   1.104  40.097  0.00  0.00     0.159 HD
ATOM    178  H52 ASN d   1     -10.758   1.423  41.773  0.00  0.00     0.159 HD
ENDBRANCH 171 174
ENDBRANCH  91 171
ENDBRANCH  89  91
ENDBRANCH   1  87
BRANCH   1 179
ATOM    179  CB  ASN d   1      -9.564   7.629  39.003  0.00  0.00     0.036 C 
ATOM    180  H43 ASN d   1     -10.287   8.457  38.954  0.00  0.00     0.051 H 
ATOM    181  H44 ASN d   1      -9.740   6.938  38.166  0.00  0.00     0.051 H 
BRANCH 179 182
ATOM    182  CG  ASN d   1      -8.170   8.193  38.883  0.00  0.00     0.217 C 
ATOM    183  OD1 ASN d   1      -7.660   8.823  39.822  0.00  0.00    -0.274 OA
ATOM    184  ND2 ASN d   1      -7.509   7.911  37.759  0.00  0.00    -0.370 N 
ATOM    185  H45 ASN d   1      -6.581   8.258  37.624  0.00  0.00     0.159 HD
ATOM    186  H46 ASN d   1      -7.942   7.352  37.051  0.00  0.00     0.159 HD
ENDBRANCH 179 182
ENDBRANCH   1 179
TORSDOF 51
