REMARK  12 active torsions:
REMARK  status: ('A' for Active; 'I' for Inactive)
REMARK    1  A    between atoms: N2_1  and  C4_2 
REMARK    2  A    between atoms: C4_2  and  C5_3 
REMARK       I    between atoms: C5_3  and  N3_4 
REMARK    3  A    between atoms: N3_4  and  C6_5 
REMARK    4  A    between atoms: C6_5  and  C7_6 
REMARK    5  A    between atoms: C6_5  and  C13_15 
REMARK    6  A    between atoms: C7_6  and  C8_7 
REMARK    7  A    between atoms: C8_7  and  C9_8 
REMARK    8  A    between atoms: C9_8  and  C10_9 
REMARK    9  A    between atoms: C10_9  and  C11_10 
REMARK       I    between atoms: C11_10  and  N4_11 
REMARK   10  A    between atoms: N4_11  and  C12_12 
REMARK   11  A    between atoms: C12_12  and  P1_13 
REMARK   12  A    between atoms: C12_12  and  C14_19 
ROOT
ATOM      1  C8  RE1 d   1      21.189 -16.306  37.745  0.00  0.00    -0.062 C 
ATOM      2  H10 RE1 d   1      21.570 -16.416  38.771  0.00  0.00     0.033 H 
ATOM      3  H11 RE1 d   1      21.146 -17.293  37.261  0.00  0.00     0.033 H 
ENDROOT
BRANCH   1   4
ATOM      4  C7  RE1 d   1      22.081 -15.345  36.937  0.00  0.00    -0.037 C 
ATOM      5  H8  RE1 d   1      21.585 -15.143  35.977  0.00  0.00     0.036 H 
ATOM      6  H9  RE1 d   1      22.177 -14.408  37.505  0.00  0.00     0.036 H 
BRANCH   4   7
ATOM      7  C6  RE1 d   1      23.488 -15.872  36.645  0.00  0.00     0.096 C 
ATOM      8  H7  RE1 d   1      23.410 -16.751  35.989  0.00  0.00     0.089 H 
BRANCH   7   9
ATOM      9  N3  RE1 d   1      24.212 -16.248  37.854  0.00  0.00    -0.345 N 
ATOM     10  C5  RE1 d   1      24.620 -17.496  38.157  0.00  0.00     0.243 C 
ATOM     11  O3  RE1 d   1      24.475 -18.438  37.430  0.00  0.00    -0.272 OA
ATOM     12  H6  RE1 d   1      24.422 -15.523  38.510  0.00  0.00     0.163 HD
BRANCH  10  13
ATOM     13  C4  RE1 d   1      25.304 -17.603  39.532  0.00  0.00     0.152 C 
ATOM     14  H4  RE1 d   1      26.079 -16.829  39.633  0.00  0.00     0.090 H 
ATOM     15  H5  RE1 d   1      24.562 -17.486  40.336  0.00  0.00     0.090 H 
BRANCH  13  16
ATOM     16  N2  RE1 d   1      25.939 -19.003  39.593  0.00  0.00    -0.071 N 
ATOM     17  H1  RE1 d   1      26.402 -19.123  40.480  0.00  0.00     0.274 HD
ATOM     18  H2  RE1 d   1      26.610 -19.100  38.847  0.00  0.00     0.274 HD
ATOM     19  H3  RE1 d   1      25.220 -19.703  39.492  0.00  0.00     0.274 HD
ENDBRANCH  13  16
ENDBRANCH  10  13
ENDBRANCH   7   9
BRANCH   7  20
ATOM     20  C13 RE1 d   1      24.278 -14.767  35.940  0.00  0.00     0.196 C 
ATOM     21  O4  RE1 d   1      24.982 -13.942  36.582  0.00  0.00    -0.646 OA
ATOM     22  O5  RE1 d   1      24.068 -14.758  34.719  0.00  0.00    -0.646 OA
ENDBRANCH   7  20
ENDBRANCH   4   7
ENDBRANCH   1   4
BRANCH   1  23
ATOM     23  C9  RE1 d   1      19.762 -15.629  37.752  0.00  0.00    -0.057 C 
ATOM     24  H12 RE1 d   1      19.061 -16.337  38.219  0.00  0.00     0.033 H 
ATOM     25  H13 RE1 d   1      19.470 -15.460  36.705  0.00  0.00     0.033 H 
BRANCH  23  26
ATOM     26  C10 RE1 d   1      19.630 -14.300  38.486  0.00  0.00     0.009 C 
ATOM     27  H14 RE1 d   1      20.130 -13.517  37.898  0.00  0.00     0.047 H 
ATOM     28  H15 RE1 d   1      20.115 -14.386  39.469  0.00  0.00     0.047 H 
BRANCH  26  29
ATOM     29  C11 RE1 d   1      18.172 -13.910  38.688  0.00  0.00     0.218 C 
ATOM     30  N4  RE1 d   1      17.643 -13.156  37.731  0.00  0.00    -0.348 N 
ATOM     31  H16 RE1 d   1      18.206 -12.892  36.948  0.00  0.00     0.163 HD
ATOM     32  O6  RE1 d   1      17.567 -14.306  39.641  0.00  0.00    -0.274 OA
BRANCH  30  33
ATOM     33  C12 RE1 d   1      16.235 -12.698  37.801  0.00  0.00     0.081 C 
ATOM     34  H17 RE1 d   1      15.713 -13.217  38.618  0.00  0.00     0.088 H 
BRANCH  33  35
ATOM     35  P1  RE1 d   1      16.313 -10.915  38.153  0.00  0.00     0.120 P 
ATOM     36  O7  RE1 d   1      16.770 -10.674  39.542  0.00  0.00    -0.668 OA
ATOM     37  O8  RE1 d   1      16.981 -10.199  37.036  0.00  0.00    -0.668 OA
ATOM     38  H18 RE1 d   1      15.362 -10.581  38.137  0.00  0.00     0.132 HD
ENDBRANCH  33  35
BRANCH  33  39
ATOM     39  C14 RE1 d   1      15.486 -12.979  36.474  0.00  0.00    -0.049 C 
ATOM     40  H19 RE1 d   1      15.457 -14.063  36.292  0.00  0.00     0.030 H 
ATOM     41  H20 RE1 d   1      16.010 -12.482  35.645  0.00  0.00     0.030 H 
ATOM     42  H21 RE1 d   1      14.459 -12.591  36.544  0.00  0.00     0.030 H 
ENDBRANCH  33  39
ENDBRANCH  30  33
ENDBRANCH  26  29
ENDBRANCH  23  26
ENDBRANCH   1  23
TORSDOF 12
