REMARK WARNING: 32 MAX_TORS EXCEEDED!!!
REMARK  64 active torsions:
REMARK  status: ('A' for Active; 'I' for Inactive)
REMARK    1  A    between atoms: N_1  and  CA_2 
REMARK    2  A    between atoms: CA_2  and  C_3 
REMARK    3  A    between atoms: CA_2  and  CB_5 
REMARK       I    between atoms: C_3  and  N_8 
REMARK    4  A    between atoms: CB_5  and  OG1_6 
REMARK    5  A    between atoms: CB_5  and  CG2_7 
REMARK    6  A    between atoms: N_8  and  CA_9 
REMARK    7  A    between atoms: CA_9  and  C_10 
REMARK    8  A    between atoms: CA_9  and  CB_12 
REMARK       I    between atoms: C_10  and  N_19 
REMARK    9  A    between atoms: CB_12  and  CG_13 
REMARK   10  A    between atoms: CG_13  and  CD_14 
REMARK   11  A    between atoms: CD_14  and  NE_15 
REMARK       I    between atoms: NE_15  and  CZ_16 
REMARK       I    between atoms: CZ_16  and  NH1_17 
REMARK   12  A    between atoms: N_19  and  CA_20 
REMARK   13  A    between atoms: CA_20  and  C_21 
REMARK   14  A    between atoms: CA_20  and  CB_23 
REMARK       I    between atoms: C_21  and  N_26 
REMARK   15  A    between atoms: CB_23  and  OG1_24 
REMARK   16  A    between atoms: CB_23  and  CG2_25 
REMARK   17  A    between atoms: N_26  and  CA_27 
REMARK   18  A    between atoms: CA_27  and  C_28 
REMARK   19  A    between atoms: CA_27  and  CB_30 
REMARK       I    between atoms: C_28  and  N_35 
REMARK   20  A    between atoms: CB_30  and  CG_31 
REMARK   21  A    between atoms: CG_31  and  CD_32 
REMARK   22  A    between atoms: CD_32  and  CE_33 
REMARK   23  A    between atoms: CE_33  and  NZ_34 
REMARK   24  A    between atoms: N_35  and  CA_36 
REMARK   25  A    between atoms: CA_36  and  C_37 
REMARK   26  A    between atoms: CA_36  and  CB_39 
REMARK       I    between atoms: C_37  and  N_43 
REMARK   27  A    between atoms: CB_39  and  CG1_40 
REMARK   28  A    between atoms: CB_39  and  CG2_41 
REMARK   29  A    between atoms: CG1_40  and  CD1_42 
REMARK   30  A    between atoms: N_43  and  CA_44 
REMARK   31  A    between atoms: CA_44  and  C_45 
REMARK   32  A    between atoms: CA_44  and  CB_47 
REMARK       I    between atoms: C_45  and  N_51 
REMARK   33  A    between atoms: CB_47  and  CG_48 
REMARK   34  A    between atoms: N_51  and  CA_52 
REMARK   35  A    between atoms: CA_52  and  C_53 
REMARK   36  A    between atoms: CA_52  and  CB_55 
REMARK       I    between atoms: C_53  and  N_65 
REMARK   37  A    between atoms: CB_55  and  CG_56 
REMARK   38  A    between atoms: N_65  and  CA_66 
REMARK   39  A    between atoms: CA_66  and  C_67 
REMARK   40  A    between atoms: CA_66  and  CB_69 
REMARK       I    between atoms: C_67  and  N_73 
REMARK   41  A    between atoms: CB_69  and  CG_70 
REMARK       I    between atoms: CG_70  and  ND2_72 
REMARK   42  A    between atoms: N_73  and  CA_74 
REMARK   43  A    between atoms: CA_74  and  C_75 
REMARK   44  A    between atoms: CA_74  and  CB_77 
REMARK       I    between atoms: C_75  and  N_82 
REMARK   45  A    between atoms: CB_77  and  CG_78 
REMARK   46  A    between atoms: CG_78  and  CD_79 
REMARK   47  A    between atoms: CD_79  and  CE_80 
REMARK   48  A    between atoms: CE_80  and  NZ_81 
REMARK   49  A    between atoms: N_82  and  CA_83 
REMARK   50  A    between atoms: CA_83  and  C_84 
REMARK   51  A    between atoms: CA_83  and  CB_86 
REMARK       I    between atoms: C_84  and  N_90 
REMARK   52  A    between atoms: CB_86  and  CG1_87 
REMARK   53  A    between atoms: CB_86  and  CG2_88 
REMARK   54  A    between atoms: CG1_87  and  CD1_89 
REMARK   55  A    between atoms: N_90  and  CA_91 
REMARK   56  A    between atoms: CA_91  and  C_92 
REMARK   57  A    between atoms: CA_91  and  CB_94 
REMARK       I    between atoms: C_92  and  N_98 
REMARK   58  A    between atoms: CB_94  and  CG_95 
REMARK   59  A    between atoms: CG_95  and  CD1_96 
REMARK   60  A    between atoms: CG_95  and  CD2_97 
REMARK   61  A    between atoms: N_98  and  CA_99 
REMARK   62  A    between atoms: CA_99  and  C_100 
REMARK   63  A    between atoms: CA_99  and  CB_102 
REMARK   64  A    between atoms: CB_102  and  OG_103 
ROOT
ATOM      1  C   ASP d   1       5.304   8.162   7.823  0.00  0.00     0.241 C 
ATOM      2  O   ASP d   1       5.451   7.098   8.425  0.00  0.00    -0.271 OA
ATOM      3  N   TRP d   1       6.248   8.643   7.009  0.00  0.00    -0.346 N 
ATOM      4  H58 TRP d   1       6.099   9.510   6.533  0.00  0.00     0.163 HD
ENDROOT
BRANCH   3   5
ATOM      5  CA  TRP d   1       7.502   7.907   6.809  0.00  0.00     0.093 C 
ATOM      6  H59 TRP d   1       7.274   6.976   6.270  0.00  0.00     0.088 H 
BRANCH   5   7
ATOM      7  C   TRP d   1       8.111   7.553   8.168  0.00  0.00     0.241 C 
ATOM      8  O   TRP d   1       8.080   6.392   8.574  0.00  0.00    -0.271 OA
ATOM      9  N   ASN d   1       8.613   8.574   8.884  0.00  0.00    -0.346 N 
ATOM     10  H68 ASN d   1       8.597   9.491   8.485  0.00  0.00     0.163 HD
BRANCH   9  11
ATOM     11  CA  ASN d   1       9.187   8.402  10.233  0.00  0.00     0.097 C 
ATOM     12  H69 ASN d   1       8.371   8.571  10.951  0.00  0.00     0.088 H 
BRANCH  11  13
ATOM     13  C   ASN d   1      10.287   9.433  10.537  0.00  0.00     0.241 C 
ATOM     14  O   ASN d   1       9.993  10.515  11.036  0.00  0.00    -0.271 OA
ATOM     15  N   LYS d   1      11.552   9.083  10.284  0.00  0.00    -0.346 N 
ATOM     16  H74 LYS d   1      11.738   8.188   9.880  0.00  0.00     0.163 HD
BRANCH  15  17
ATOM     17  CA  LYS d   1      12.674   9.978  10.584  0.00  0.00     0.089 C 
ATOM     18  H75 LYS d   1      12.335  10.692  11.349  0.00  0.00     0.087 H 
BRANCH  17  19
ATOM     19  C   LYS d   1      13.158  10.786   9.375  0.00  0.00     0.241 C 
ATOM     20  O   LYS d   1      13.567  11.938   9.521  0.00  0.00    -0.271 OA
ATOM     21  N   ILE d   1      13.148  10.180   8.190  0.00  0.00    -0.346 N 
ATOM     22  H87 ILE d   1      12.806   9.243   8.123  0.00  0.00     0.163 HD
BRANCH  21  23
ATOM     23  CA  ILE d   1      13.628  10.857   6.982  0.00  0.00     0.092 C 
ATOM     24  H88 ILE d   1      14.708  11.029   7.096  0.00  0.00     0.088 H 
BRANCH  23  25
ATOM     25  C   ILE d   1      12.946  12.214   6.793  0.00  0.00     0.241 C 
ATOM     26  O   ILE d   1      13.611  13.249   6.780  0.00  0.00    -0.271 OA
ATOM     27  N   LEU d   1      11.625  12.212   6.666  0.00  0.00    -0.346 N 
ATOM     28  H98 LEU d   1      11.132  11.342   6.683  0.00  0.00     0.163 HD
BRANCH  27  29
ATOM     29  CA  LEU d   1      10.880  13.452   6.503  0.00  0.00     0.089 C 
ATOM     30  H99 LEU d   1      11.545  14.207   6.058  0.00  0.00     0.087 H 
BRANCH  29  31
ATOM     31  C   LEU d   1      10.406  13.954   7.860  0.00  0.00     0.241 C 
ATOM     32  O   LEU d   1      10.249  15.155   8.076  0.00  0.00    -0.271 OA
ATOM     33  N   SER d   1      10.183  13.012   8.772  0.00  0.00    -0.343 N 
ATOM     34 9H10 SER d   1      10.332  12.055   8.525  0.00  0.00     0.163 HD
BRANCH  33  35
ATOM     35  CA  SER d   1       9.729  13.329  10.116  0.00  0.00     0.116 C 
ATOM     36 0H11 SER d   1       9.652  12.391  10.685  0.00  0.00     0.093 H 
BRANCH  35  37
ATOM     37  C   SER d   1       8.353  13.988  10.086  0.00  0.00     0.198 C 
ATOM     38  O   SER d   1       8.037  14.740  11.033  0.00  0.00    -0.646 OA
ATOM     39  OXT SER d   1       7.603  13.749   9.116  0.00  0.00    -0.646 OA
ENDBRANCH  35  37
BRANCH  35  40
ATOM     40  CB  SER d   1      10.736  14.241  10.821  0.00  0.00     0.045 C 
ATOM     41 1H11 SER d   1      11.752  13.968  10.501  0.00  0.00     0.077 H 
ATOM     42 2H11 SER d   1      10.645  14.104  11.909  0.00  0.00     0.077 H 
BRANCH  40  43
ATOM     43  OG  SER d   1      10.501  15.604  10.505  0.00  0.00    -0.398 OA
ATOM     44 3H11 SER d   1      10.583  15.729   9.567  0.00  0.00     0.209 HD
ENDBRANCH  40  43
ENDBRANCH  35  40
ENDBRANCH  33  35
ENDBRANCH  29  31
BRANCH  29  45
ATOM     45  CB  LEU d   1       9.684  13.244   5.574  0.00  0.00    -0.035 C 
ATOM     46 0H10 LEU d   1       9.333  14.234   5.247  0.00  0.00     0.037 H 
ATOM     47 1H10 LEU d   1       8.891  12.746   6.150  0.00  0.00     0.037 H 
BRANCH  45  48
ATOM     48  CG  LEU d   1       9.955  12.404   4.322  0.00  0.00    -0.059 C 
ATOM     49 2H10 LEU d   1      10.111  11.361   4.635  0.00  0.00     0.038 H 
BRANCH  48  50
ATOM     50  CD1 LEU d   1       8.759  12.449   3.383  0.00  0.00    -0.073 C 
ATOM     51 3H10 LEU d   1       8.970  11.841   2.491  0.00  0.00     0.028 H 
ATOM     52 4H10 LEU d   1       8.569  13.489   3.081  0.00  0.00     0.028 H 
ATOM     53 5H10 LEU d   1       7.873  12.048   3.898  0.00  0.00     0.028 H 
ENDBRANCH  48  50
BRANCH  48  54
ATOM     54  CD2 LEU d   1      11.213  12.879   3.605  0.00  0.00    -0.073 C 
ATOM     55 6H10 LEU d   1      12.067  12.840   4.298  0.00  0.00     0.028 H 
ATOM     56 7H10 LEU d   1      11.069  13.913   3.258  0.00  0.00     0.028 H 
ATOM     57 8H10 LEU d   1      11.411  12.227   2.742  0.00  0.00     0.028 H 
ENDBRANCH  48  54
ENDBRANCH  45  48
ENDBRANCH  29  45
ENDBRANCH  27  29
ENDBRANCH  23  25
BRANCH  23  58
ATOM     58  CB  ILE d   1      13.407   9.977   5.728  0.00  0.00    -0.030 C 
ATOM     59  H89 ILE d   1      14.071   9.104   5.802  0.00  0.00     0.043 H 
BRANCH  58  60
ATOM     60  CG1 ILE d   1      13.756  10.733   4.437  0.00  0.00    -0.063 C 
ATOM     61  H90 ILE d   1      13.502  11.794   4.576  0.00  0.00     0.033 H 
ATOM     62  H91 ILE d   1      13.153  10.316   3.617  0.00  0.00     0.033 H 
BRANCH  60  63
ATOM     63  CD1 ILE d   1      15.216  10.638   4.053  0.00  0.00    -0.076 C 
ATOM     64  H95 ILE d   1      15.388  11.201   3.124  0.00  0.00     0.027 H 
ATOM     65  H96 ILE d   1      15.486   9.583   3.898  0.00  0.00     0.027 H 
ATOM     66  H97 ILE d   1      15.835  11.061   4.858  0.00  0.00     0.027 H 
ENDBRANCH  60  63
ENDBRANCH  58  60
BRANCH  58  67
ATOM     67  CG2 ILE d   1      11.974   9.484   5.679  0.00  0.00    -0.071 C 
ATOM     68  H92 ILE d   1      11.739   8.945   6.609  0.00  0.00     0.028 H 
ATOM     69  H93 ILE d   1      11.848   8.807   4.822  0.00  0.00     0.028 H 
ATOM     70  H94 ILE d   1      11.294  10.342   5.571  0.00  0.00     0.028 H 
ENDBRANCH  58  67
ENDBRANCH  23  58
ENDBRANCH  21  23
ENDBRANCH  17  19
BRANCH  17  71
ATOM     71  CB  LYS d   1      13.840   9.173  11.157  0.00  0.00    -0.038 C 
ATOM     72  H76 LYS d   1      14.250   8.537  10.358  0.00  0.00     0.036 H 
ATOM     73  H77 LYS d   1      13.458   8.539  11.971  0.00  0.00     0.036 H 
BRANCH  71  74
ATOM     74  CG  LYS d   1      14.963  10.037  11.707  0.00  0.00    -0.061 C 
ATOM     75  H78 LYS d   1      15.407   9.534  12.579  0.00  0.00     0.033 H 
ATOM     76  H79 LYS d   1      14.549  11.008  12.016  0.00  0.00     0.033 H 
BRANCH  74  77
ATOM     77  CD  LYS d   1      16.046  10.270  10.666  0.00  0.00    -0.043 C 
ATOM     78  H80 LYS d   1      16.442  11.290  10.784  0.00  0.00     0.035 H 
ATOM     79  H81 LYS d   1      15.607  10.161   9.663  0.00  0.00     0.035 H 
BRANCH  77  80
ATOM     80  CE  LYS d   1      17.187   9.277  10.816  0.00  0.00     0.080 C 
ATOM     81  H82 LYS d   1      17.868   9.385   9.959  0.00  0.00     0.075 H 
ATOM     82  H83 LYS d   1      16.773   8.258  10.829  0.00  0.00     0.075 H 
BRANCH  80  83
ATOM     83  NZ  LYS d   1      17.955   9.500  12.072  0.00  0.00    -0.079 N 
ATOM     84  H84 LYS d   1      18.700   8.824  12.135  0.00  0.00     0.274 HD
ATOM     85  H85 LYS d   1      17.340   9.397  12.864  0.00  0.00     0.274 HD
ATOM     86  H86 LYS d   1      18.344  10.430  12.067  0.00  0.00     0.274 HD
ENDBRANCH  80  83
ENDBRANCH  77  80
ENDBRANCH  74  77
ENDBRANCH  71  74
ENDBRANCH  17  71
ENDBRANCH  15  17
ENDBRANCH  11  13
BRANCH  11  87
ATOM     87  CB  ASN d   1       9.718   6.978  10.470  0.00  0.00     0.036 C 
ATOM     88  H70 ASN d   1      10.702   7.044  10.958  0.00  0.00     0.051 H 
ATOM     89  H71 ASN d   1       9.824   6.474   9.498  0.00  0.00     0.051 H 
BRANCH  87  90
ATOM     90  CG  ASN d   1       8.794   6.156  11.347  0.00  0.00     0.217 C 
ATOM     91  OD1 ASN d   1       9.242   5.432  12.235  0.00  0.00    -0.274 OA
ATOM     92  ND2 ASN d   1       7.493   6.264  11.101  0.00  0.00    -0.370 N 
ATOM     93  H72 ASN d   1       6.836   5.745  11.648  0.00  0.00     0.159 HD
ATOM     94  H73 ASN d   1       7.171   6.864  10.369  0.00  0.00     0.159 HD
ENDBRANCH  87  90
ENDBRANCH  11  87
ENDBRANCH   9  11
ENDBRANCH   5   7
BRANCH   5  95
ATOM     95  CB  TRP d   1       8.516   8.711   5.975  0.00  0.00    -0.012 C 
ATOM     96  H60 TRP d   1       9.413   8.090   5.837  0.00  0.00     0.044 H 
ATOM     97  H61 TRP d   1       8.780   9.617   6.540  0.00  0.00     0.044 H 
BRANCH  95  98
ATOM     98  CG  TRP d   1       8.027   9.136   4.611  0.00  0.00    -0.028 A 
ATOM     99  CD1 TRP d   1       6.754   9.466   4.253  0.00  0.00    -0.015 A 
ATOM    100  NE1 TRP d   1       6.707   9.834   2.932  0.00  0.00    -0.365 N 
ATOM    101  H62 TRP d   1       5.895   9.441   4.922  0.00  0.00     0.112 H 
ATOM    102  CE2 TRP d   1       7.962   9.731   2.399  0.00  0.00     0.042 A 
ATOM    103  H63 TRP d   1       5.864  10.138   2.425  0.00  0.00     0.165 HD
ATOM    104  CD2 TRP d   1       8.819   9.290   3.423  0.00  0.00    -0.002 A 
ATOM    105  CZ2 TRP d   1       8.417   9.991   1.107  0.00  0.00    -0.056 A 
ATOM    106  CE3 TRP d   1      10.168   9.105   3.129  0.00  0.00    -0.070 A 
ATOM    107  CZ3 TRP d   1      10.620   9.360   1.852  0.00  0.00    -0.082 A 
ATOM    108  H64 TRP d   1      10.854   8.764   3.896  0.00  0.00     0.084 H 
ATOM    109  CH2 TRP d   1       9.747   9.801   0.854  0.00  0.00    -0.081 A 
ATOM    110  H66 TRP d   1      11.669   9.216   1.618  0.00  0.00     0.083 H 
ATOM    111  H67 TRP d   1      10.132   9.996  -0.140  0.00  0.00     0.083 H 
ATOM    112  H65 TRP d   1       7.741  10.331   0.331  0.00  0.00     0.086 H 
ENDBRANCH  95  98
ENDBRANCH   5  95
ENDBRANCH   3   5
BRANCH   1 113
ATOM    113  CA  ASP d   1       4.000   8.958   8.005  0.00  0.00     0.098 C 
ATOM    114  H55 ASP d   1       3.831   9.068   9.086  0.00  0.00     0.088 H 
BRANCH 113 115
ATOM    115  N   ASP d   1       4.018  10.309   7.429  0.00  0.00    -0.345 N 
ATOM    116  C   ILE d   1       4.043  10.517   6.114  0.00  0.00     0.241 C 
ATOM    117  O   ILE d   1       4.043   9.592   5.304  0.00  0.00    -0.271 OA
ATOM    118  H54 ASP d   1       4.011  11.098   8.044  0.00  0.00     0.163 HD
BRANCH 116 119
ATOM    119  CA  ILE d   1       3.990  11.974   5.625  0.00  0.00     0.092 C 
ATOM    120  H44 ILE d   1       3.187  12.007   4.874  0.00  0.00     0.088 H 
BRANCH 119 121
ATOM    121  N   ILE d   1       3.591  12.935   6.664  0.00  0.00    -0.346 N 
ATOM    122  C   LYS d   1       4.227  13.093   7.831  0.00  0.00     0.241 C 
ATOM    123  O   LYS d   1       5.209  12.445   8.167  0.00  0.00    -0.271 OA
ATOM    124  H43 ILE d   1       2.791  13.509   6.487  0.00  0.00     0.163 HD
BRANCH 122 125
ATOM    125  CA  LYS d   1       3.632  14.133   8.776  0.00  0.00     0.089 C 
ATOM    126  H31 LYS d   1       4.390  14.906   8.969  0.00  0.00     0.087 H 
BRANCH 125 127
ATOM    127  N   LYS d   1       2.469  14.768   8.176  0.00  0.00    -0.346 N 
ATOM    128  C   THR d   1       2.587  15.820   7.370  0.00  0.00     0.243 C 
ATOM    129  O   THR d   1       3.674  16.320   7.084  0.00  0.00    -0.271 OA
ATOM    130  H30 LYS d   1       1.558  14.405   8.374  0.00  0.00     0.163 HD
BRANCH 128 131
ATOM    131  CA  THR d   1       1.292  16.389   6.791  0.00  0.00     0.113 C 
ATOM    132  H24 THR d   1       1.351  16.330   5.694  0.00  0.00     0.091 H 
BRANCH 131 133
ATOM    133  N   THR d   1       0.127  15.626   7.225  0.00  0.00    -0.344 N 
ATOM    134  C   ARG d   1      -0.423  14.697   6.450  0.00  0.00     0.241 C 
ATOM    135  O   ARG d   1       0.006  14.420   5.330  0.00  0.00    -0.271 OA
ATOM    136  H23 THR d   1      -0.267  15.806   8.126  0.00  0.00     0.163 HD
BRANCH 134 137
ATOM    137  CA  ARG d   1      -1.636  13.971   7.022  0.00  0.00     0.089 C 
ATOM    138  H11 ARG d   1      -2.098  13.377   6.219  0.00  0.00     0.087 H 
BRANCH 137 139
ATOM    139  N   ARG d   1      -1.245  13.067   8.098  0.00  0.00    -0.346 N 
ATOM    140  C   THR d   1      -0.372  12.085   7.897  0.00  0.00     0.251 C 
ATOM    141  O   THR d   1       0.158  11.874   6.806  0.00  0.00    -0.271 OA
ATOM    142  H10 ARG d   1      -1.643  13.189   9.007  0.00  0.00     0.163 HD
BRANCH 140 143
ATOM    143  CA  THR d   1      -0.050  11.209   9.103  0.00  0.00     0.199 C 
ATOM    144  H4  THR d   1       0.996  10.876   9.028  0.00  0.00     0.103 H 
BRANCH 143 145
ATOM    145  N   THR d   1      -0.229  11.957  10.376  0.00  0.00    -0.064 N 
ATOM    146  H1  THR d   1       0.370  12.767  10.377  0.00  0.00     0.275 HD
ATOM    147  H2  THR d   1       0.011  11.361  11.153  0.00  0.00     0.275 HD
ATOM    148  H3  THR d   1      -1.190  12.250  10.462  0.00  0.00     0.275 HD
ENDBRANCH 143 145
BRANCH 143 149
ATOM    149  CB  THR d   1      -0.968   9.984   9.123  0.00  0.00     0.068 C 
ATOM    150  H5  THR d   1      -1.323   9.813   8.096  0.00  0.00     0.086 H 
BRANCH 149 151
ATOM    151  OG1 THR d   1      -2.086  10.207   9.965  0.00  0.00    -0.393 OA
ATOM    152  H6  THR d   1      -2.641   9.436   9.963  0.00  0.00     0.210 HD
ENDBRANCH 149 151
BRANCH 149 153
ATOM    153  CG2 THR d   1      -0.275   8.726   9.605  0.00  0.00    -0.050 C 
ATOM    154  H7  THR d   1      -0.988   7.888   9.595  0.00  0.00     0.031 H 
ATOM    155  H8  THR d   1       0.095   8.880  10.629  0.00  0.00     0.031 H 
ATOM    156  H9  THR d   1       0.571   8.496   8.941  0.00  0.00     0.031 H 
ENDBRANCH 149 153
ENDBRANCH 143 149
ENDBRANCH 140 143
ENDBRANCH 137 139
BRANCH 137 157
ATOM    157  CB  ARG d   1      -2.660  14.987   7.530  0.00  0.00    -0.036 C 
ATOM    158  H12 ARG d   1      -2.781  15.770   6.766  0.00  0.00     0.036 H 
ATOM    159  H13 ARG d   1      -2.274  15.436   8.457  0.00  0.00     0.036 H 
BRANCH 157 160
ATOM    160  CG  ARG d   1      -4.025  14.385   7.821  0.00  0.00    -0.048 C 
ATOM    161  H14 ARG d   1      -4.449  14.874   8.710  0.00  0.00     0.035 H 
ATOM    162  H15 ARG d   1      -3.907  13.309   8.016  0.00  0.00     0.035 H 
BRANCH 160 163
ATOM    163  CD  ARG d   1      -4.978  14.573   6.653  0.00  0.00     0.009 C 
ATOM    164  H16 ARG d   1      -4.907  13.697   5.992  0.00  0.00     0.064 H 
ATOM    165  H17 ARG d   1      -4.685  15.476   6.097  0.00  0.00     0.064 H 
BRANCH 163 166
ATOM    166  NE  ARG d   1      -6.363  14.720   7.094  0.00  0.00    -0.227 N 
ATOM    167  CZ  ARG d   1      -7.139  13.700   7.450  0.00  0.00     0.665 C 
ATOM    168  NH1 ARG d   1      -6.672  12.459   7.421  0.00  0.00    -0.235 N 
ATOM    169  NH2 ARG d   1      -8.388  13.923   7.839  0.00  0.00    -0.235 N 
ATOM    170  H19 ARG d   1      -7.279  11.674   7.698  0.00  0.00     0.174 HD
ATOM    171  H20 ARG d   1      -5.703  12.280   7.122  0.00  0.00     0.174 HD
ATOM    172  H21 ARG d   1      -8.756  14.885   7.863  0.00  0.00     0.174 HD
ATOM    173  H22 ARG d   1      -8.990  13.134   8.117  0.00  0.00     0.174 HD
ATOM    174  H18 ARG d   1      -6.762  15.669   7.131  0.00  0.00     0.177 HD
ENDBRANCH 163 166
ENDBRANCH 160 163
ENDBRANCH 157 160
ENDBRANCH 137 157
ENDBRANCH 134 137
ENDBRANCH 131 133
BRANCH 131 175
ATOM    175  CB  THR d   1       1.143  17.858   7.191  0.00  0.00     0.060 C 
ATOM    176  H25 THR d   1       1.125  17.907   8.290  0.00  0.00     0.086 H 
BRANCH 175 177
ATOM    177  OG1 THR d   1      -0.067  18.396   6.688  0.00  0.00    -0.393 OA
ATOM    178  H26 THR d   1      -0.139  19.307   6.947  0.00  0.00     0.210 HD
ENDBRANCH 175 177
BRANCH 175 179
ATOM    179  CG2 THR d   1       2.275  18.731   6.693  0.00  0.00    -0.050 C 
ATOM    180  H27 THR d   1       2.106  19.769   7.014  0.00  0.00     0.031 H 
ATOM    181  H28 THR d   1       2.315  18.689   5.595  0.00  0.00     0.031 H 
ATOM    182  H29 THR d   1       3.227  18.369   7.108  0.00  0.00     0.031 H 
ENDBRANCH 175 179
ENDBRANCH 131 175
ENDBRANCH 128 131
ENDBRANCH 125 127
BRANCH 125 183
ATOM    183  CB  LYS d   1       3.256  13.474  10.105  0.00  0.00    -0.038 C 
ATOM    184  H32 LYS d   1       2.574  12.636   9.898  0.00  0.00     0.036 H 
ATOM    185  H33 LYS d   1       2.742  14.219  10.730  0.00  0.00     0.036 H 
BRANCH 183 186
ATOM    186  CG  LYS d   1       4.452  12.941  10.878  0.00  0.00    -0.061 C 
ATOM    187  H34 LYS d   1       4.370  13.261  11.927  0.00  0.00     0.033 H 
ATOM    188  H35 LYS d   1       5.373  13.353  10.440  0.00  0.00     0.033 H 
BRANCH 186 189
ATOM    189  CD  LYS d   1       4.518  11.422  10.828  0.00  0.00    -0.043 C 
ATOM    190  H36 LYS d   1       3.912  11.066   9.982  0.00  0.00     0.035 H 
ATOM    191  H37 LYS d   1       4.113  11.016  11.767  0.00  0.00     0.035 H 
BRANCH 189 192
ATOM    192  CE  LYS d   1       5.948  10.931  10.653  0.00  0.00     0.080 C 
ATOM    193  H38 LYS d   1       6.587  11.423  11.401  0.00  0.00     0.075 H 
ATOM    194  H39 LYS d   1       6.294  11.196   9.643  0.00  0.00     0.075 H 
BRANCH 192 195
ATOM    195  NZ  LYS d   1       6.054   9.455  10.826  0.00  0.00    -0.079 N 
ATOM    196  H40 LYS d   1       7.013   9.170  10.703  0.00  0.00     0.274 HD
ATOM    197  H41 LYS d   1       5.476   8.994  10.141  0.00  0.00     0.274 HD
ATOM    198  H42 LYS d   1       5.745   9.202  11.751  0.00  0.00     0.274 HD
ENDBRANCH 192 195
ENDBRANCH 189 192
ENDBRANCH 186 189
ENDBRANCH 183 186
ENDBRANCH 125 183
ENDBRANCH 122 125
ENDBRANCH 119 121
BRANCH 119 199
ATOM    199  CB  ILE d   1       5.288  12.374   4.871  0.00  0.00    -0.030 C 
ATOM    200  H45 ILE d   1       5.625  11.501   4.294  0.00  0.00     0.043 H 
BRANCH 199 201
ATOM    201  CG1 ILE d   1       6.420  12.778   5.813  0.00  0.00    -0.063 C 
ATOM    202  H46 ILE d   1       6.058  13.581   6.472  0.00  0.00     0.033 H 
ATOM    203  H47 ILE d   1       7.262  13.149   5.210  0.00  0.00     0.033 H 
BRANCH 201 204
ATOM    204  CD1 ILE d   1       6.906  11.644   6.665  0.00  0.00    -0.076 C 
ATOM    205  H51 ILE d   1       7.717  11.998   7.318  0.00  0.00     0.027 H 
ATOM    206  H52 ILE d   1       7.281  10.835   6.020  0.00  0.00     0.027 H 
ATOM    207  H53 ILE d   1       6.077  11.267   7.282  0.00  0.00     0.027 H 
ENDBRANCH 201 204
ENDBRANCH 199 201
BRANCH 199 208
ATOM    208  CG2 ILE d   1       4.993  13.507   3.900  0.00  0.00    -0.071 C 
ATOM    209  H48 ILE d   1       4.177  13.209   3.225  0.00  0.00     0.028 H 
ATOM    210  H49 ILE d   1       5.894  13.728   3.310  0.00  0.00     0.028 H 
ATOM    211  H50 ILE d   1       4.694  14.404   4.463  0.00  0.00     0.028 H 
ENDBRANCH 199 208
ENDBRANCH 119 199
ENDBRANCH 116 119
ENDBRANCH 113 115
BRANCH 113 212
ATOM    212  CB  ASP d   1       2.837   8.157   7.415  0.00  0.00     0.043 C 
ATOM    213  H56 ASP d   1       3.083   7.890   6.377  0.00  0.00     0.052 H 
ATOM    214  H57 ASP d   1       1.934   8.784   7.428  0.00  0.00     0.052 H 
BRANCH 212 215
ATOM    215  CG  ASP d   1       2.557   6.885   8.192  0.00  0.00     0.175 C 
ATOM    216  OD1 ASP d   1       2.569   6.937   9.439  0.00  0.00    -0.648 OA
ATOM    217  OD2 ASP d   1       2.326   5.838   7.553  0.00  0.00    -0.648 OA
ENDBRANCH 212 215
ENDBRANCH 113 212
ENDBRANCH   1 113
TORSDOF 64
