REMARK  4 active torsions:
REMARK  status: ('A' for Active; 'I' for Inactive)
REMARK    1  A    between atoms: C4_4  and  C41_7 
REMARK    2  A    between atoms: C41_7  and  C42_8 
REMARK    3  A    between atoms: C42_8  and  N1_9 
REMARK    4  A    between atoms: C42_8  and  C43_10 
ROOT
ATOM      1  C41 SHI d   1      73.889  47.211  42.198  0.00  0.00     0.002 C 
ATOM      2  H3  SHI d   1      72.927  47.742  42.148  0.00  0.00     0.044 H 
ATOM      3  H4  SHI d   1      74.429  47.340  41.249  0.00  0.00     0.044 H 
ENDROOT
BRANCH   1   4
ATOM      4  C4  SHI d   1      73.606  45.753  42.378  0.00  0.00     0.038 C 
ATOM      5  C5  SHI d   1      72.597  45.123  42.988  0.00  0.00     0.053 C 
ATOM      6  O1  SHI d   1      72.818  43.788  43.064  0.00  0.00    -0.247 OA
ATOM      7  H2  SHI d   1      71.709  45.620  43.375  0.00  0.00     0.127 H 
ATOM      8  N2  SHI d   1      74.013  43.501  42.331  0.00  0.00    -0.226 N 
ATOM      9  C3  SHI d   1      74.454  44.677  41.876  0.00  0.00     0.273 C 
ATOM     10  H1  SHI d   1      74.432  42.604  42.189  0.00  0.00     0.198 HD
ATOM     11  O31 SHI d   1      75.466  44.774  41.122  0.00  0.00    -0.266 OA
ENDBRANCH   1   4
BRANCH   1  12
ATOM     12  C42 SHI d   1      74.735  47.853  43.324  0.00  0.00     0.186 C 
ATOM     13  H5  SHI d   1      75.711  47.348  43.377  0.00  0.00     0.101 H 
BRANCH  12  14
ATOM     14  N1  SHI d   1      74.051  47.689  44.661  0.00  0.00    -0.065 N 
ATOM     15  H6  SHI d   1      74.615  48.112  45.381  0.00  0.00     0.275 HD
ATOM     16  H7  SHI d   1      73.933  46.708  44.860  0.00  0.00     0.275 HD
ATOM     17  H8  SHI d   1      73.149  48.137  44.634  0.00  0.00     0.275 HD
ENDBRANCH  12  14
BRANCH  12  18
ATOM     18  C43 SHI d   1      74.964  49.346  42.929  0.00  0.00     0.204 C 
ATOM     19  O41 SHI d   1      74.736  50.190  43.844  0.00  0.00    -0.646 OA
ATOM     20  O42 SHI d   1      75.366  49.615  41.759  0.00  0.00    -0.646 OA
ENDBRANCH  12  18
ENDBRANCH   1  12
TORSDOF 4
