REMARK  4 active torsions:
REMARK  status: ('A' for Active; 'I' for Inactive)
REMARK    1  A    between atoms: N1_1  and  C7_10 
REMARK    2  A    between atoms: C7_10  and  C8_11 
REMARK    3  A    between atoms: C8_11  and  N8_12 
REMARK    4  A    between atoms: C8_11  and  C9_13 
ROOT
ATOM      1  C7  IWD d   1      20.153   2.981  20.749  0.00  0.00     0.040 C 
ATOM      2  H3  IWD d   1      20.663   2.579  21.637  0.00  0.00     0.069 H 
ATOM      3  H4  IWD d   1      20.544   3.985  20.525  0.00  0.00     0.069 H 
ENDROOT
BRANCH   1   4
ATOM      4  N1  IWD d   1      18.712   3.098  21.051  0.00  0.00    -0.306 N 
ATOM      5  C2  IWD d   1      17.841   3.776  20.157  0.00  0.00     0.329 A 
ATOM      6  O2  IWD d   1      18.194   4.334  19.147  0.00  0.00    -0.246 OA
ATOM      7  N3  IWD d   1      16.484   3.743  20.552  0.00  0.00    -0.274 N 
ATOM      8  C4  IWD d   1      15.935   3.145  21.655  0.00  0.00     0.267 A 
ATOM      9  H1  IWD d   1      15.843   4.217  19.949  0.00  0.00     0.173 HD
ATOM     10  O4  IWD d   1      14.744   3.197  21.902  0.00  0.00    -0.267 OA
ATOM     11  C5  IWD d   1      16.967   2.446  22.536  0.00  0.00     0.090 A 
ATOM     12  I5  IWD d   1      16.375   1.420  24.242  0.00  0.00    -0.037 I 
ATOM     13  C6  IWD d   1      18.258   2.462  22.152  0.00  0.00     0.006 A 
ATOM     14  H2  IWD d   1      18.981   1.929  22.768  0.00  0.00     0.114 H 
ENDBRANCH   1   4
BRANCH   1  15
ATOM     15  C8  IWD d   1      20.456   2.073  19.569  0.00  0.00     0.198 C 
ATOM     16  H5  IWD d   1      19.765   2.353  18.760  0.00  0.00     0.103 H 
BRANCH  15  17
ATOM     17  N8  IWD d   1      20.160   0.651  19.960  0.00  0.00    -0.064 N 
ATOM     18  H6  IWD d   1      20.358   0.041  19.183  0.00  0.00     0.275 HD
ATOM     19  H7  IWD d   1      19.188   0.568  20.213  0.00  0.00     0.275 HD
ATOM     20  H8  IWD d   1      20.735   0.392  20.746  0.00  0.00     0.275 HD
ENDBRANCH  15  17
BRANCH  15  21
ATOM     21  C9  IWD d   1      21.879   2.194  18.997  0.00  0.00     0.206 C 
ATOM     22  O91 IWD d   1      22.564   1.189  18.891  0.00  0.00    -0.646 OA
ATOM     23  O92 IWD d   1      22.235   3.398  18.714  0.00  0.00    -0.646 OA
ENDBRANCH  15  21
ENDBRANCH   1  15
TORSDOF 4
