REMARK  4 active torsions:
REMARK  status: ('A' for Active; 'I' for Inactive)
REMARK    1  A    between atoms: N1_1  and  C7_10 
REMARK    2  A    between atoms: C7_10  and  C8_11 
REMARK    3  A    between atoms: C8_11  and  N8_12 
REMARK    4  A    between atoms: C8_11  and  C9_13 
ROOT
ATOM      1  C7  BWD d   1      15.819  43.880  16.852  0.00  0.00     0.040 C 
ATOM      2  H3  BWD d   1      15.834  42.813  17.120  0.00  0.00     0.069 H 
ATOM      3  H4  BWD d   1      14.933  44.357  17.296  0.00  0.00     0.069 H 
ENDROOT
BRANCH   1   4
ATOM      4  N1  BWD d   1      15.726  43.993  15.385  0.00  0.00    -0.306 N 
ATOM      5  C2  BWD d   1      15.489  45.256  14.779  0.00  0.00     0.329 A 
ATOM      6  O2  BWD d   1      15.301  46.282  15.387  0.00  0.00    -0.246 OA
ATOM      7  N3  BWD d   1      15.490  45.216  13.362  0.00  0.00    -0.274 N 
ATOM      8  C4  BWD d   1      15.699  44.127  12.544  0.00  0.00     0.268 A 
ATOM      9  H1  BWD d   1      15.318  46.085  12.899  0.00  0.00     0.173 HD
ATOM     10  O4  BWD d   1      15.663  44.196  11.324  0.00  0.00    -0.267 OA
ATOM     11  C5  BWD d   1      15.949  42.843  13.312  0.00  0.00     0.094 A 
ATOM     12 BR5  BWD d   1      16.309  41.256  12.381  0.00  0.00    -0.044 Br
ATOM     13  C6  BWD d   1      15.964  42.879  14.661  0.00  0.00     0.006 A 
ATOM     14  H2  BWD d   1      16.181  41.956  15.196  0.00  0.00     0.114 H 
ENDBRANCH   1   4
BRANCH   1  15
ATOM     15  C8  BWD d   1      17.062  44.540  17.428  0.00  0.00     0.198 C 
ATOM     16  H5  BWD d   1      17.214  45.480  16.877  0.00  0.00     0.103 H 
BRANCH  15  17
ATOM     17  N8  BWD d   1      18.247  43.652  17.166  0.00  0.00    -0.064 N 
ATOM     18  H6  BWD d   1      19.078  44.080  17.544  0.00  0.00     0.275 HD
ATOM     19  H7  BWD d   1      18.358  43.524  16.172  0.00  0.00     0.275 HD
ATOM     20  H8  BWD d   1      18.100  42.757  17.606  0.00  0.00     0.275 HD
ENDBRANCH  15  17
BRANCH  15  21
ATOM     21  C9  BWD d   1      16.977  44.909  18.913  0.00  0.00     0.206 C 
ATOM     22  O91 BWD d   1      17.825  44.485  19.657  0.00  0.00    -0.646 OA
ATOM     23  O92 BWD d   1      15.959  45.630  19.235  0.00  0.00    -0.646 OA
ENDBRANCH  15  21
ENDBRANCH   1  15
TORSDOF 4
