REMARK  4 active torsions:
REMARK  status: ('A' for Active; 'I' for Inactive)
REMARK    1  A    between atoms: N1_1  and  C7_10 
REMARK    2  A    between atoms: C7_10  and  C8_11 
REMARK    3  A    between atoms: C8_11  and  N8_12 
REMARK    4  A    between atoms: C8_11  and  C9_13 
ROOT
ATOM      1  C7  FWD d   1      16.207   1.899  16.897  0.00  0.00     0.040 C 
ATOM      2  H3  FWD d   1      16.295   2.964  17.158  0.00  0.00     0.069 H 
ATOM      3  H4  FWD d   1      17.023   1.336  17.373  0.00  0.00     0.069 H 
ENDROOT
BRANCH   1   4
ATOM      4  N1  FWD d   1      16.346   1.769  15.442  0.00  0.00    -0.304 N 
ATOM      5  C2  FWD d   1      16.452   0.472  14.880  0.00  0.00     0.329 A 
ATOM      6  O2  FWD d   1      16.486  -0.554  15.522  0.00  0.00    -0.246 OA
ATOM      7  N3  FWD d   1      16.511   0.466  13.473  0.00  0.00    -0.273 N 
ATOM      8  C4  FWD d   1      16.480   1.544  12.626  0.00  0.00     0.289 A 
ATOM      9  H1  FWD d   1      16.584  -0.432  13.040  0.00  0.00     0.173 HD
ATOM     10  O4  FWD d   1      16.555   1.443  11.421  0.00  0.00    -0.265 OA
ATOM     11  C5  FWD d   1      16.372   2.864  13.328  0.00  0.00     0.199 A 
ATOM     12  F5  FWD d   1      16.316   3.972  12.575  0.00  0.00    -0.199 F 
ATOM     13  C6  FWD d   1      16.289   2.889  14.678  0.00  0.00     0.027 A 
ATOM     14  H2  FWD d   1      16.171   3.851  15.174  0.00  0.00     0.116 H 
ENDBRANCH   1   4
BRANCH   1  15
ATOM     15  C8  FWD d   1      14.886   1.381  17.449  0.00  0.00     0.198 C 
ATOM     16  H5  FWD d   1      14.649   0.459  16.898  0.00  0.00     0.103 H 
BRANCH  15  17
ATOM     17  N8  FWD d   1      13.780   2.363  17.184  0.00  0.00    -0.064 N 
ATOM     18  H6  FWD d   1      12.915   2.003  17.556  0.00  0.00     0.275 HD
ATOM     19  H7  FWD d   1      13.686   2.503  16.190  0.00  0.00     0.275 HD
ATOM     20  H8  FWD d   1      13.997   3.241  17.628  0.00  0.00     0.275 HD
ENDBRANCH  15  17
BRANCH  15  21
ATOM     21  C9  FWD d   1      14.939   1.012  18.929  0.00  0.00     0.206 C 
ATOM     22  O91 FWD d   1      14.130   1.503  19.678  0.00  0.00    -0.646 OA
ATOM     23  O92 FWD d   1      15.907   0.224  19.243  0.00  0.00    -0.646 OA
ENDBRANCH  15  21
ENDBRANCH   1  15
TORSDOF 4
