REMARK  4 active torsions:
REMARK  status: ('A' for Active; 'I' for Inactive)
REMARK    1  A    between atoms: N1_1  and  C7_9 
REMARK    2  A    between atoms: C7_9  and  C8_10 
REMARK    3  A    between atoms: C8_10  and  N8_11 
REMARK    4  A    between atoms: C8_10  and  C9_12 
ROOT
ATOM      1  C7  HWD d   1      16.154   1.867  16.893  0.00  0.00     0.040 C 
ATOM      2  H4  HWD d   1      16.225   2.938  17.131  0.00  0.00     0.069 H 
ATOM      3  H5  HWD d   1      16.993   1.331  17.360  0.00  0.00     0.069 H 
ENDROOT
BRANCH   1   4
ATOM      4  N1  HWD d   1      16.266   1.712  15.430  0.00  0.00    -0.307 N 
ATOM      5  C2  HWD d   1      16.391   0.409  14.863  0.00  0.00     0.329 A 
ATOM      6  O2  HWD d   1      16.468  -0.634  15.544  0.00  0.00    -0.246 OA
ATOM      7  N3  HWD d   1      16.421   0.386  13.468  0.00  0.00    -0.275 N 
ATOM      8  C4  HWD d   1      16.340   1.507  12.614  0.00  0.00     0.250 A 
ATOM      9  H1  HWD d   1      16.508  -0.510  13.032  0.00  0.00     0.173 HD
ATOM     10  O4  HWD d   1      16.381   1.370  11.404  0.00  0.00    -0.268 OA
ATOM     11  C5  HWD d   1      16.211   2.799  13.291  0.00  0.00    -0.002 A 
ATOM     12  C6  HWD d   1      16.154   2.861  14.643  0.00  0.00    -0.011 A 
ATOM     13  H2  HWD d   1      16.161   3.715  12.704  0.00  0.00     0.094 H 
ATOM     14  H3  HWD d   1      16.018   3.827  15.127  0.00  0.00     0.112 H 
ENDBRANCH   1   4
BRANCH   1  15
ATOM     15  C8  HWD d   1      14.854   1.331  17.490  0.00  0.00     0.198 C 
ATOM     16  H6  HWD d   1      14.614   0.402  16.953  0.00  0.00     0.103 H 
BRANCH  15  17
ATOM     17  N8  HWD d   1      13.729   2.301  17.246  0.00  0.00    -0.064 N 
ATOM     18  H7  HWD d   1      12.878   1.936  17.644  0.00  0.00     0.275 HD
ATOM     19  H8  HWD d   1      13.607   2.431  16.254  0.00  0.00     0.275 HD
ATOM     20  H9  HWD d   1      13.949   3.186  17.676  0.00  0.00     0.275 HD
ENDBRANCH  15  17
BRANCH  15  21
ATOM     21  C9  HWD d   1      14.948   0.972  18.980  0.00  0.00     0.206 C 
ATOM     22  O91 HWD d   1      14.147   1.450  19.743  0.00  0.00    -0.646 OA
ATOM     23  O92 HWD d   1      15.938   0.210  19.282  0.00  0.00    -0.646 OA
ENDBRANCH  15  21
ENDBRANCH   1  15
TORSDOF 4
