REMARK  10 active torsions:
REMARK  status: ('A' for Active; 'I' for Inactive)
REMARK    1  A    between atoms: C2_2  and  C1_1 
REMARK    2  A    between atoms: C4_4  and  O4_15 
REMARK    3  A    between atoms: N5_12  and  C5_5 
REMARK    4  A    between atoms: C6_6  and  C7_7 
REMARK    5  A    between atoms: C7_7  and  C8_8 
REMARK    6  A    between atoms: C7_7  and  O7_17 
REMARK    7  A    between atoms: C8_8  and  C9_9 
REMARK    8  A    between atoms: C8_8  and  O8_18 
REMARK    9  A    between atoms: C9_9  and  O9_19 
REMARK   10  A    between atoms: C10_10  and  C11_11 
ROOT
ATOM      1  C2  DAN d   1      33.716 -16.112  10.657  0.00  0.00     0.125 C 
ATOM      2  C3  DAN d   1      34.263 -16.308  12.056  0.00  0.00    -0.005 C 
ATOM      3  C4  DAN d   1      33.240 -16.941  12.994  0.00  0.00     0.060 C 
ATOM      4  C5  DAN d   1      32.365 -17.850  12.173  0.00  0.00     0.063 C 
ATOM      5  C6  DAN d   1      31.604 -16.976  11.197  0.00  0.00     0.088 C 
ATOM      6  O6  DAN d   1      32.472 -16.156  10.412  0.00  0.00    -0.365 OA
ATOM      7  H1  DAN d   1      33.796 -17.194  10.474  0.00  0.00     0.100 H 
ATOM      8  H2  DAN d   1      34.556 -15.329  12.462  0.00  0.00     0.041 H 
ATOM      9  H3  DAN d   1      35.146 -16.962  12.002  0.00  0.00     0.041 H 
ATOM     10  H4  DAN d   1      32.637 -16.156  13.474  0.00  0.00     0.086 H 
ATOM     11  H5  DAN d   1      33.008 -18.540  11.608  0.00  0.00     0.080 H 
ATOM     12  H6  DAN d   1      30.967 -16.295  11.780  0.00  0.00     0.090 H 
ENDROOT
BRANCH   5  13
ATOM     13  C7  DAN d   1      30.676 -17.878  10.366  0.00  0.00     0.089 C 
ATOM     14  H7  DAN d   1      30.167 -18.547  11.075  0.00  0.00     0.091 H 
BRANCH  13  15
ATOM     15  C8  DAN d   1      29.612 -17.080   9.647  0.00  0.00     0.083 C 
ATOM     16  H8  DAN d   1      30.081 -16.362   8.958  0.00  0.00     0.090 H 
BRANCH  15  17
ATOM     17  C9  DAN d   1      28.746 -18.050   8.849  0.00  0.00     0.043 C 
ATOM     18  H9  DAN d   1      27.768 -17.587   8.648  0.00  0.00     0.078 H 
ATOM     19  H10 DAN d   1      28.602 -18.974   9.428  0.00  0.00     0.078 H 
BRANCH  17  20
ATOM     20  O9  DAN d   1      29.381 -18.356   7.627  0.00  0.00    -0.398 OA
ATOM     21  H18 DAN d   1      30.225 -18.756   7.801  0.00  0.00     0.209 HD
ENDBRANCH  17  20
ENDBRANCH  15  17
BRANCH  15  22
ATOM     22  O8  DAN d   1      28.866 -16.377  10.612  0.00  0.00    -0.391 OA
ATOM     23  H17 DAN d   1      29.440 -15.786  11.085  0.00  0.00     0.210 HD
ENDBRANCH  15  22
ENDBRANCH  13  15
BRANCH  13  24
ATOM     24  O7  DAN d   1      31.359 -18.698   9.431  0.00  0.00    -0.390 OA
ATOM     25  H16 DAN d   1      30.740 -19.290   9.019  0.00  0.00     0.210 HD
ENDBRANCH  13  24
ENDBRANCH   5  13
BRANCH   4  26
ATOM     26  N5  DAN d   1      31.459 -18.650  12.984  0.00  0.00    -0.363 N 
ATOM     27  C10 DAN d   1      31.274 -19.949  12.704  0.00  0.00     0.147 C 
ATOM     28  O10 DAN d   1      30.167 -20.686  13.181  0.00  0.00    -0.178 OA
ATOM     29  H14 DAN d   1      30.974 -18.231  13.751  0.00  0.00     0.162 HD
BRANCH  27  30
ATOM     30  C11 DAN d   1      32.329 -20.591  11.840  0.00  0.00    -0.015 C 
ATOM     31  H11 DAN d   1      32.075 -21.649  11.677  0.00  0.00     0.038 H 
ATOM     32  H12 DAN d   1      33.306 -20.521  12.341  0.00  0.00     0.038 H 
ATOM     33  H13 DAN d   1      32.376 -20.072  10.871  0.00  0.00     0.038 H 
ENDBRANCH  27  30
ENDBRANCH   4  26
BRANCH   3  34
ATOM     34  O4  DAN d   1      33.874 -17.721  13.974  0.00  0.00    -0.393 OA
ATOM     35  H15 DAN d   1      34.399 -18.391  13.553  0.00  0.00     0.210 HD
ENDBRANCH   3  34
BRANCH   1  36
ATOM     36  C1  DAN d   1      34.605 -15.846   9.584  0.00  0.00     0.203 C 
ATOM     37  O1A DAN d   1      34.893 -16.812   8.580  0.00  0.00    -0.646 OA
ATOM     38  O1B DAN d   1      35.210 -14.683   9.465  0.00  0.00    -0.646 OA
ENDBRANCH   1  36
TORSDOF 10
