REMARK  12 active torsions:
REMARK  status: ('A' for Active; 'I' for Inactive)
REMARK       I    between atoms: C1_1  and  N1_8 
REMARK       I    between atoms: N_9  and  C1_1 
REMARK    1  A    between atoms: CA_10  and  N_9 
REMARK    2  A    between atoms: CA_10  and  CB_11 
REMARK    3  A    between atoms: C_15  and  CA_10 
REMARK    4  A    between atoms: CB_11  and  CG_12 
REMARK    5  A    between atoms: CG_12  and  CD1_13 
REMARK    6  A    between atoms: CG_12  and  CD2_14 
REMARK       I    between atoms: N'_18  and  C_15 
REMARK    7  A    between atoms: CB'_17  and  OG_19 
REMARK    8  A    between atoms: CA'_29  and  CB'_17 
REMARK    9  A    between atoms: CA'_29  and  N'_18 
REMARK   10  A    between atoms: OG_19  and  CD_20 
REMARK   11  A    between atoms: CD_20  and  C1'_21 
REMARK   12  A    between atoms: C'_27  and  CA'_29 
ROOT
ATOM      1  CA  BLN d   1      49.792  28.425  59.484  0.00  0.00     0.091 C 
ATOM      2  H10 BLN d   1      49.691  29.489  59.223  0.00  0.00     0.087 H 
ENDROOT
BRANCH   1   3
ATOM      3  N   BLN d   1      50.788  28.258  60.555  0.00  0.00    -0.330 N 
ATOM      4  C1  BLN d   1      50.679  28.984  61.669  0.00  0.00     0.319 C 
ATOM      5  O1  BLN d   1      49.779  29.817  61.776  0.00  0.00    -0.247 OA
ATOM      6  N1  BLN d   1      51.616  28.789  62.649  0.00  0.00    -0.330 N 
ATOM      7  C2  BLN d   1      51.567  29.631  63.869  0.00  0.00     0.019 C 
ATOM      8  C6  BLN d   1      52.705  27.816  62.546  0.00  0.00     0.019 C 
ATOM      9  C3  BLN d   1      51.910  28.836  65.133  0.00  0.00     0.034 C 
ATOM     10  H1  BLN d   1      52.289  30.454  63.761  0.00  0.00     0.067 H 
ATOM     11  H2  BLN d   1      50.553  30.044  63.974  0.00  0.00     0.067 H 
ATOM     12  O2  BLN d   1      53.152  28.155  64.936  0.00  0.00    -0.388 OA
ATOM     13  H3  BLN d   1      51.115  28.102  65.333  0.00  0.00     0.076 H 
ATOM     14  H4  BLN d   1      51.998  29.523  65.987  0.00  0.00     0.076 H 
ATOM     15  C5  BLN d   1      53.060  27.173  63.900  0.00  0.00     0.034 C 
ATOM     16  H5  BLN d   1      54.027  26.657  63.809  0.00  0.00     0.076 H 
ATOM     17  H6  BLN d   1      52.280  26.445  64.166  0.00  0.00     0.076 H 
ATOM     18  H7  BLN d   1      52.402  27.022  61.848  0.00  0.00     0.067 H 
ATOM     19  H8  BLN d   1      53.597  28.327  62.155  0.00  0.00     0.067 H 
ATOM     20  H9  BLN d   1      51.539  27.607  60.449  0.00  0.00     0.165 HD
ENDBRANCH   1   3
BRANCH   1  21
ATOM     21  CB  BLN d   1      50.193  27.639  58.231  0.00  0.00    -0.035 C 
ATOM     22  H11 BLN d   1      49.388  27.745  57.489  0.00  0.00     0.037 H 
ATOM     23  H12 BLN d   1      50.297  26.580  58.511  0.00  0.00     0.037 H 
BRANCH  21  24
ATOM     24  CG  BLN d   1      51.505  28.089  57.576  0.00  0.00    -0.059 C 
ATOM     25  H13 BLN d   1      52.320  28.007  58.310  0.00  0.00     0.038 H 
BRANCH  24  26
ATOM     26  CD1 BLN d   1      51.832  27.198  56.367  0.00  0.00    -0.073 C 
ATOM     27  H14 BLN d   1      52.774  27.533  55.909  0.00  0.00     0.028 H 
ATOM     28  H15 BLN d   1      51.020  27.269  55.629  0.00  0.00     0.028 H 
ATOM     29  H16 BLN d   1      51.936  26.154  56.698  0.00  0.00     0.028 H 
ENDBRANCH  24  26
BRANCH  24  30
ATOM     30  CD2 BLN d   1      51.372  29.551  57.133  0.00  0.00    -0.073 C 
ATOM     31  H17 BLN d   1      51.138  30.179  58.006  0.00  0.00     0.028 H 
ATOM     32  H18 BLN d   1      50.564  29.637  56.392  0.00  0.00     0.028 H 
ATOM     33  H19 BLN d   1      52.319  29.886  56.684  0.00  0.00     0.028 H 
ENDBRANCH  24  30
ENDBRANCH  21  24
ENDBRANCH   1  21
BRANCH   1  34
ATOM     34  C   BLN d   1      48.477  27.897  60.064  0.00  0.00     0.241 C 
ATOM     35  O   BLN d   1      48.468  26.842  60.685  0.00  0.00    -0.271 OA
ATOM     36  N'  BLN d   1      47.370  28.610  59.857  0.00  0.00    -0.348 N 
ATOM     37  H22 BLN d   1      47.404  29.425  59.278  0.00  0.00     0.163 HD
BRANCH  36  38
ATOM     38  CA' BLN d   1      46.097  28.203  60.477  0.00  0.00     0.064 C 
ATOM     39  H32 BLN d   1      46.347  27.593  61.357  0.00  0.00     0.084 H 
BRANCH  38  40
ATOM     40  CB' BLN d   1      45.350  29.445  60.958  0.00  0.00     0.043 C 
ATOM     41  H20 BLN d   1      44.406  29.148  61.438  0.00  0.00     0.078 H 
ATOM     42  H21 BLN d   1      45.971  29.996  61.679  0.00  0.00     0.078 H 
BRANCH  40  43
ATOM     43  OG  BLN d   1      45.079  30.263  59.840  0.00  0.00    -0.384 OA
BRANCH  43  44
ATOM     44  CD  BLN d   1      44.786  31.603  60.223  0.00  0.00     0.043 C 
ATOM     45  H23 BLN d   1      45.720  32.152  60.414  0.00  0.00     0.081 H 
ATOM     46  H24 BLN d   1      44.166  31.607  61.132  0.00  0.00     0.081 H 
BRANCH  44  47
ATOM     47  C1' BLN d   1      44.039  32.240  59.090  0.00  0.00    -0.035 A 
ATOM     48  C2' BLN d   1      42.660  32.165  59.027  0.00  0.00    -0.075 A 
ATOM     49  C3' BLN d   1      41.958  32.747  57.961  0.00  0.00    -0.082 A 
ATOM     50  H25 BLN d   1      42.115  31.651  59.810  0.00  0.00     0.084 H 
ATOM     51  C4' BLN d   1      42.648  33.410  56.955  0.00  0.00    -0.083 A 
ATOM     52  H26 BLN d   1      40.877  32.679  57.923  0.00  0.00     0.083 H 
ATOM     53  C5' BLN d   1      44.035  33.492  57.007  0.00  0.00    -0.082 A 
ATOM     54  H27 BLN d   1      42.107  33.862  56.132  0.00  0.00     0.083 H 
ATOM     55  C6' BLN d   1      44.723  32.908  58.071  0.00  0.00    -0.075 A 
ATOM     56  H28 BLN d   1      44.580  34.008  56.224  0.00  0.00     0.083 H 
ATOM     57  H29 BLN d   1      45.804  32.974  58.108  0.00  0.00     0.084 H 
ENDBRANCH  44  47
ENDBRANCH  43  44
ENDBRANCH  40  43
ENDBRANCH  38  40
BRANCH  38  58
ATOM     58  C'  BLN d   1      45.193  27.361  59.600  0.00  0.00    -0.003 C 
ATOM     59  N40 BLN d   1      43.898  27.182  59.816  0.00  0.00    -0.314 NA
ATOM     60  H31 BLN d   1      43.357  26.607  59.189  0.00  0.00     0.185 HD
ATOM     61  H30 BLN d   1      45.637  26.870  58.735  0.00  0.00     0.110 H 
ENDBRANCH  38  58
ENDBRANCH  36  38
ENDBRANCH   1  34
TORSDOF 12
