REMARK  4 active torsions:
REMARK  status: ('A' for Active; 'I' for Inactive)
REMARK    1  A    between atoms: C4_4  and  C41_7 
REMARK    2  A    between atoms: C41_7  and  C42_8 
REMARK    3  A    between atoms: C42_8  and  N1_9 
REMARK    4  A    between atoms: C42_8  and  C43_10 
ROOT
ATOM      1  C41 SHI d   1      11.553  25.835   4.832  0.00  0.00     0.002 C 
ATOM      2  H3  SHI d   1      11.864  24.863   4.422  0.00  0.00     0.044 H 
ATOM      3  H4  SHI d   1      12.316  26.593   4.599  0.00  0.00     0.044 H 
ENDROOT
BRANCH   1   4
ATOM      4  C4  SHI d   1      11.471  25.703   6.333  0.00  0.00     0.038 A 
ATOM      5  C5  SHI d   1      11.216  24.643   7.118  0.00  0.00     0.053 A 
ATOM      6  O1  SHI d   1      11.198  24.975   8.431  0.00  0.00    -0.247 OA
ATOM      7  H2  SHI d   1      11.044  23.635   6.743  0.00  0.00     0.127 H 
ATOM      8  N2  SHI d   1      11.476  26.375   8.527  0.00  0.00    -0.226 N 
ATOM      9  C3  SHI d   1      11.673  26.796   7.277  0.00  0.00     0.273 A 
ATOM     10  H1  SHI d   1      11.515  26.925   9.361  0.00  0.00     0.198 HD
ATOM     11  O31 SHI d   1      11.994  27.986   7.025  0.00  0.00    -0.266 OA
ENDBRANCH   1   4
BRANCH   1  12
ATOM     12  C42 SHI d   1      10.231  26.252   4.126  0.00  0.00     0.186 C 
ATOM     13  H5  SHI d   1       9.864  27.187   4.575  0.00  0.00     0.101 H 
BRANCH  12  14
ATOM     14  N1  SHI d   1       9.176  25.197   4.325  0.00  0.00    -0.065 N 
ATOM     15  H6  SHI d   1       8.326  25.480   3.863  0.00  0.00     0.275 HD
ATOM     16  H7  SHI d   1       8.999  25.080   5.311  0.00  0.00     0.275 HD
ATOM     17  H8  SHI d   1       9.496  24.324   3.935  0.00  0.00     0.275 HD
ENDBRANCH  12  14
BRANCH  12  18
ATOM     18  C43 SHI d   1      10.562  26.523   2.611  0.00  0.00     0.204 C 
ATOM     19  O41 SHI d   1       9.885  25.863   1.763  0.00  0.00    -0.646 OA
ATOM     20  O42 SHI d   1      11.450  27.379   2.320  0.00  0.00    -0.646 OA
ENDBRANCH  12  18
ENDBRANCH   1  12
TORSDOF 4
