REMARK  8 active torsions:
REMARK  status: ('A' for Active; 'I' for Inactive)
REMARK    1  A    between atoms: O1_1  and  C1_2 
REMARK    2  A    between atoms: C1_2  and  C2_3 
REMARK    3  A    between atoms: C2_3  and  O2_4 
REMARK    4  A    between atoms: C3_5  and  O3_6 
REMARK    5  A    between atoms: C4_7  and  O4_8 
REMARK    6  A    between atoms: C5_9  and  C6_11 
REMARK    7  A    between atoms: C6_11  and  O6_12 
REMARK    8  A    between atoms: O6_12  and  P_13 
ROOT
ATOM      1  C2  F6P d   1     -25.571  15.632  98.380  0.00  0.00     0.213 C 
ATOM      2  C3  F6P d   1     -26.612  15.157  99.398  0.00  0.00     0.118 C 
ATOM      3  C4  F6P d   1     -25.802  14.400 100.466  0.00  0.00     0.092 C 
ATOM      4  C5  F6P d   1     -24.385  14.953 100.279  0.00  0.00     0.090 C 
ATOM      5  O5  F6P d   1     -24.443  15.869  99.177  0.00  0.00    -0.341 OA
ATOM      6  H5  F6P d   1     -27.064  16.040  99.874  0.00  0.00     0.095 H 
ATOM      7  H7  F6P d   1     -25.791  13.334 100.194  0.00  0.00     0.091 H 
ATOM      8  H9  F6P d   1     -24.090  15.492 101.191  0.00  0.00     0.090 H 
ENDROOT
BRANCH   4   9
ATOM      9  C6  F6P d   1     -23.386  13.914 100.018  0.00  0.00     0.059 C 
ATOM     10  H10 F6P d   1     -23.876  13.002  99.646  0.00  0.00     0.079 H 
ATOM     11  H11 F6P d   1     -22.831  13.682 100.939  0.00  0.00     0.079 H 
BRANCH   9  12
ATOM     12  O6  F6P d   1     -22.465  14.453  98.990  0.00  0.00    -0.280 OA
BRANCH  12  13
ATOM     13  P   F6P d   1     -20.883  14.448  99.129  0.00  0.00     0.422 P 
ATOM     14  O1P F6P d   1     -20.450  15.228 100.332  0.00  0.00    -0.617 OA
ATOM     15  O2P F6P d   1     -20.337  13.044  99.167  0.00  0.00    -0.617 OA
ATOM     16  O3P F6P d   1     -20.314  15.061  97.897  0.00  0.00    -0.617 OA
ENDBRANCH  12  13
ENDBRANCH   9  12
ENDBRANCH   4   9
BRANCH   3  17
ATOM     17  O4  F6P d   1     -26.320  14.452 101.798  0.00  0.00    -0.390 OA
ATOM     18  H8  F6P d   1     -27.192  14.077 101.812  0.00  0.00     0.210 HD
ENDBRANCH   3  17
BRANCH   2  19
ATOM     19  O3  F6P d   1     -27.658  14.440  98.822  0.00  0.00    -0.387 OA
ATOM     20  H6  F6P d   1     -27.311  13.671  98.386  0.00  0.00     0.210 HD
ENDBRANCH   2  19
BRANCH   1  21
ATOM     21  C1  F6P d   1     -26.087  16.931  97.730  0.00  0.00     0.071 C 
ATOM     22  H2  F6P d   1     -25.326  17.327  97.041  0.00  0.00     0.082 H 
ATOM     23  H3  F6P d   1     -27.012  16.723  97.173  0.00  0.00     0.082 H 
BRANCH  21  24
ATOM     24  O1  F6P d   1     -26.346  17.874  98.739  0.00  0.00    -0.395 OA
ATOM     25  H1  F6P d   1     -27.003  17.529  99.333  0.00  0.00     0.209 HD
ENDBRANCH  21  24
ENDBRANCH   1  21
BRANCH   1  26
ATOM     26  O2  F6P d   1     -25.262  14.626  97.405  0.00  0.00    -0.362 OA
ATOM     27  H4  F6P d   1     -25.011  13.824  97.848  0.00  0.00     0.213 HD
ENDBRANCH   1  26
TORSDOF 8
