REMARK  20 active torsions:
REMARK  status: ('A' for Active; 'I' for Inactive)
REMARK    1  A    between atoms: C10_13  and  N1_3 
REMARK    2  A    between atoms: C29_37  and  C4_6 
REMARK    3  A    between atoms: C11_14  and  C10_13 
REMARK    4  A    between atoms: C10_13  and  C13_17 
REMARK       I    between atoms: N3_15  and  C11_14 
REMARK    5  A    between atoms: C12_16  and  N3_15 
REMARK    6  A    between atoms: C12_16  and  C22_27 
REMARK    7  A    between atoms: C23_28  and  C12_16 
REMARK    8  A    between atoms: C13_17  and  C14_18 
REMARK    9  A    between atoms: C13_17  and  C15_19 
REMARK   10  A    between atoms: C22_27  and  C20_25 
REMARK   11  A    between atoms: C24_29  and  C23_28 
REMARK   12  A    between atoms: C25_30  and  C24_29 
REMARK   13  A    between atoms: C24_29  and  O4_36 
REMARK   14  A    between atoms: C25_30  and  N4_31 
REMARK   15  A    between atoms: C25_30  and  C29_37 
REMARK       I    between atoms: N4_31  and  C26_32 
REMARK   16  A    between atoms: C26_32  and  C27_33 
REMARK   17  A    between atoms: C27_33  and  O3_34 
REMARK   18  A    between atoms: O3_34  and  C28_35 
REMARK   19  A    between atoms: C30_39  and  C36_45 
REMARK   20  A    between atoms: C34_43  and  C35_44 
ROOT
ATOM      1  C23 AB1 d   1     -11.287  16.960  27.981  0.00  0.00    -0.020 C 
ATOM      2  H28 AB1 d   1     -12.200  17.507  28.259  0.00  0.00     0.040 H 
ATOM      3  H29 AB1 d   1     -11.342  16.670  26.921  0.00  0.00     0.040 H 
ENDROOT
BRANCH   1   4
ATOM      4  C12 AB1 d   1     -11.283  15.652  28.802  0.00  0.00     0.018 C 
ATOM      5  H13 AB1 d   1     -10.415  15.039  28.517  0.00  0.00     0.073 H 
BRANCH   4   6
ATOM      6  N3  AB1 d   1     -11.218  15.924  30.255  0.00  0.00    -0.354 N 
ATOM      7  C11 AB1 d   1     -10.356  15.313  31.126  0.00  0.00     0.241 C 
ATOM      8  O2  AB1 d   1      -9.523  14.456  30.826  0.00  0.00    -0.271 OA
ATOM      9  H12 AB1 d   1     -11.850  16.604  30.628  0.00  0.00     0.162 HD
BRANCH   7  10
ATOM     10  C10 AB1 d   1     -10.526  15.812  32.587  0.00  0.00     0.096 C 
ATOM     11  H11 AB1 d   1     -11.109  16.744  32.560  0.00  0.00     0.088 H 
BRANCH  10  12
ATOM     12  N1  AB1 d   1     -11.312  14.795  33.369  0.00  0.00    -0.320 N 
ATOM     13  C2  AB1 d   1     -10.695  13.456  33.693  0.00  0.00     0.002 C 
ATOM     14  C37 AB1 d   1     -11.296  12.774  34.940  0.00  0.00    -0.035 C 
ATOM     15  H3  AB1 d   1      -9.618  13.603  33.864  0.00  0.00     0.064 H 
ATOM     16  H4  AB1 d   1     -10.841  12.790  32.830  0.00  0.00     0.064 H 
ATOM     17  C1  AB1 d   1     -12.826  12.835  34.863  0.00  0.00    -0.002 C 
ATOM     18  H47 AB1 d   1     -10.972  11.724  34.977  0.00  0.00     0.037 H 
ATOM     19  H48 AB1 d   1     -10.953  13.296  35.846  0.00  0.00     0.037 H 
ATOM     20  N2  AB1 d   1     -13.303  14.178  34.478  0.00  0.00    -0.343 N 
ATOM     21  H1  AB1 d   1     -13.174  12.106  34.116  0.00  0.00     0.064 H 
ATOM     22  H2  AB1 d   1     -13.242  12.578  35.848  0.00  0.00     0.064 H 
ATOM     23  C3  AB1 d   1     -12.602  15.111  33.773  0.00  0.00     0.319 C 
ATOM     24  H5  AB1 d   1     -14.229  14.427  34.761  0.00  0.00     0.164 HD
ATOM     25  O1  AB1 d   1     -13.116  16.186  33.516  0.00  0.00    -0.247 OA
ENDBRANCH  10  12
BRANCH  10  26
ATOM     26  C13 AB1 d   1      -9.141  16.141  33.272  0.00  0.00    -0.033 C 
ATOM     27  H14 AB1 d   1      -8.561  15.207  33.310  0.00  0.00     0.042 H 
BRANCH  26  28
ATOM     28  C14 AB1 d   1      -8.309  17.186  32.504  0.00  0.00    -0.071 C 
ATOM     29  H15 AB1 d   1      -7.363  17.364  33.036  0.00  0.00     0.028 H 
ATOM     30  H16 AB1 d   1      -8.875  18.127  32.436  0.00  0.00     0.028 H 
ATOM     31  H17 AB1 d   1      -8.095  16.813  31.492  0.00  0.00     0.028 H 
ENDBRANCH  26  28
BRANCH  26  32
ATOM     32  C15 AB1 d   1      -9.349  16.648  34.718  0.00  0.00    -0.071 C 
ATOM     33  H18 AB1 d   1      -9.942  15.913  35.282  0.00  0.00     0.028 H 
ATOM     34  H19 AB1 d   1      -9.882  17.610  34.696  0.00  0.00     0.028 H 
ATOM     35  H20 AB1 d   1      -8.371  16.781  35.204  0.00  0.00     0.028 H 
ENDBRANCH  26  32
ENDBRANCH  10  26
ENDBRANCH   7  10
ENDBRANCH   4   6
BRANCH   4  36
ATOM     36  C22 AB1 d   1     -12.591  14.910  28.442  0.00  0.00    -0.022 C 
ATOM     37  H26 AB1 d   1     -12.579  14.732  27.357  0.00  0.00     0.043 H 
ATOM     38  H27 AB1 d   1     -13.427  15.578  28.695  0.00  0.00     0.043 H 
BRANCH  36  39
ATOM     39  C20 AB1 d   1     -12.855  13.590  29.109  0.00  0.00    -0.056 A 
ATOM     40  C19 AB1 d   1     -13.519  13.542  30.365  0.00  0.00    -0.077 A 
ATOM     41  C18 AB1 d   1     -13.773  12.306  31.002  0.00  0.00    -0.082 A 
ATOM     42  H24 AB1 d   1     -13.834  14.464  30.840  0.00  0.00     0.084 H 
ATOM     43  C17 AB1 d   1     -13.365  11.100  30.386  0.00  0.00    -0.083 A 
ATOM     44  H23 AB1 d   1     -14.279  12.283  31.960  0.00  0.00     0.083 H 
ATOM     45  C16 AB1 d   1     -12.704  11.139  29.135  0.00  0.00    -0.082 A 
ATOM     46  H22 AB1 d   1     -13.558  10.149  30.870  0.00  0.00     0.083 H 
ATOM     47  C21 AB1 d   1     -12.451  12.379  28.501  0.00  0.00    -0.077 A 
ATOM     48  H21 AB1 d   1     -12.390  10.216  28.661  0.00  0.00     0.083 H 
ATOM     49  H25 AB1 d   1     -11.944  12.400  27.543  0.00  0.00     0.084 H 
ENDBRANCH  36  39
ENDBRANCH   4  36
ENDBRANCH   1   4
BRANCH   1  50
ATOM     50  C24 AB1 d   1     -10.116  17.951  28.112  0.00  0.00     0.057 C 
ATOM     51  H30 AB1 d   1     -10.061  18.284  29.159  0.00  0.00     0.086 H 
BRANCH  50  52
ATOM     52  C25 AB1 d   1      -8.712  17.443  27.695  0.00  0.00     0.041 C 
ATOM     53  H31 AB1 d   1      -8.451  16.554  28.288  0.00  0.00     0.076 H 
BRANCH  52  54
ATOM     54  N4  AB1 d   1      -8.753  17.097  26.255  0.00  0.00    -0.352 N 
ATOM     55  C26 AB1 d   1      -8.266  15.927  25.732  0.00  0.00     0.242 C 
ATOM     56  O5  AB1 d   1      -7.742  15.021  26.389  0.00  0.00    -0.271 OA
ATOM     57  H32 AB1 d   1      -9.161  17.758  25.625  0.00  0.00     0.163 HD
BRANCH  55  58
ATOM     58  C27 AB1 d   1      -8.399  15.807  24.201  0.00  0.00     0.099 C 
ATOM     59  H33 AB1 d   1      -9.197  15.086  23.969  0.00  0.00     0.089 H 
ATOM     60  H34 AB1 d   1      -7.446  15.445  23.788  0.00  0.00     0.089 H 
BRANCH  58  61
ATOM     61  O3  AB1 d   1      -8.721  17.070  23.590  0.00  0.00    -0.341 OA
BRANCH  61  62
ATOM     62  C28 AB1 d   1      -8.297  17.183  22.252  0.00  0.00     0.081 A 
ATOM     63  C30 AB1 d   1      -9.067  16.640  21.165  0.00  0.00    -0.028 A 
ATOM     64  C31 AB1 d   1      -8.587  16.788  19.836  0.00  0.00    -0.074 A 
ATOM     65  C32 AB1 d   1      -7.374  17.459  19.574  0.00  0.00    -0.082 A 
ATOM     66  H38 AB1 d   1      -9.161  16.380  19.012  0.00  0.00     0.084 H 
ATOM     67  C33 AB1 d   1      -6.614  17.997  20.632  0.00  0.00    -0.074 A 
ATOM     68  H39 AB1 d   1      -7.024  17.561  18.553  0.00  0.00     0.083 H 
ATOM     69  C34 AB1 d   1      -7.061  17.868  21.969  0.00  0.00    -0.028 A 
ATOM     70  H40 AB1 d   1      -5.684  18.512  20.421  0.00  0.00     0.084 H 
BRANCH  63  71
ATOM     71  C36 AB1 d   1     -10.374  15.915  21.383  0.00  0.00    -0.049 C 
ATOM     72  H44 AB1 d   1     -10.602  15.886  22.459  0.00  0.00     0.033 H 
ATOM     73  H45 AB1 d   1     -10.292  14.888  20.998  0.00  0.00     0.033 H 
ATOM     74  H46 AB1 d   1     -11.179  16.443  20.851  0.00  0.00     0.033 H 
ENDBRANCH  63  71
BRANCH  69  75
ATOM     75  C35 AB1 d   1      -6.234  18.451  23.064  0.00  0.00    -0.049 C 
ATOM     76  H41 AB1 d   1      -6.722  18.263  24.032  0.00  0.00     0.033 H 
ATOM     77  H42 AB1 d   1      -6.133  19.535  22.909  0.00  0.00     0.033 H 
ATOM     78  H43 AB1 d   1      -5.238  17.985  23.059  0.00  0.00     0.033 H 
ENDBRANCH  69  75
ENDBRANCH  61  62
ENDBRANCH  58  61
ENDBRANCH  55  58
ENDBRANCH  52  54
BRANCH  52  79
ATOM     79  C29 AB1 d   1      -7.637  18.548  27.916  0.00  0.00    -0.020 C 
ATOM     80  H36 AB1 d   1      -7.923  19.428  27.321  0.00  0.00     0.043 H 
ATOM     81  H37 AB1 d   1      -7.632  18.813  28.984  0.00  0.00     0.043 H 
BRANCH  79  82
ATOM     82  C4  AB1 d   1      -6.228  18.149  27.522  0.00  0.00    -0.056 A 
ATOM     83  C5  AB1 d   1      -5.533  18.892  26.537  0.00  0.00    -0.077 A 
ATOM     84  C6  AB1 d   1      -4.218  18.535  26.149  0.00  0.00    -0.082 A 
ATOM     85  H6  AB1 d   1      -6.014  19.746  26.073  0.00  0.00     0.084 H 
ATOM     86  C7  AB1 d   1      -3.583  17.429  26.745  0.00  0.00    -0.083 A 
ATOM     87  H7  AB1 d   1      -3.700  19.114  25.393  0.00  0.00     0.083 H 
ATOM     88  C8  AB1 d   1      -4.266  16.681  27.729  0.00  0.00    -0.082 A 
ATOM     89  H8  AB1 d   1      -2.577  17.153  26.451  0.00  0.00     0.083 H 
ATOM     90  C9  AB1 d   1      -5.579  17.037  28.116  0.00  0.00    -0.077 A 
ATOM     91  H9  AB1 d   1      -3.781  15.829  28.191  0.00  0.00     0.083 H 
ATOM     92  H10 AB1 d   1      -6.093  16.455  28.872  0.00  0.00     0.084 H 
ENDBRANCH  79  82
ENDBRANCH  52  79
ENDBRANCH  50  52
BRANCH  50  93
ATOM     93  O4  AB1 d   1     -10.433  19.034  27.271  0.00  0.00    -0.393 OA
ATOM     94  H35 AB1 d   1     -11.291  19.371  27.500  0.00  0.00     0.210 HD
ENDBRANCH  50  93
ENDBRANCH   1  50
TORSDOF 20
