REMARK WARNING: 32 MAX_TORS EXCEEDED!!!
REMARK  54 active torsions:
REMARK  status: ('A' for Active; 'I' for Inactive)
REMARK    1  A    between atoms: CA_2  and  N_1 
REMARK    2  A    between atoms: CA_2  and  CB_5 
REMARK    3  A    between atoms: C_3  and  CA_2 
REMARK       I    between atoms: N_20  and  C_3 
REMARK    4  A    between atoms: CB_5  and  CG_6 
REMARK    5  A    between atoms: CG_6  and  CD1_7 
REMARK    6  A    between atoms: CG_6  and  CD2_8 
REMARK    7  A    between atoms: CA_21  and  N_20 
REMARK    8  A    between atoms: CA_21  and  CB_24 
REMARK    9  A    between atoms: C_22  and  CA_21 
REMARK       I    between atoms: N_39  and  C_22 
REMARK   10  A    between atoms: CB_24  and  CG_25 
REMARK   11  A    between atoms: CG_25  and  CD1_26 
REMARK   12  A    between atoms: CG_25  and  CD2_27 
REMARK   13  A    between atoms: C_41  and  CA_40 
REMARK       I    between atoms: N_53  and  C_41 
REMARK   14  A    between atoms: CA_54  and  N_53 
REMARK   15  A    between atoms: CA_54  and  CB_57 
REMARK   16  A    between atoms: C_55  and  CA_54 
REMARK       I    between atoms: N_67  and  C_55 
REMARK   17  A    between atoms: CB_57  and  CG2_59 
REMARK   18  A    between atoms: CB_57  and  OG1_58 
REMARK   19  A    between atoms: C_69  and  CA_68 
REMARK       I    between atoms: N_81  and  C_69 
REMARK   20  A    between atoms: C_83  and  CA_82 
REMARK       I    between atoms: N_95  and  C_83 
REMARK   21  A    between atoms: CA_96  and  N_95 
REMARK   22  A    between atoms: CA_96  and  CB_99 
REMARK   23  A    between atoms: C_97  and  CA_96 
REMARK       I    between atoms: N_114  and  C_97 
REMARK   24  A    between atoms: CB_99  and  CG_100 
REMARK   25  A    between atoms: CG_100  and  CD1_101 
REMARK   26  A    between atoms: CG_100  and  CD2_102 
REMARK   27  A    between atoms: CA_115  and  N_114 
REMARK   28  A    between atoms: CA_115  and  CB_118 
REMARK   29  A    between atoms: C_116  and  CA_115 
REMARK       I    between atoms: N_125  and  C_116 
REMARK   30  A    between atoms: CB_118  and  OG_119 
REMARK   31  A    between atoms: C_127  and  CA_126 
REMARK       I    between atoms: N_139  and  C_127 
REMARK   32  A    between atoms: CA_140  and  N_139 
REMARK   33  A    between atoms: CA_140  and  CB_143 
REMARK   34  A    between atoms: C_141  and  CA_140 
REMARK       I    between atoms: N_150  and  C_141 
REMARK   35  A    between atoms: CB_143  and  OG_144 
REMARK   36  A    between atoms: CA_151  and  N_150 
REMARK   37  A    between atoms: CA_151  and  CB_154 
REMARK   38  A    between atoms: C_152  and  CA_151 
REMARK       I    between atoms: N_174  and  C_152 
REMARK   39  A    between atoms: CB_154  and  CG_155 
REMARK   40  A    between atoms: CG_155  and  CD_156 
REMARK   41  A    between atoms: CD_156  and  NE_157 
REMARK       I    between atoms: NE_157  and  CZ_158 
REMARK       I    between atoms: CZ_158  and  NH2_160 
REMARK       I    between atoms: CZ_158  and  NH1_159 
REMARK   42  A    between atoms: CA_175  and  N_174 
REMARK   43  A    between atoms: CA_175  and  CB_178 
REMARK   44  A    between atoms: C_176  and  CA_175 
REMARK       I    between atoms: N_198  and  C_176 
REMARK   45  A    between atoms: CB_178  and  CG_179 
REMARK   46  A    between atoms: CG_179  and  CD_180 
REMARK   47  A    between atoms: CD_180  and  NE_181 
REMARK       I    between atoms: NE_181  and  CZ_182 
REMARK       I    between atoms: CZ_182  and  NH1_183 
REMARK   48  A    between atoms: CA_199  and  N_198 
REMARK   49  A    between atoms: CA_199  and  CB_202 
REMARK   50  A    between atoms: C_200  and  CA_199 
REMARK       I    between atoms: C_200  and  N_209 
REMARK   51  A    between atoms: CB_202  and  OG_203 
REMARK   52  A    between atoms: N_209  and  CA_210 
REMARK   53  A    between atoms: CA_210  and  C_211 
REMARK   54  A    between atoms: C_211  and  O1_216 
ROOT
ATOM      1  CA  LEU d   1       2.534  -9.584 -16.850  0.00  0.00     0.089 C 
ATOM      2  H54 LEU d   1       1.637  -9.006 -16.585  0.00  0.00     0.087 H 
ENDROOT
BRANCH   1   3
ATOM      3  N   LEU d   1       3.518  -9.404 -15.796  0.00  0.00    -0.346 N 
ATOM      4  H53 LEU d   1       4.424  -9.047 -16.024  0.00  0.00     0.163 HD
ATOM      5  C   PRO d   1       3.233  -9.706 -14.538  0.00  0.00     0.241 C 
ATOM      6  O   PRO d   1       2.152 -10.151 -14.156  0.00  0.00    -0.271 OA
BRANCH   5   7
ATOM      7  CA  PRO d   1       4.369  -9.464 -13.542  0.00  0.00     0.091 C 
ATOM      8  CB  PRO d   1       5.397 -10.583 -13.529  0.00  0.00    -0.036 C 
ATOM      9  CG  PRO d   1       5.097 -11.410 -12.289  0.00  0.00    -0.048 C 
ATOM     10  H47 PRO d   1       6.414 -10.168 -13.475  0.00  0.00     0.036 H 
ATOM     11  H48 PRO d   1       5.301 -11.201 -14.434  0.00  0.00     0.036 H 
ATOM     12  CD  PRO d   1       4.156 -10.605 -11.408  0.00  0.00    -0.001 C 
ATOM     13  H49 PRO d   1       4.619 -12.358 -12.578  0.00  0.00     0.035 H 
ATOM     14  H50 PRO d   1       6.030 -11.620 -11.745  0.00  0.00     0.035 H 
ATOM     15  N   PRO d   1       3.863  -9.401 -12.181  0.00  0.00    -0.337 N 
ATOM     16  H51 PRO d   1       3.234 -11.171 -11.207  0.00  0.00     0.064 H 
ATOM     17  H52 PRO d   1       4.643 -10.346 -10.456  0.00  0.00     0.064 H 
ATOM     18  C   PRO d   1       3.194  -8.306 -11.732  0.00  0.00     0.243 C 
ATOM     19  O   PRO d   1       2.963  -7.305 -12.408  0.00  0.00    -0.271 OA
ATOM     20  H46 PRO d   1       4.862  -8.516 -13.803  0.00  0.00     0.087 H 
BRANCH  18  21
ATOM     21  CA  PRO d   1       2.722  -8.387 -10.279  0.00  0.00     0.092 C 
ATOM     22  CB  PRO d   1       1.586  -9.376 -10.078  0.00  0.00    -0.036 C 
ATOM     23  CG  PRO d   1       0.321  -8.540  -9.964  0.00  0.00    -0.048 C 
ATOM     24  H40 PRO d   1       1.744  -9.958  -9.158  0.00  0.00     0.036 H 
ATOM     25  H41 PRO d   1       1.517 -10.059 -10.937  0.00  0.00     0.036 H 
ATOM     26  CD  PRO d   1       0.736  -7.094  -9.746  0.00  0.00    -0.001 C 
ATOM     27  H42 PRO d   1      -0.268  -8.625 -10.889  0.00  0.00     0.035 H 
ATOM     28  H43 PRO d   1      -0.282  -8.888  -9.113  0.00  0.00     0.035 H 
ATOM     29  N   PRO d   1       2.193  -7.110  -9.831  0.00  0.00    -0.337 N 
ATOM     30  H44 PRO d   1       0.309  -6.446 -10.526  0.00  0.00     0.064 H 
ATOM     31  H45 PRO d   1       0.409  -6.742  -8.757  0.00  0.00     0.064 H 
ATOM     32  C   THR d   1       3.022  -6.073  -9.536  0.00  0.00     0.245 C 
ATOM     33  O   THR d   1       4.249  -6.117  -9.616  0.00  0.00    -0.271 OA
ATOM     34  H39 PRO d   1       3.578  -8.678  -9.653  0.00  0.00     0.087 H 
BRANCH  32  35
ATOM     35  CA  THR d   1       2.319  -4.793  -9.079  0.00  0.00     0.114 C 
ATOM     36  H33 THR d   1       1.279  -5.051  -8.829  0.00  0.00     0.091 H 
BRANCH  35  37
ATOM     37  N   THR d   1       2.968  -4.254  -7.896  0.00  0.00    -0.344 N 
ATOM     38  H32 THR d   1       3.457  -3.384  -7.956  0.00  0.00     0.163 HD
ATOM     39  C   PRO d   1       2.921  -4.899  -6.739  0.00  0.00     0.241 C 
ATOM     40  O   PRO d   1       2.349  -5.973  -6.562  0.00  0.00    -0.271 OA
BRANCH  39  41
ATOM     41  CA  PRO d   1       3.648  -4.207  -5.584  0.00  0.00     0.091 C 
ATOM     42  CB  PRO d   1       4.839  -5.000  -5.071  0.00  0.00    -0.036 C 
ATOM     43  CG  PRO d   1       4.376  -5.662  -3.784  0.00  0.00    -0.048 C 
ATOM     44  H26 PRO d   1       5.688  -4.330  -4.872  0.00  0.00     0.036 H 
ATOM     45  H27 PRO d   1       5.137  -5.761  -5.807  0.00  0.00     0.036 H 
ATOM     46  CD  PRO d   1       3.076  -4.998  -3.360  0.00  0.00    -0.001 C 
ATOM     47  H28 PRO d   1       4.209  -6.736  -3.955  0.00  0.00     0.035 H 
ATOM     48  H29 PRO d   1       5.137  -5.529  -3.001  0.00  0.00     0.035 H 
ATOM     49  N   PRO d   1       2.773  -4.057  -4.433  0.00  0.00    -0.337 N 
ATOM     50  H30 PRO d   1       2.274  -5.744  -3.260  0.00  0.00     0.064 H 
ATOM     51  H31 PRO d   1       3.205  -4.468  -2.405  0.00  0.00     0.064 H 
ATOM     52  C   LEU d   1       1.790  -3.117  -4.419  0.00  0.00     0.243 C 
ATOM     53  O   LEU d   1       1.559  -2.337  -5.341  0.00  0.00    -0.271 OA
ATOM     54  H25 PRO d   1       3.986  -3.219  -5.930  0.00  0.00     0.087 H 
BRANCH  52  55
ATOM     55  CA  LEU d   1       0.951  -3.079  -3.140  0.00  0.00     0.090 C 
ATOM     56  H15 LEU d   1       1.380  -3.811  -2.440  0.00  0.00     0.087 H 
BRANCH  55  57
ATOM     57  N   LEU d   1       1.053  -1.760  -2.538  0.00  0.00    -0.346 N 
ATOM     58  H14 LEU d   1       0.315  -1.099  -2.672  0.00  0.00     0.163 HD
ATOM     59  C   LEU d   1       2.109  -1.420  -1.814  0.00  0.00     0.249 C 
ATOM     60  O   LEU d   1       3.068  -2.158  -1.591  0.00  0.00    -0.271 OA
BRANCH  59  61
ATOM     61  CA  LEU d   1       2.073   0.000  -1.245  0.00  0.00     0.176 C 
ATOM     62  H4  LEU d   1       1.538   0.634  -1.968  0.00  0.00     0.099 H 
BRANCH  61  63
ATOM     63  N   LEU d   1       1.325   0.000   0.000  0.00  0.00    -0.066 N 
ATOM     64  H1  LEU d   1       1.300   0.935   0.377  0.00  0.00     0.275 HD
ATOM     65  H2  LEU d   1       1.772  -0.617   0.660  0.00  0.00     0.275 HD
ATOM     66  H3  LEU d   1       0.384  -0.318  -0.173  0.00  0.00     0.275 HD
ENDBRANCH  61  63
BRANCH  61  67
ATOM     67  CB  LEU d   1       3.459   0.614  -1.038  0.00  0.00    -0.028 C 
ATOM     68  H5  LEU d   1       4.137   0.175  -1.785  0.00  0.00     0.037 H 
ATOM     69  H6  LEU d   1       3.800   0.342  -0.029  0.00  0.00     0.037 H 
BRANCH  67  70
ATOM     70  CG  LEU d   1       3.544   2.137  -1.166  0.00  0.00    -0.059 C 
ATOM     71  H7  LEU d   1       2.679   2.565  -0.638  0.00  0.00     0.038 H 
BRANCH  70  72
ATOM     72  CD1 LEU d   1       4.806   2.674  -0.489  0.00  0.00    -0.073 C 
ATOM     73  H8  LEU d   1       4.842   3.768  -0.596  0.00  0.00     0.028 H 
ATOM     74  H9  LEU d   1       5.694   2.230  -0.963  0.00  0.00     0.028 H 
ATOM     75  H10 LEU d   1       4.790   2.410   0.579  0.00  0.00     0.028 H 
ENDBRANCH  70  72
BRANCH  70  76
ATOM     76  CD2 LEU d   1       3.449   2.570  -2.630  0.00  0.00    -0.073 C 
ATOM     77  H11 LEU d   1       2.529   2.162  -3.074  0.00  0.00     0.028 H 
ATOM     78  H12 LEU d   1       4.322   2.191  -3.182  0.00  0.00     0.028 H 
ATOM     79  H13 LEU d   1       3.428   3.668  -2.687  0.00  0.00     0.028 H 
ENDBRANCH  70  76
ENDBRANCH  67  70
ENDBRANCH  61  67
ENDBRANCH  59  61
ENDBRANCH  55  57
BRANCH  55  80
ATOM     80  CB  LEU d   1      -0.515  -3.458  -3.355  0.00  0.00    -0.035 C 
ATOM     81  H16 LEU d   1      -0.539  -4.396  -3.930  0.00  0.00     0.037 H 
ATOM     82  H17 LEU d   1      -0.987  -2.656  -3.941  0.00  0.00     0.037 H 
BRANCH  80  83
ATOM     83  CG  LEU d   1      -1.348  -3.664  -2.088  0.00  0.00    -0.059 C 
ATOM     84  H18 LEU d   1      -1.026  -4.609  -1.626  0.00  0.00     0.038 H 
BRANCH  83  85
ATOM     85  CD1 LEU d   1      -1.090  -2.546  -1.075  0.00  0.00    -0.073 C 
ATOM     86  H19 LEU d   1      -1.700  -2.718  -0.176  0.00  0.00     0.028 H 
ATOM     87  H20 LEU d   1      -1.360  -1.577  -1.521  0.00  0.00     0.028 H 
ATOM     88  H21 LEU d   1      -0.025  -2.539  -0.800  0.00  0.00     0.028 H 
ENDBRANCH  83  85
BRANCH  83  89
ATOM     89  CD2 LEU d   1      -2.834  -3.801  -2.424  0.00  0.00    -0.073 C 
ATOM     90  H22 LEU d   1      -2.972  -4.613  -3.153  0.00  0.00     0.028 H 
ATOM     91  H23 LEU d   1      -3.201  -2.857  -2.853  0.00  0.00     0.028 H 
ATOM     92  H24 LEU d   1      -3.397  -4.031  -1.508  0.00  0.00     0.028 H 
ENDBRANCH  83  89
ENDBRANCH  80  83
ENDBRANCH  55  80
ENDBRANCH  52  55
ENDBRANCH  39  41
ENDBRANCH  35  37
BRANCH  35  93
ATOM     93  CB  THR d   1       2.298  -3.698 -10.147  0.00  0.00     0.060 C 
ATOM     94  H34 THR d   1       1.805  -2.787  -9.776  0.00  0.00     0.086 H 
BRANCH  93  95
ATOM     95  CG2 THR d   1       3.691  -3.391 -10.699  0.00  0.00    -0.050 C 
ATOM     96  H36 THR d   1       3.618  -2.600 -11.460  0.00  0.00     0.031 H 
ATOM     97  H37 THR d   1       4.114  -4.299 -11.154  0.00  0.00     0.031 H 
ATOM     98  H38 THR d   1       4.343  -3.053  -9.880  0.00  0.00     0.031 H 
ENDBRANCH  93  95
BRANCH  93  99
ATOM     99  OG1 THR d   1       1.613  -4.296 -11.244  0.00  0.00    -0.393 OA
ATOM    100  H35 THR d   1       2.073  -5.083 -11.512  0.00  0.00     0.210 HD
ENDBRANCH  93  99
ENDBRANCH  35  93
ENDBRANCH  32  35
ENDBRANCH  18  21
ENDBRANCH   5   7
ENDBRANCH   1   3
BRANCH   1 101
ATOM    101  CB  LEU d   1       3.060  -9.028 -18.175  0.00  0.00    -0.035 C 
ATOM    102  H55 LEU d   1       3.110  -9.860 -18.893  0.00  0.00     0.037 H 
ATOM    103  H56 LEU d   1       4.072  -8.636 -17.997  0.00  0.00     0.037 H 
BRANCH 101 104
ATOM    104  CG  LEU d   1       2.230  -7.911 -18.811  0.00  0.00    -0.059 C 
ATOM    105  H57 LEU d   1       1.793  -7.315 -17.997  0.00  0.00     0.038 H 
BRANCH 104 106
ATOM    106  CD1 LEU d   1       3.112  -6.977 -19.641  0.00  0.00    -0.073 C 
ATOM    107  H58 LEU d   1       2.491  -6.185 -20.086  0.00  0.00     0.028 H 
ATOM    108  H59 LEU d   1       3.603  -7.551 -20.441  0.00  0.00     0.028 H 
ATOM    109  H60 LEU d   1       3.877  -6.523 -18.993  0.00  0.00     0.028 H 
ENDBRANCH 104 106
BRANCH 104 110
ATOM    110  CD2 LEU d   1       1.073  -8.487 -19.631  0.00  0.00    -0.073 C 
ATOM    111  H61 LEU d   1       0.468  -9.150 -18.995  0.00  0.00     0.028 H 
ATOM    112  H62 LEU d   1       1.475  -9.059 -20.480  0.00  0.00     0.028 H 
ATOM    113  H63 LEU d   1       0.445  -7.666 -20.006  0.00  0.00     0.028 H 
ENDBRANCH 104 110
ENDBRANCH 101 104
ENDBRANCH   1 101
BRANCH   1 114
ATOM    114  C   LEU d   1       2.130 -11.058 -16.919  0.00  0.00     0.241 C 
ATOM    115  O   LEU d   1       2.987 -11.938 -16.981  0.00  0.00    -0.271 OA
ATOM    116  N   SER d   1       0.824 -11.282 -16.904  0.00  0.00    -0.344 N 
ATOM    117  H64 SER d   1       0.192 -10.509 -16.851  0.00  0.00     0.163 HD
BRANCH 116 118
ATOM    118  CA  SER d   1       0.296 -12.634 -16.964  0.00  0.00     0.109 C 
ATOM    119  H65 SER d   1       1.054 -13.321 -16.560  0.00  0.00     0.090 H 
BRANCH 118 120
ATOM    120  CB  SER d   1      -0.974 -12.768 -16.121  0.00  0.00     0.044 C 
ATOM    121  H66 SER d   1      -0.796 -12.312 -15.136  0.00  0.00     0.077 H 
ATOM    122  H67 SER d   1      -1.206 -13.836 -15.995  0.00  0.00     0.077 H 
BRANCH 120 123
ATOM    123  OG  SER d   1      -2.090 -12.124 -16.731  0.00  0.00    -0.398 OA
ATOM    124  H68 SER d   1      -2.856 -12.229 -16.179  0.00  0.00     0.209 HD
ENDBRANCH 120 123
ENDBRANCH 118 120
BRANCH 118 125
ATOM    125  C   SER d   1       0.011 -13.021 -18.417  0.00  0.00     0.245 C 
ATOM    126  O   SER d   1      -0.158 -12.153 -19.272  0.00  0.00    -0.271 OA
ATOM    127  N   PRO d   1      -0.033 -14.358 -18.658  0.00  0.00    -0.337 N 
ATOM    128  CA  PRO d   1      -0.295 -14.870 -19.993  0.00  0.00     0.091 C 
ATOM    129  CD  PRO d   1       0.163 -15.415 -17.670  0.00  0.00    -0.001 C 
ATOM    130  CB  PRO d   1       0.164 -16.319 -19.955  0.00  0.00    -0.036 C 
ATOM    131  H69 PRO d   1       0.302 -14.315 -20.731  0.00  0.00     0.087 H 
ATOM    132  CG  PRO d   1       0.231 -16.697 -18.484  0.00  0.00    -0.048 C 
ATOM    133  H70 PRO d   1       1.155 -16.419 -20.421  0.00  0.00     0.036 H 
ATOM    134  H71 PRO d   1      -0.556 -16.962 -20.483  0.00  0.00     0.036 H 
ATOM    135  H72 PRO d   1      -0.617 -17.349 -18.227  0.00  0.00     0.035 H 
ATOM    136  H73 PRO d   1       1.175 -17.223 -18.276  0.00  0.00     0.035 H 
ATOM    137  H74 PRO d   1      -0.680 -15.448 -16.965  0.00  0.00     0.064 H 
ATOM    138  H75 PRO d   1       1.099 -15.258 -17.115  0.00  0.00     0.064 H 
BRANCH 128 139
ATOM    139  C   PRO d   1      -1.773 -14.720 -20.358  0.00  0.00     0.241 C 
ATOM    140  O   PRO d   1      -2.590 -14.353 -19.515  0.00  0.00    -0.271 OA
ATOM    141  N   SER d   1      -2.071 -15.011 -21.615  0.00  0.00    -0.344 N 
ATOM    142  H76 SER d   1      -1.345 -15.302 -22.238  0.00  0.00     0.163 HD
BRANCH 141 143
ATOM    143  CA  SER d   1      -3.437 -14.914 -22.102  0.00  0.00     0.109 C 
ATOM    144  H77 SER d   1      -3.861 -13.959 -21.759  0.00  0.00     0.090 H 
BRANCH 143 145
ATOM    145  CB  SER d   1      -3.480 -14.939 -23.631  0.00  0.00     0.044 C 
ATOM    146  H78 SER d   1      -2.941 -14.061 -24.016  0.00  0.00     0.077 H 
ATOM    147  H79 SER d   1      -4.530 -14.897 -23.957  0.00  0.00     0.077 H 
BRANCH 145 148
ATOM    148  OG  SER d   1      -2.880 -16.117 -24.163  0.00  0.00    -0.398 OA
ATOM    149  H80 SER d   1      -3.344 -16.881 -23.840  0.00  0.00     0.209 HD
ENDBRANCH 145 148
ENDBRANCH 143 145
BRANCH 143 150
ATOM    150  C   SER d   1      -4.280 -16.055 -21.529  0.00  0.00     0.243 C 
ATOM    151  O   SER d   1      -4.348 -17.135 -22.114  0.00  0.00    -0.271 OA
ATOM    152  N   ARG d   1      -4.900 -15.776 -20.392  0.00  0.00    -0.346 N 
ATOM    153  H81 ARG d   1      -4.792 -14.871 -19.981  0.00  0.00     0.163 HD
BRANCH 152 154
ATOM    154  CA  ARG d   1      -5.735 -16.766 -19.733  0.00  0.00     0.089 C 
ATOM    155  H82 ARG d   1      -5.250 -17.749 -19.824  0.00  0.00     0.087 H 
BRANCH 154 156
ATOM    156  CB  ARG d   1      -5.909 -16.439 -18.248  0.00  0.00    -0.036 C 
ATOM    157  H83 ARG d   1      -6.930 -16.706 -17.938  0.00  0.00     0.036 H 
ATOM    158  H84 ARG d   1      -5.749 -15.361 -18.096  0.00  0.00     0.036 H 
BRANCH 156 159
ATOM    159  CG  ARG d   1      -4.907 -17.219 -17.394  0.00  0.00    -0.048 C 
ATOM    160  H85 ARG d   1      -5.142 -18.292 -17.454  0.00  0.00     0.035 H 
ATOM    161  H86 ARG d   1      -4.987 -16.884 -16.349  0.00  0.00     0.035 H 
BRANCH 159 162
ATOM    162  CD  ARG d   1      -3.475 -16.992 -17.883  0.00  0.00     0.009 C 
ATOM    163  H87 ARG d   1      -3.129 -16.002 -17.550  0.00  0.00     0.064 H 
ATOM    164  H88 ARG d   1      -3.454 -17.038 -18.982  0.00  0.00     0.064 H 
BRANCH 162 165
ATOM    165  NE  ARG d   1      -2.581 -18.034 -17.332  0.00  0.00    -0.227 N 
ATOM    166  CZ  ARG d   1      -2.463 -19.269 -17.838  0.00  0.00     0.665 C 
ATOM    167  NH2 ARG d   1      -1.626 -20.149 -17.272  0.00  0.00    -0.235 N 
ATOM    168  NH1 ARG d   1      -3.183 -19.624 -18.911  0.00  0.00    -0.235 N 
ATOM    169  H92 ARG d   1      -1.073 -19.876 -16.447  0.00  0.00     0.174 HD
ATOM    170  H93 ARG d   1      -1.536 -21.098 -17.662  0.00  0.00     0.174 HD
ATOM    171  H90 ARG d   1      -3.093 -20.573 -19.301  0.00  0.00     0.174 HD
ATOM    172  H91 ARG d   1      -3.826 -18.948 -19.346  0.00  0.00     0.174 HD
ATOM    173  H89 ARG d   1      -2.013 -17.795 -16.507  0.00  0.00     0.177 HD
ENDBRANCH 162 165
ENDBRANCH 159 162
ENDBRANCH 156 159
ENDBRANCH 154 156
BRANCH 154 174
ATOM    174  C   ARG d   1      -7.111 -16.829 -20.399  0.00  0.00     0.241 C 
ATOM    175  O   ARG d   1      -8.055 -16.187 -19.942  0.00  0.00    -0.271 OA
ATOM    176  N   ARG d   1      -7.180 -17.608 -21.468  0.00  0.00    -0.346 N 
ATOM    177  H94 ARG d   1      -6.363 -18.097 -21.775  0.00  0.00     0.163 HD
BRANCH 176 178
ATOM    178  CA  ARG d   1      -8.425 -17.763 -22.201  0.00  0.00     0.089 C 
ATOM    179  H95 ARG d   1      -8.928 -16.786 -22.246  0.00  0.00     0.087 H 
BRANCH 178 180
ATOM    180  CB  ARG d   1      -8.167 -18.250 -23.629  0.00  0.00    -0.036 C 
ATOM    181  H96 ARG d   1      -7.765 -17.418 -24.226  0.00  0.00     0.036 H 
ATOM    182  H97 ARG d   1      -9.115 -18.593 -24.069  0.00  0.00     0.036 H 
BRANCH 180 183
ATOM    183  CG  ARG d   1      -7.163 -19.405 -23.641  0.00  0.00    -0.048 C 
ATOM    184  H98 ARG d   1      -7.235 -19.954 -22.691  0.00  0.00     0.035 H 
ATOM    185  H99 ARG d   1      -6.147 -18.998 -23.753  0.00  0.00     0.035 H 
BRANCH 183 186
ATOM    186  CD  ARG d   1      -7.447 -20.366 -24.797  0.00  0.00     0.009 C 
ATOM    187 0H10 ARG d   1      -7.843 -19.799 -25.653  0.00  0.00     0.064 H 
ATOM    188 1H10 ARG d   1      -8.189 -21.112 -24.477  0.00  0.00     0.064 H 
BRANCH 186 189
ATOM    189  NE  ARG d   1      -6.201 -21.056 -25.200  0.00  0.00    -0.227 N 
ATOM    190  CZ  ARG d   1      -5.657 -22.079 -24.528  0.00  0.00     0.665 C 
ATOM    191  NH2 ARG d   1      -4.524 -22.643 -24.968  0.00  0.00    -0.235 N 
ATOM    192  NH1 ARG d   1      -6.246 -22.538 -23.415  0.00  0.00    -0.235 N 
ATOM    193 5H10 ARG d   1      -4.072 -22.290 -25.823  0.00  0.00     0.174 HD
ATOM    194 6H10 ARG d   1      -4.106 -23.429 -24.451  0.00  0.00     0.174 HD
ATOM    195 3H10 ARG d   1      -5.828 -23.325 -22.898  0.00  0.00     0.174 HD
ATOM    196 4H10 ARG d   1      -7.117 -22.104 -23.077  0.00  0.00     0.174 HD
ATOM    197 2H10 ARG d   1      -5.722 -20.729 -26.051  0.00  0.00     0.177 HD
ENDBRANCH 186 189
ENDBRANCH 183 186
ENDBRANCH 180 183
ENDBRANCH 178 180
BRANCH 178 198
ATOM    198  C   ARG d   1      -9.340 -18.760 -21.488  0.00  0.00     0.241 C 
ATOM    199  O   ARG d   1      -9.098 -19.966 -21.523  0.00  0.00    -0.271 OA
ATOM    200  N   SER d   1     -10.373 -18.220 -20.857  0.00  0.00    -0.344 N 
ATOM    201 7H10 SER d   1     -10.498 -17.228 -20.876  0.00  0.00     0.163 HD
BRANCH 200 202
ATOM    202  CA  SER d   1     -11.326 -19.048 -20.138  0.00  0.00     0.109 C 
ATOM    203 8H10 SER d   1     -10.767 -19.776 -19.532  0.00  0.00     0.090 H 
BRANCH 202 204
ATOM    204  CB  SER d   1     -12.191 -18.203 -19.200  0.00  0.00     0.044 C 
ATOM    205 9H10 SER d   1     -12.762 -18.875 -18.542  0.00  0.00     0.077 H 
ATOM    206 0H11 SER d   1     -12.887 -17.602 -19.804  0.00  0.00     0.077 H 
BRANCH 204 207
ATOM    207  OG  SER d   1     -11.407 -17.327 -18.394  0.00  0.00    -0.398 OA
ATOM    208 1H11 SER d   1     -10.915 -16.739 -18.954  0.00  0.00     0.209 HD
ENDBRANCH 204 207
ENDBRANCH 202 204
BRANCH 202 209
ATOM    209  C   SER d   1     -12.207 -19.812 -21.128  0.00  0.00     0.243 C 
ATOM    210  O   SER d   1     -13.295 -19.355 -21.477  0.00  0.00    -0.271 OA
ATOM    211  N   GLY d   1     -11.706 -20.962 -21.552  0.00  0.00    -0.349 N 
ATOM    212 2H11 GLY d   1     -10.813 -21.263 -21.218  0.00  0.00     0.163 HD
BRANCH 211 213
ATOM    213  CA  GLY d   1     -12.434 -21.794 -22.495  0.00  0.00     0.072 C 
ATOM    214 3H11 GLY d   1     -13.503 -21.779 -22.237  0.00  0.00     0.080 H 
ATOM    215 4H11 GLY d   1     -12.056 -22.825 -22.432  0.00  0.00     0.080 H 
BRANCH 213 216
ATOM    216  C   GLY d   1     -12.257 -21.283 -23.926  0.00  0.00     0.158 C 
ATOM    217  O   GLY d   1     -12.272 -22.066 -24.875  0.00  0.00    -0.649 OA
BRANCH 216 218
ATOM    218  O1  GLY d   1     -12.086 -19.983 -24.146  0.00  0.00    -0.775 OA
ATOM    219 5H11 GLY d   1     -12.098 -19.518 -23.317  0.00  0.00     0.167 HD
ENDBRANCH 216 218
ENDBRANCH 213 216
ENDBRANCH 211 213
ENDBRANCH 202 209
ENDBRANCH 200 202
ENDBRANCH 178 198
ENDBRANCH 176 178
ENDBRANCH 154 174
ENDBRANCH 152 154
ENDBRANCH 143 150
ENDBRANCH 141 143
ENDBRANCH 128 139
ENDBRANCH 118 125
ENDBRANCH 116 118
ENDBRANCH   1 114
TORSDOF 54
