REMARK WARNING: 32 MAX_TORS EXCEEDED!!!
REMARK  64 active torsions:
REMARK  status: ('A' for Active; 'I' for Inactive)
REMARK    1  A    between atoms: N_1  and  CA_2 
REMARK    2  A    between atoms: CA_2  and  C_3 
REMARK    3  A    between atoms: CA_2  and  CB_5 
REMARK       I    between atoms: C_3  and  N_17 
REMARK    4  A    between atoms: CB_5  and  OG1_6 
REMARK    5  A    between atoms: CB_5  and  CG2_7 
REMARK    6  A    between atoms: N_17  and  CA_18 
REMARK    7  A    between atoms: CA_18  and  C_19 
REMARK    8  A    between atoms: CA_18  and  CB_21 
REMARK       I    between atoms: C_19  and  N_41 
REMARK    9  A    between atoms: CB_21  and  CG_22 
REMARK   10  A    between atoms: CG_22  and  CD_23 
REMARK   11  A    between atoms: CD_23  and  NE_24 
REMARK       I    between atoms: NE_24  and  CZ_25 
REMARK       I    between atoms: CZ_25  and  NH1_26 
REMARK   12  A    between atoms: N_41  and  CA_42 
REMARK   13  A    between atoms: CA_42  and  C_43 
REMARK   14  A    between atoms: CA_42  and  CB_45 
REMARK       I    between atoms: C_43  and  N_55 
REMARK   15  A    between atoms: CB_45  and  OG1_46 
REMARK   16  A    between atoms: CB_45  and  CG2_47 
REMARK   17  A    between atoms: N_55  and  CA_56 
REMARK   18  A    between atoms: CA_56  and  C_57 
REMARK   19  A    between atoms: CA_56  and  CB_59 
REMARK       I    between atoms: C_57  and  N_77 
REMARK   20  A    between atoms: CB_59  and  CG_60 
REMARK   21  A    between atoms: CG_60  and  CD_61 
REMARK   22  A    between atoms: CD_61  and  CE_62 
REMARK   23  A    between atoms: CE_62  and  NZ_63 
REMARK   24  A    between atoms: N_77  and  CA_78 
REMARK   25  A    between atoms: CA_78  and  C_79 
REMARK   26  A    between atoms: CA_78  and  CB_81 
REMARK       I    between atoms: C_79  and  N_96 
REMARK   27  A    between atoms: CB_81  and  CG1_82 
REMARK   28  A    between atoms: CB_81  and  CG2_83 
REMARK   29  A    between atoms: CG1_82  and  CD1_84 
REMARK   30  A    between atoms: N_96  and  CA_97 
REMARK   31  A    between atoms: CA_97  and  C_98 
REMARK   32  A    between atoms: CA_97  and  CB_100 
REMARK       I    between atoms: C_98  and  N_108 
REMARK   33  A    between atoms: CB_100  and  CG_101 
REMARK   34  A    between atoms: N_108  and  CA_109 
REMARK   35  A    between atoms: CA_109  and  C_110 
REMARK   36  A    between atoms: CA_109  and  CB_112 
REMARK       I    between atoms: C_110  and  N_132 
REMARK   37  A    between atoms: CB_112  and  CG_113 
REMARK   38  A    between atoms: N_132  and  CA_133 
REMARK   39  A    between atoms: CA_133  and  C_134 
REMARK   40  A    between atoms: CA_133  and  CB_136 
REMARK       I    between atoms: C_134  and  N_146 
REMARK   41  A    between atoms: CB_136  and  CG_137 
REMARK       I    between atoms: CG_137  and  ND2_139 
REMARK   42  A    between atoms: N_146  and  CA_147 
REMARK   43  A    between atoms: CA_147  and  C_148 
REMARK   44  A    between atoms: CA_147  and  CB_150 
REMARK       I    between atoms: C_148  and  N_168 
REMARK   45  A    between atoms: CB_150  and  CG_151 
REMARK   46  A    between atoms: CG_151  and  CD_152 
REMARK   47  A    between atoms: CD_152  and  CE_153 
REMARK   48  A    between atoms: CE_153  and  NZ_154 
REMARK   49  A    between atoms: N_168  and  CA_169 
REMARK   50  A    between atoms: CA_169  and  C_170 
REMARK   51  A    between atoms: CA_169  and  CB_172 
REMARK       I    between atoms: C_170  and  N_187 
REMARK   52  A    between atoms: CB_172  and  CG1_173 
REMARK   53  A    between atoms: CB_172  and  CG2_174 
REMARK   54  A    between atoms: CG1_173  and  CD1_175 
REMARK   55  A    between atoms: N_187  and  CA_188 
REMARK   56  A    between atoms: CA_188  and  C_189 
REMARK   57  A    between atoms: CA_188  and  CB_191 
REMARK       I    between atoms: C_189  and  N_206 
REMARK   58  A    between atoms: CB_191  and  CG_192 
REMARK   59  A    between atoms: CG_192  and  CD1_193 
REMARK   60  A    between atoms: CG_192  and  CD2_194 
REMARK   61  A    between atoms: N_206  and  CA_207 
REMARK   62  A    between atoms: CA_207  and  C_208 
REMARK   63  A    between atoms: CA_207  and  CB_210 
REMARK   64  A    between atoms: CB_210  and  OG_211 
ROOT
ATOM      1  C   ASP d   1      67.238  -8.975  16.902  0.00  0.00     0.241 C 
ATOM      2  O   ASP d   1      67.574  -8.998  15.732  0.00  0.00    -0.271 OA
ATOM      3  N   TRP d   1      67.649  -8.031  17.713  0.00  0.00    -0.346 N 
ATOM      4  H58 TRP d   1      67.355  -8.037  18.669  0.00  0.00     0.163 HD
ENDROOT
BRANCH   3   5
ATOM      5  CA  TRP d   1      68.552  -6.946  17.225  0.00  0.00     0.093 C 
ATOM      6  H59 TRP d   1      68.110  -6.445  16.351  0.00  0.00     0.088 H 
BRANCH   5   7
ATOM      7  C   TRP d   1      69.896  -7.588  16.844  0.00  0.00     0.241 C 
ATOM      8  O   TRP d   1      70.509  -7.241  15.861  0.00  0.00    -0.271 OA
ATOM      9  N   ASN d   1      70.356  -8.529  17.629  0.00  0.00    -0.346 N 
ATOM     10  H68 ASN d   1      69.829  -8.816  18.429  0.00  0.00     0.163 HD
BRANCH   9  11
ATOM     11  CA  ASN d   1      71.665  -9.170  17.328  0.00  0.00     0.097 C 
ATOM     12  H69 ASN d   1      72.453  -8.402  17.334  0.00  0.00     0.088 H 
BRANCH  11  13
ATOM     13  C   ASN d   1      71.636  -9.847  15.959  0.00  0.00     0.241 C 
ATOM     14  O   ASN d   1      72.584  -9.766  15.205  0.00  0.00    -0.271 OA
ATOM     15  N   LYS d   1      70.572 -10.510  15.623  0.00  0.00    -0.346 N 
ATOM     16  H74 LYS d   1      69.797 -10.575  16.252  0.00  0.00     0.163 HD
BRANCH  15  17
ATOM     17  CA  LYS d   1      70.518 -11.172  14.292  0.00  0.00     0.089 C 
ATOM     18  H75 LYS d   1      71.338 -11.900  14.208  0.00  0.00     0.087 H 
BRANCH  17  19
ATOM     19  C   LYS d   1      70.667 -10.106  13.206  0.00  0.00     0.241 C 
ATOM     20  O   LYS d   1      71.326 -10.305  12.205  0.00  0.00    -0.271 OA
ATOM     21  N   ILE d   1      70.047  -8.974  13.399  0.00  0.00    -0.346 N 
ATOM     22  H87 ILE d   1      69.514  -8.833  14.233  0.00  0.00     0.163 HD
BRANCH  21  23
ATOM     23  CA  ILE d   1      70.132  -7.891  12.379  0.00  0.00     0.092 C 
ATOM     24  H88 ILE d   1      69.890  -8.306  11.389  0.00  0.00     0.088 H 
BRANCH  23  25
ATOM     25  C   ILE d   1      71.543  -7.286  12.341  0.00  0.00     0.241 C 
ATOM     26  O   ILE d   1      72.068  -6.990  11.285  0.00  0.00    -0.271 OA
ATOM     27  N   LEU d   1      72.161  -7.090  13.475  0.00  0.00    -0.346 N 
ATOM     28  H98 LEU d   1      71.720  -7.337  14.338  0.00  0.00     0.163 HD
BRANCH  27  29
ATOM     29  CA  LEU d   1      73.531  -6.494  13.475  0.00  0.00     0.089 C 
ATOM     30  H99 LEU d   1      73.495  -5.499  13.008  0.00  0.00     0.087 H 
BRANCH  29  31
ATOM     31  C   LEU d   1      74.478  -7.396  12.686  0.00  0.00     0.241 C 
ATOM     32  O   LEU d   1      75.330  -6.935  11.954  0.00  0.00    -0.271 OA
ATOM     33  N   SER d   1      74.339  -8.682  12.842  0.00  0.00    -0.343 N 
ATOM     34 9H10 SER d   1      73.633  -9.036  13.455  0.00  0.00     0.163 HD
BRANCH  33  35
ATOM     35  CA  SER d   1      75.231  -9.628  12.109  0.00  0.00     0.116 C 
ATOM     36 0H11 SER d   1      75.344  -9.293  11.067  0.00  0.00     0.093 H 
BRANCH  35  37
ATOM     37  C   SER d   1      74.612 -11.028  12.133  0.00  0.00     0.198 C 
ATOM     38  O   SER d   1      74.167 -11.478  11.090  0.00  0.00    -0.646 OA
ATOM     39  OXT SER d   1      74.595 -11.627  13.195  0.00  0.00    -0.646 OA
ENDBRANCH  35  37
BRANCH  35  40
ATOM     40  CB  SER d   1      76.606  -9.671  12.783  0.00  0.00     0.045 C 
ATOM     41 1H11 SER d   1      77.122  -8.712  12.626  0.00  0.00     0.077 H 
ATOM     42 2H11 SER d   1      77.204 -10.485  12.347  0.00  0.00     0.077 H 
BRANCH  40  43
ATOM     43  OG  SER d   1      76.441  -9.898  14.176  0.00  0.00    -0.398 OA
ATOM     44 3H11 SER d   1      75.995 -10.726  14.310  0.00  0.00     0.209 HD
ENDBRANCH  40  43
ENDBRANCH  35  40
ENDBRANCH  33  35
ENDBRANCH  29  31
BRANCH  29  45
ATOM     45  CB  LEU d   1      74.051  -6.366  14.907  0.00  0.00    -0.035 C 
ATOM     46 0H10 LEU d   1      75.097  -6.027  14.883  0.00  0.00     0.037 H 
ATOM     47 1H10 LEU d   1      73.995  -7.347  15.401  0.00  0.00     0.037 H 
BRANCH  45  48
ATOM     48  CG  LEU d   1      73.212  -5.356  15.695  0.00  0.00    -0.059 C 
ATOM     49 2H10 LEU d   1      72.152  -5.647  15.641  0.00  0.00     0.038 H 
BRANCH  48  50
ATOM     50  CD1 LEU d   1      73.667  -5.372  17.157  0.00  0.00    -0.073 C 
ATOM     51 3H10 LEU d   1      73.071  -4.650  17.734  0.00  0.00     0.028 H 
ATOM     52 4H10 LEU d   1      74.731  -5.098  17.213  0.00  0.00     0.028 H 
ATOM     53 5H10 LEU d   1      73.526  -6.380  17.574  0.00  0.00     0.028 H 
ENDBRANCH  48  50
BRANCH  48  54
ATOM     54  CD2 LEU d   1      73.372  -3.942  15.106  0.00  0.00    -0.073 C 
ATOM     55 6H10 LEU d   1      73.042  -3.942  14.056  0.00  0.00     0.028 H 
ATOM     56 7H10 LEU d   1      74.428  -3.640  15.158  0.00  0.00     0.028 H 
ATOM     57 8H10 LEU d   1      72.759  -3.233  15.682  0.00  0.00     0.028 H 
ENDBRANCH  48  54
ENDBRANCH  45  48
ENDBRANCH  29  45
ENDBRANCH  27  29
ENDBRANCH  23  25
BRANCH  23  58
ATOM     58  CB  ILE d   1      69.128  -6.799  12.735  0.00  0.00    -0.030 C 
ATOM     59  H89 ILE d   1      69.325  -6.440  13.756  0.00  0.00     0.043 H 
BRANCH  58  60
ATOM     60  CG1 ILE d   1      67.711  -7.369  12.662  0.00  0.00    -0.063 C 
ATOM     61  H90 ILE d   1      67.664  -8.307  13.234  0.00  0.00     0.033 H 
ATOM     62  H91 ILE d   1      67.449  -7.566  11.612  0.00  0.00     0.033 H 
BRANCH  60  63
ATOM     63  CD1 ILE d   1      66.720  -6.361  13.254  0.00  0.00    -0.076 C 
ATOM     64  H95 ILE d   1      65.702  -6.773  13.200  0.00  0.00     0.027 H 
ATOM     65  H96 ILE d   1      66.766  -5.422  12.682  0.00  0.00     0.027 H 
ATOM     66  H97 ILE d   1      66.981  -6.164  14.304  0.00  0.00     0.027 H 
ENDBRANCH  60  63
ENDBRANCH  58  60
BRANCH  58  67
ATOM     67  CG2 ILE d   1      69.266  -5.636  11.755  0.00  0.00    -0.071 C 
ATOM     68  H92 ILE d   1      70.286  -5.229  11.810  0.00  0.00     0.028 H 
ATOM     69  H93 ILE d   1      68.543  -4.849  12.015  0.00  0.00     0.028 H 
ATOM     70  H94 ILE d   1      69.069  -5.992  10.733  0.00  0.00     0.028 H 
ENDBRANCH  58  67
ENDBRANCH  23  58
ENDBRANCH  21  23
ENDBRANCH  17  19
BRANCH  17  71
ATOM     71  CB  LYS d   1      69.180 -11.894  14.131  0.00  0.00    -0.038 C 
ATOM     72  H76 LYS d   1      68.369 -11.152  14.079  0.00  0.00     0.036 H 
ATOM     73  H77 LYS d   1      69.016 -12.556  14.994  0.00  0.00     0.036 H 
BRANCH  71  74
ATOM     74  CG  LYS d   1      69.190 -12.727  12.847  0.00  0.00    -0.061 C 
ATOM     75  H78 LYS d   1      70.026 -13.442  12.878  0.00  0.00     0.033 H 
ATOM     76  H79 LYS d   1      69.307 -12.063  11.978  0.00  0.00     0.033 H 
BRANCH  74  77
ATOM     77  CD  LYS d   1      67.868 -13.489  12.735  0.00  0.00    -0.043 C 
ATOM     78  H80 LYS d   1      67.037 -12.771  12.677  0.00  0.00     0.035 H 
ATOM     79  H81 LYS d   1      67.739 -14.128  13.621  0.00  0.00     0.035 H 
BRANCH  77  80
ATOM     80  CE  LYS d   1      67.875 -14.358  11.481  0.00  0.00     0.080 C 
ATOM     81  H82 LYS d   1      68.659 -15.125  11.569  0.00  0.00     0.075 H 
ATOM     82  H83 LYS d   1      68.074 -13.730  10.600  0.00  0.00     0.075 H 
BRANCH  80  83
ATOM     83  NZ  LYS d   1      66.547 -15.017  11.334  0.00  0.00    -0.079 N 
ATOM     84  H84 LYS d   1      66.547 -15.592  10.506  0.00  0.00     0.274 HD
ATOM     85  H85 LYS d   1      65.830 -14.313  11.254  0.00  0.00     0.274 HD
ATOM     86  H86 LYS d   1      66.365 -15.591  12.142  0.00  0.00     0.274 HD
ENDBRANCH  80  83
ENDBRANCH  77  80
ENDBRANCH  74  77
ENDBRANCH  71  74
ENDBRANCH  17  71
ENDBRANCH  15  17
ENDBRANCH  11  13
BRANCH  11  87
ATOM     87  CB  ASN d   1      71.966 -10.217  18.401  0.00  0.00     0.036 C 
ATOM     88  H70 ASN d   1      71.143 -10.946  18.445  0.00  0.00     0.051 H 
ATOM     89  H71 ASN d   1      72.071  -9.723  19.378  0.00  0.00     0.051 H 
BRANCH  87  90
ATOM     90  CG  ASN d   1      73.267 -10.936  18.049  0.00  0.00     0.217 C 
ATOM     91  OD1 ASN d   1      74.257 -10.807  18.743  0.00  0.00    -0.274 OA
ATOM     92  ND2 ASN d   1      73.301 -11.693  16.984  0.00  0.00    -0.370 N 
ATOM     93  H72 ASN d   1      74.144 -12.172  16.738  0.00  0.00     0.159 HD
ATOM     94  H73 ASN d   1      72.484 -11.793  16.416  0.00  0.00     0.159 HD
ENDBRANCH  87  90
ENDBRANCH  11  87
ENDBRANCH   9  11
ENDBRANCH   5   7
BRANCH   5  95
ATOM     95  CB  TRP d   1      68.769  -5.919  18.371  0.00  0.00    -0.012 C 
ATOM     96  H60 TRP d   1      69.820  -5.968  18.692  0.00  0.00     0.044 H 
ATOM     97  H61 TRP d   1      68.115  -6.189  19.213  0.00  0.00     0.044 H 
BRANCH  95  98
ATOM     98  CG  TRP d   1      68.457  -4.501  17.954  0.00  0.00    -0.028 A 
ATOM     99  CD1 TRP d   1      67.761  -3.627  18.714  0.00  0.00    -0.015 A 
ATOM    100  NE1 TRP d   1      67.673  -2.418  18.052  0.00  0.00    -0.365 N 
ATOM    101  H62 TRP d   1      67.337  -3.842  19.694  0.00  0.00     0.112 H 
ATOM    102  CE2 TRP d   1      68.301  -2.460  16.828  0.00  0.00     0.042 A 
ATOM    103  H63 TRP d   1      67.196  -1.587  18.428  0.00  0.00     0.165 HD
ATOM    104  CD2 TRP d   1      68.813  -3.773  16.734  0.00  0.00    -0.002 A 
ATOM    105  CZ2 TRP d   1      68.484  -1.531  15.805  0.00  0.00    -0.056 A 
ATOM    106  CE3 TRP d   1      69.516  -4.110  15.569  0.00  0.00    -0.070 A 
ATOM    107  CZ3 TRP d   1      69.697  -3.178  14.543  0.00  0.00    -0.082 A 
ATOM    108  H64 TRP d   1      69.925  -5.108  15.462  0.00  0.00     0.084 H 
ATOM    109  CH2 TRP d   1      69.180  -1.894  14.664  0.00  0.00    -0.081 A 
ATOM    110  H66 TRP d   1      70.243  -3.458  13.649  0.00  0.00     0.083 H 
ATOM    111  H67 TRP d   1      69.322  -1.176  13.865  0.00  0.00     0.083 H 
ATOM    112  H65 TRP d   1      68.083  -0.528  15.902  0.00  0.00     0.086 H 
ENDBRANCH  95  98
ENDBRANCH   5  95
ENDBRANCH   3   5
BRANCH   1 113
ATOM    113  CA  ASP d   1      66.341 -10.067  17.503  0.00  0.00     0.098 C 
ATOM    114  H55 ASP d   1      66.181  -9.849  18.569  0.00  0.00     0.088 H 
BRANCH 113 115
ATOM    115  N   ASP d   1      65.015 -10.114  16.814  0.00  0.00    -0.345 N 
ATOM    116  C   ILE d   1      63.925 -10.355  17.507  0.00  0.00     0.241 C 
ATOM    117  O   ILE d   1      63.980 -10.543  18.706  0.00  0.00    -0.271 OA
ATOM    118  H54 ASP d   1      64.958  -9.962  15.827  0.00  0.00     0.163 HD
BRANCH 116 119
ATOM    119  CA  ILE d   1      62.581 -10.389  16.764  0.00  0.00     0.092 C 
ATOM    120  H44 ILE d   1      62.241 -11.429  16.653  0.00  0.00     0.088 H 
BRANCH 119 121
ATOM    121  N   ILE d   1      61.581  -9.605  17.545  0.00  0.00    -0.346 N 
ATOM    122  C   LYS d   1      61.265  -9.965  18.761  0.00  0.00     0.241 C 
ATOM    123  O   LYS d   1      61.766 -10.941  19.282  0.00  0.00    -0.271 OA
ATOM    124  H43 ILE d   1      61.150  -8.800  17.136  0.00  0.00     0.163 HD
BRANCH 122 125
ATOM    125  CA  LYS d   1      60.233  -9.112  19.501  0.00  0.00     0.089 C 
ATOM    126  H31 LYS d   1      59.643  -8.536  18.773  0.00  0.00     0.087 H 
BRANCH 125 127
ATOM    127  N   LYS d   1      59.325 -10.003  20.292  0.00  0.00    -0.346 N 
ATOM    128  C   THR d   1      58.057 -10.119  19.991  0.00  0.00     0.243 C 
ATOM    129  O   THR d   1      57.563  -9.512  19.059  0.00  0.00    -0.271 OA
ATOM    130  H30 LYS d   1      59.695 -10.519  21.065  0.00  0.00     0.163 HD
BRANCH 128 131
ATOM    131  CA  THR d   1      57.217 -11.048  20.867  0.00  0.00     0.113 C 
ATOM    132  H24 THR d   1      57.501 -10.916  21.922  0.00  0.00     0.091 H 
BRANCH 131 133
ATOM    133  N   THR d   1      55.768 -10.718  20.695  0.00  0.00    -0.344 N 
ATOM    134  C   ARG d   1      54.958 -10.711  21.719  0.00  0.00     0.241 C 
ATOM    135  O   ARG d   1      55.349 -10.968  22.842  0.00  0.00    -0.271 OA
ATOM    136  H23 THR d   1      55.416 -10.500  19.785  0.00  0.00     0.163 HD
BRANCH 134 137
ATOM    137  CA  ARG d   1      53.494 -10.363  21.447  0.00  0.00     0.089 C 
ATOM    138  H11 ARG d   1      53.312 -10.360  20.362  0.00  0.00     0.087 H 
BRANCH 137 139
ATOM    139  N   ARG d   1      52.617 -11.392  22.100  0.00  0.00    -0.346 N 
ATOM    140  C   THR d   1      51.573 -11.877  21.473  0.00  0.00     0.251 C 
ATOM    141  O   THR d   1      51.283 -11.511  20.350  0.00  0.00    -0.271 OA
ATOM    142  H10 ARG d   1      52.832 -11.711  23.023  0.00  0.00     0.163 HD
BRANCH 140 143
ATOM    143  CA  THR d   1      50.732 -12.936  22.198  0.00  0.00     0.199 C 
ATOM    144  H4  THR d   1      51.398 -13.636  22.725  0.00  0.00     0.103 H 
BRANCH 143 145
ATOM    145  N   THR d   1      49.826 -12.278  23.183  0.00  0.00    -0.064 N 
ATOM    146  H1  THR d   1      50.376 -11.775  23.861  0.00  0.00     0.275 HD
ATOM    147  H2  THR d   1      49.273 -12.979  23.652  0.00  0.00     0.275 HD
ATOM    148  H3  THR d   1      49.216 -11.636  22.702  0.00  0.00     0.275 HD
ENDBRANCH 143 145
BRANCH 143 149
ATOM    149  CB  THR d   1      49.897 -13.700  21.168  0.00  0.00     0.068 C 
ATOM    150  H5  THR d   1      49.360 -12.983  20.529  0.00  0.00     0.086 H 
BRANCH 149 151
ATOM    151  OG1 THR d   1      48.958 -14.530  21.839  0.00  0.00    -0.393 OA
ATOM    152  H6  THR d   1      48.441 -15.003  21.198  0.00  0.00     0.210 HD
ENDBRANCH 149 151
BRANCH 149 153
ATOM    153  CG2 THR d   1      50.816 -14.563  20.301  0.00  0.00    -0.050 C 
ATOM    154  H7  THR d   1      50.214 -15.111  19.561  0.00  0.00     0.031 H 
ATOM    155  H8  THR d   1      51.355 -15.279  20.938  0.00  0.00     0.031 H 
ATOM    156  H9  THR d   1      51.540 -13.919  19.780  0.00  0.00     0.031 H 
ENDBRANCH 149 153
ENDBRANCH 143 149
ENDBRANCH 140 143
ENDBRANCH 137 139
BRANCH 137 157
ATOM    157  CB  ARG d   1      53.180  -8.975  22.021  0.00  0.00    -0.036 C 
ATOM    158  H12 ARG d   1      53.363  -8.982  23.106  0.00  0.00     0.036 H 
ATOM    159  H13 ARG d   1      52.124  -8.734  21.829  0.00  0.00     0.036 H 
BRANCH 157 160
ATOM    160  CG  ARG d   1      54.072  -7.905  21.363  0.00  0.00    -0.048 C 
ATOM    161  H14 ARG d   1      55.128  -8.167  21.523  0.00  0.00     0.035 H 
ATOM    162  H15 ARG d   1      53.863  -6.928  21.823  0.00  0.00     0.035 H 
BRANCH 160 163
ATOM    163  CD  ARG d   1      53.796  -7.821  19.855  0.00  0.00     0.009 C 
ATOM    164  H16 ARG d   1      52.725  -7.988  19.667  0.00  0.00     0.064 H 
ATOM    165  H17 ARG d   1      54.385  -8.587  19.329  0.00  0.00     0.064 H 
BRANCH 163 166
ATOM    166  NE  ARG d   1      54.184  -6.469  19.363  0.00  0.00    -0.227 N 
ATOM    167  CZ  ARG d   1      54.351  -6.256  18.085  0.00  0.00     0.665 C 
ATOM    168  NH1 ARG d   1      54.212  -7.231  17.230  0.00  0.00    -0.235 N 
ATOM    169  NH2 ARG d   1      54.666  -5.062  17.665  0.00  0.00    -0.235 N 
ATOM    170  H19 ARG d   1      54.345  -7.056  16.224  0.00  0.00     0.174 HD
ATOM    171  H20 ARG d   1      53.969  -8.176  17.561  0.00  0.00     0.174 HD
ATOM    172  H21 ARG d   1      54.776  -4.291  18.339  0.00  0.00     0.174 HD
ATOM    173  H22 ARG d   1      54.805  -4.890  16.659  0.00  0.00     0.174 HD
ATOM    174  H18 ARG d   1      54.321  -5.699  20.033  0.00  0.00     0.177 HD
ENDBRANCH 163 166
ENDBRANCH 160 163
ENDBRANCH 157 160
ENDBRANCH 137 157
ENDBRANCH 134 137
ENDBRANCH 131 133
BRANCH 131 175
ATOM    175  CB  THR d   1      57.466 -12.497  20.449  0.00  0.00     0.060 C 
ATOM    176  H25 THR d   1      58.545 -12.706  20.482  0.00  0.00     0.086 H 
BRANCH 175 177
ATOM    177  OG1 THR d   1      56.990 -12.690  19.128  0.00  0.00    -0.393 OA
ATOM    178  H26 THR d   1      57.144 -13.590  18.866  0.00  0.00     0.210 HD
ENDBRANCH 175 177
BRANCH 175 179
ATOM    179  CG2 THR d   1      56.741 -13.443  21.406  0.00  0.00    -0.050 C 
ATOM    180  H27 THR d   1      56.923 -14.484  21.101  0.00  0.00     0.031 H 
ATOM    181  H28 THR d   1      55.661 -13.236  21.378  0.00  0.00     0.031 H 
ATOM    182  H29 THR d   1      57.117 -13.289  22.428  0.00  0.00     0.031 H 
ENDBRANCH 175 179
ENDBRANCH 131 175
ENDBRANCH 128 131
ENDBRANCH 125 127
BRANCH 125 183
ATOM    183  CB  LYS d   1      60.947  -8.149  20.459  0.00  0.00    -0.038 C 
ATOM    184  H32 LYS d   1      61.530  -8.728  21.190  0.00  0.00     0.036 H 
ATOM    185  H33 LYS d   1      60.199  -7.539  20.987  0.00  0.00     0.036 H 
BRANCH 183 186
ATOM    186  CG  LYS d   1      61.889  -7.230  19.671  0.00  0.00    -0.061 C 
ATOM    187  H34 LYS d   1      61.323  -6.725  18.874  0.00  0.00     0.033 H 
ATOM    188  H35 LYS d   1      62.694  -7.831  19.224  0.00  0.00     0.033 H 
BRANCH 186 189
ATOM    189  CD  LYS d   1      62.504  -6.170  20.612  0.00  0.00    -0.043 C 
ATOM    190  H36 LYS d   1      63.482  -5.858  20.216  0.00  0.00     0.035 H 
ATOM    191  H37 LYS d   1      62.636  -6.607  21.613  0.00  0.00     0.035 H 
BRANCH 189 192
ATOM    192  CE  LYS d   1      61.584  -4.944  20.713  0.00  0.00     0.080 C 
ATOM    193  H38 LYS d   1      60.534  -5.273  20.719  0.00  0.00     0.075 H 
ATOM    194  H39 LYS d   1      61.757  -4.284  19.850  0.00  0.00     0.075 H 
BRANCH 192 195
ATOM    195  NZ  LYS d   1      61.881  -4.200  21.978  0.00  0.00    -0.079 N 
ATOM    196  H40 LYS d   1      61.277  -3.396  22.044  0.00  0.00     0.274 HD
ATOM    197  H41 LYS d   1      62.843  -3.899  21.973  0.00  0.00     0.274 HD
ATOM    198  H42 LYS d   1      61.723  -4.805  22.769  0.00  0.00     0.274 HD
ENDBRANCH 192 195
ENDBRANCH 189 192
ENDBRANCH 186 189
ENDBRANCH 183 186
ENDBRANCH 125 183
ENDBRANCH 122 125
ENDBRANCH 119 121
BRANCH 119 199
ATOM    199  CB  ILE d   1      62.744  -9.743  15.383  0.00  0.00    -0.030 C 
ATOM    200  H45 ILE d   1      63.586 -10.212  14.854  0.00  0.00     0.043 H 
BRANCH 199 201
ATOM    201  CG1 ILE d   1      63.030  -8.221  15.558  0.00  0.00    -0.063 C 
ATOM    202  H46 ILE d   1      63.185  -8.001  16.624  0.00  0.00     0.033 H 
ATOM    203  H47 ILE d   1      62.170  -7.645  15.186  0.00  0.00     0.033 H 
BRANCH 201 204
ATOM    204  CD1 ILE d   1      64.281  -7.825  14.773  0.00  0.00    -0.076 C 
ATOM    205  H51 ILE d   1      64.472  -6.750  14.905  0.00  0.00     0.027 H 
ATOM    206  H52 ILE d   1      64.128  -8.042  13.706  0.00  0.00     0.027 H 
ATOM    207  H53 ILE d   1      65.143  -8.398  15.144  0.00  0.00     0.027 H 
ENDBRANCH 201 204
ENDBRANCH 199 201
BRANCH 199 208
ATOM    208  CG2 ILE d   1      61.456  -9.956  14.577  0.00  0.00    -0.071 C 
ATOM    209  H48 ILE d   1      61.269 -11.034  14.463  0.00  0.00     0.028 H 
ATOM    210  H49 ILE d   1      61.565  -9.495  13.584  0.00  0.00     0.028 H 
ATOM    211  H50 ILE d   1      60.611  -9.491  15.106  0.00  0.00     0.028 H 
ENDBRANCH 199 208
ENDBRANCH 119 199
ENDBRANCH 116 119
ENDBRANCH 113 115
BRANCH 113 212
ATOM    212  CB  ASP d   1      67.030 -11.423  17.364  0.00  0.00     0.043 C 
ATOM    213  H56 ASP d   1      67.282 -11.601  16.308  0.00  0.00     0.052 H 
ATOM    214  H57 ASP d   1      66.355 -12.216  17.718  0.00  0.00     0.052 H 
BRANCH 212 215
ATOM    215  CG  ASP d   1      68.309 -11.427  18.203  0.00  0.00     0.175 C 
ATOM    216  OD1 ASP d   1      68.722 -10.358  18.621  0.00  0.00    -0.648 OA
ATOM    217  OD2 ASP d   1      68.856 -12.498  18.411  0.00  0.00    -0.648 OA
ENDBRANCH 212 215
ENDBRANCH 113 212
ENDBRANCH   1 113
TORSDOF 64
