REMARK  1 active torsions:
REMARK  status: ('A' for Active; 'I' for Inactive)
REMARK    1  A    between atoms: C10_10  and  N15_15 
ROOT
ATOM      1  C1  THA d   1      22.951 -28.713  25.773  0.00  0.00    -0.081 A 
ATOM      2  C2  THA d   1      23.292 -29.505  26.896  0.00  0.00    -0.054 A 
ATOM      3  C3  THA d   1      22.297 -29.866  27.841  0.00  0.00     0.069 A 
ATOM      4  C4  THA d   1      20.894 -29.412  27.651  0.00  0.00     0.019 A 
ATOM      5  C5  THA d   1      20.603 -28.609  26.493  0.00  0.00    -0.069 A 
ATOM      6  C6  THA d   1      21.622 -28.269  25.571  0.00  0.00    -0.082 A 
ATOM      7  N7  THA d   1      22.638 -30.614  28.895  0.00  0.00    -0.252 NA
ATOM      8  C8  THA d   1      21.764 -30.999  29.833  0.00  0.00     0.043 A 
ATOM      9  C9  THA d   1      20.360 -30.620  29.764  0.00  0.00    -0.006 A 
ATOM     10  C10 THA d   1      19.927 -29.813  28.651  0.00  0.00     0.046 A 
ATOM     11  C11 THA d   1      22.319 -31.872  31.008  0.00  0.00    -0.024 C 
ATOM     12  C12 THA d   1      21.251 -32.554  31.919  0.00  0.00    -0.060 C 
ATOM     13  C13 THA d   1      20.087 -31.577  32.229  0.00  0.00    -0.061 C 
ATOM     14  C14 THA d   1      19.394 -31.115  30.915  0.00  0.00    -0.037 C 
ATOM     15  H1  THA d   1      23.719 -28.443  25.057  0.00  0.00     0.083 H 
ATOM     16  H2  THA d   1      24.315 -29.836  27.034  0.00  0.00     0.087 H 
ATOM     17  H3  THA d   1      19.591 -28.260  26.325  0.00  0.00     0.085 H 
ATOM     18  H4  THA d   1      21.383 -27.664  24.704  0.00  0.00     0.083 H 
ATOM     19  H5  THA d   1      22.939 -31.224  31.645  0.00  0.00     0.042 H 
ATOM     20  H6  THA d   1      22.944 -32.665  30.572  0.00  0.00     0.042 H 
ATOM     21  H7  THA d   1      21.725 -32.861  32.863  0.00  0.00     0.033 H 
ATOM     22  H8  THA d   1      20.851 -33.440  31.404  0.00  0.00     0.033 H 
ATOM     23  H9  THA d   1      20.484 -30.697  32.757  0.00  0.00     0.033 H 
ATOM     24  H10 THA d   1      19.349 -32.085  32.867  0.00  0.00     0.033 H 
ATOM     25  H11 THA d   1      18.811 -31.962  30.525  0.00  0.00     0.040 H 
ATOM     26  H12 THA d   1      18.715 -30.287  31.165  0.00  0.00     0.040 H 
ENDROOT
BRANCH  10  27
ATOM     27  N15 THA d   1      18.627 -29.448  28.565  0.00  0.00    -0.398 N 
ATOM     28  H13 THA d   1      18.305 -28.871  27.774  0.00  0.00     0.156 HD
ATOM     29  H14 THA d   1      17.959 -29.747  29.290  0.00  0.00     0.156 HD
ENDBRANCH  10  27
TORSDOF 1
