REMARK  8 active torsions:
REMARK  status: ('A' for Active; 'I' for Inactive)
REMARK    1  A    between atoms: CAE_5  and  CAG_6 
REMARK    2  A    between atoms: CAG_6  and  CAH_7 
REMARK       I    between atoms: CAH_7  and  NAJ_9 
REMARK    3  A    between atoms: NAJ_9  and  CAK_10 
REMARK    4  A    between atoms: CAK_10  and  B_11 
REMARK    5  A    between atoms: CAK_10  and  CAL_14 
REMARK    6  A    between atoms: B_11  and  OAT_12 
REMARK    7  A    between atoms: B_11  and  OAO_13 
REMARK    8  A    between atoms: CAR_19  and  CAU_20 
ROOT
ATOM      1  CAK SM2 d   1      26.167   5.917  15.059  0.00  0.00     0.071 C 
ATOM      2  H7  SM2 d   1      27.012   6.275  14.452  0.00  0.00     0.072 H 
ENDROOT
BRANCH   1   3
ATOM      3  NAJ SM2 d   1      25.356   5.008  14.247  0.00  0.00    -0.355 N 
ATOM      4  CAH SM2 d   1      24.989   5.225  12.951  0.00  0.00     0.222 C 
ATOM      5  OAI SM2 d   1      25.325   6.236  12.319  0.00  0.00    -0.273 OA
ATOM      6  H6  SM2 d   1      25.046   4.160  14.677  0.00  0.00     0.162 HD
BRANCH   4   7
ATOM      7  CAG SM2 d   1      24.111   4.163  12.286  0.00  0.00     0.039 C 
ATOM      8  H4  SM2 d   1      24.581   3.832  11.348  0.00  0.00     0.055 H 
ATOM      9  H5  SM2 d   1      23.997   3.304  12.963  0.00  0.00     0.055 H 
BRANCH   7  10
ATOM     10  CAE SM2 d   1      22.738   4.762  11.985  0.00  0.00    -0.009 A 
ATOM     11  CAF SM2 d   1      22.008   4.722  10.795  0.00  0.00    -0.069 A 
ATOM     12  CAC SM2 d   1      20.760   5.404  10.943  0.00  0.00    -0.076 A 
ATOM     13  H1  SM2 d   1      22.343   4.237   9.879  0.00  0.00     0.085 H 
ATOM     14  CAB SM2 d   1      20.565   5.924  12.179  0.00  0.00    -0.045 A 
ATOM     15  H2  SM2 d   1      20.034   5.497  10.137  0.00  0.00     0.084 H 
ATOM     16  SAD SM2 d   1      21.879   5.614  13.220  0.00  0.00    -0.106 SA
ATOM     17  H3  SM2 d   1      19.673   6.476  12.473  0.00  0.00     0.095 H 
ENDBRANCH   7  10
ENDBRANCH   4   7
ENDBRANCH   1   3
BRANCH   1  18
ATOM     18  B   SM2 d   1      26.787   5.149  16.356  0.00  0.00     0.519 B 
BRANCH  18  19
ATOM     19  OAT SM2 d   1      25.782   4.174  16.906  0.00  0.00    -0.436 OA
ATOM     20  H8  SM2 d   1      26.158   3.721  17.652  0.00  0.00     0.184 HD
ENDBRANCH  18  19
BRANCH  18  21
ATOM     21  OAO SM2 d   1      27.145   6.138  17.415  0.00  0.00    -0.436 OA
ATOM     22  H9  SM2 d   1      27.518   5.682  18.160  0.00  0.00     0.184 HD
ENDBRANCH  18  21
ENDBRANCH   1  18
BRANCH   1  23
ATOM     23  CAL SM2 d   1      25.281   7.134  15.419  0.00  0.00    -0.038 A 
ATOM     24  CAQ SM2 d   1      24.222   7.008  16.339  0.00  0.00    -0.059 A 
ATOM     25  CAR SM2 d   1      23.342   8.075  16.603  0.00  0.00     0.041 A 
ATOM     26  H10 SM2 d   1      24.081   6.066  16.857  0.00  0.00     0.086 H 
ATOM     27  CAS SM2 d   1      23.531   9.313  15.933  0.00  0.00    -0.066 A 
ATOM     28  CAN SM2 d   1      24.602   9.461  15.012  0.00  0.00    -0.081 A 
ATOM     29  H13 SM2 d   1      22.860  10.143  16.124  0.00  0.00     0.085 H 
ATOM     30  CAM SM2 d   1      25.490   8.382  14.751  0.00  0.00    -0.075 A 
ATOM     31  H12 SM2 d   1      24.744  10.407  14.502  0.00  0.00     0.083 H 
ATOM     32  H11 SM2 d   1      26.313   8.503  14.056  0.00  0.00     0.084 H 
BRANCH  25  33
ATOM     33  CAU SM2 d   1      22.226   7.862  17.595  0.00  0.00     0.209 C 
ATOM     34  OAW SM2 d   1      21.133   7.392  17.153  0.00  0.00    -0.644 OA
ATOM     35  OAV SM2 d   1      22.480   8.136  18.793  0.00  0.00    -0.644 OA
ENDBRANCH  25  33
ENDBRANCH   1  23
TORSDOF 8
