REMARK  4 active torsions:
REMARK  status: ('A' for Active; 'I' for Inactive)
REMARK    1  A    between atoms: N1_1  and  C7_10 
REMARK    2  A    between atoms: C7_10  and  C8_11 
REMARK    3  A    between atoms: C8_11  and  N8_12 
REMARK    4  A    between atoms: C8_11  and  C9_13 
ROOT
ATOM      1  C7  BWD d   1      77.899  26.776  43.704  0.00  0.00     0.040 C 
ATOM      2  H3  BWD d   1      77.972  27.846  43.948  0.00  0.00     0.069 H 
ATOM      3  H4  BWD d   1      78.735  26.235  44.171  0.00  0.00     0.069 H 
ENDROOT
BRANCH   1   4
ATOM      4  N1  BWD d   1      78.004  26.624  42.249  0.00  0.00    -0.306 N 
ATOM      5  C2  BWD d   1      78.142  25.324  41.674  0.00  0.00     0.329 A 
ATOM      6  O2  BWD d   1      78.226  24.296  42.309  0.00  0.00    -0.246 OA
ATOM      7  N3  BWD d   1      78.174  25.331  40.261  0.00  0.00    -0.274 N 
ATOM      8  C4  BWD d   1      78.077  26.415  39.414  0.00  0.00     0.268 A 
ATOM      9  H1  BWD d   1      78.280  24.439  39.821  0.00  0.00     0.173 HD
ATOM     10  O4  BWD d   1      78.131  26.309  38.207  0.00  0.00    -0.267 OA
ATOM     11  C5  BWD d   1      77.922  27.738  40.145  0.00  0.00     0.094 A 
ATOM     12 BR5  BWD d   1      77.713  29.337  39.169  0.00  0.00    -0.044 Br
ATOM     13  C6  BWD d   1      77.877  27.736  41.494  0.00  0.00     0.006 A 
ATOM     14  H2  BWD d   1      77.730  28.687  42.003  0.00  0.00     0.114 H 
ENDBRANCH   1   4
BRANCH   1  15
ATOM     15  C8  BWD d   1      76.599  26.240  44.279  0.00  0.00     0.198 C 
ATOM     16  H5  BWD d   1      76.375  25.300  43.754  0.00  0.00     0.103 H 
BRANCH  15  17
ATOM     17  N8  BWD d   1      75.496  27.219  43.974  0.00  0.00    -0.064 N 
ATOM     18  H6  BWD d   1      74.627  26.874  44.351  0.00  0.00     0.275 HD
ATOM     19  H7  BWD d   1      75.410  27.328  42.976  0.00  0.00     0.275 HD
ATOM     20  H8  BWD d   1      75.713  28.110  44.391  0.00  0.00     0.275 HD
ENDBRANCH  15  17
BRANCH  15  21
ATOM     21  C9  BWD d   1      76.635  25.912  45.776  0.00  0.00     0.206 C 
ATOM     22  O91 BWD d   1      75.794  26.408  46.490  0.00  0.00    -0.646 OA
ATOM     23  O92 BWD d   1      77.617  25.163  46.144  0.00  0.00    -0.646 OA
ENDBRANCH  15  21
ENDBRANCH   1  15
TORSDOF 4
