REMARK  6 active torsions:
REMARK  status: ('A' for Active; 'I' for Inactive)
REMARK    1  A    between atoms: N_1  and  CA_2 
REMARK    2  A    between atoms: CA_2  and  C_3 
REMARK    3  A    between atoms: CA_2  and  CB_6 
REMARK    4  A    between atoms: CB_6  and  CG_7 
REMARK    5  A    between atoms: CD1_8  and  OE1_11 
REMARK    6  A    between atoms: CD2_9  and  CE2_10 
ROOT
ATOM      1  CB  NON d   1      46.045  25.932  42.409  0.00  0.00     0.002 C 
ATOM      2  H5  NON d   1      45.230  26.660  42.532  0.00  0.00     0.044 H 
ATOM      3  H6  NON d   1      45.772  24.989  42.905  0.00  0.00     0.044 H 
ENDROOT
BRANCH   1   4
ATOM      4  CA  NON d   1      47.310  26.498  43.107  0.00  0.00     0.186 C 
ATOM      5  H4  NON d   1      47.610  27.425  42.596  0.00  0.00     0.101 H 
BRANCH   4   6
ATOM      6  N   NON d   1      48.420  25.500  43.006  0.00  0.00    -0.065 N 
ATOM      7  H1  NON d   1      48.596  25.290  42.036  0.00  0.00     0.275 HD
ATOM      8  H2  NON d   1      48.158  24.656  43.490  0.00  0.00     0.275 HD
ATOM      9  H3  NON d   1      49.254  25.882  43.424  0.00  0.00     0.275 HD
ENDBRANCH   4   6
BRANCH   4  10
ATOM     10  C   NON d   1      47.040  26.821  44.621  0.00  0.00     0.204 C 
ATOM     11  OT1 NON d   1      46.096  27.640  44.883  0.00  0.00    -0.646 OA
ATOM     12  OT2 NON d   1      47.778  26.246  45.473  0.00  0.00    -0.646 OA
ENDBRANCH   4  10
ENDBRANCH   1   4
BRANCH   1  13
ATOM     13  CG  NON d   1      46.212  25.656  40.929  0.00  0.00     0.031 A 
ATOM     14  CD1 NON d   1      46.032  26.564  39.843  0.00  0.00     0.198 A 
ATOM     15  NE1 NON d   1      46.287  26.147  38.628  0.00  0.00    -0.102 NA
ATOM     16  OE2 NON d   1      46.690  24.785  38.900  0.00  0.00    -0.215 OA
ATOM     17  CD2 NON d   1      46.630  24.545  40.262  0.00  0.00     0.086 A 
BRANCH  14  18
ATOM     18  OE1 NON d   1      45.647  27.798  40.159  0.00  0.00    -0.343 OA
ATOM     19  H10 NON d   1      45.524  27.859  41.099  0.00  0.00     0.219 HD
ENDBRANCH  14  18
BRANCH  17  20
ATOM     20  CE2 NON d   1      47.068  23.178  40.682  0.00  0.00    -0.029 C 
ATOM     21  H7  NON d   1      47.324  22.585  39.791  0.00  0.00     0.036 H 
ATOM     22  H8  NON d   1      46.252  22.684  41.230  0.00  0.00     0.036 H 
ATOM     23  H9  NON d   1      47.950  23.260  41.334  0.00  0.00     0.036 H 
ENDBRANCH  17  20
ENDBRANCH   1  13
TORSDOF 6
