REMARK  4 active torsions:
REMARK  status: ('A' for Active; 'I' for Inactive)
REMARK    1  A    between atoms: N1_1  and  C7_10 
REMARK    2  A    between atoms: C7_10  and  C8_11 
REMARK    3  A    between atoms: C8_11  and  N8_12 
REMARK    4  A    between atoms: C8_11  and  C9_13 
ROOT
ATOM      1  C7  BWD d   1      77.756  26.816  43.564  0.00  0.00     0.040 C 
ATOM      2  H3  BWD d   1      77.827  27.887  43.805  0.00  0.00     0.069 H 
ATOM      3  H4  BWD d   1      78.589  26.277  44.039  0.00  0.00     0.069 H 
ENDROOT
BRANCH   1   4
ATOM      4  N1  BWD d   1      77.847  26.650  42.125  0.00  0.00    -0.306 N 
ATOM      5  C2  BWD d   1      77.974  25.357  41.565  0.00  0.00     0.329 A 
ATOM      6  O2  BWD d   1      78.071  24.348  42.209  0.00  0.00    -0.246 OA
ATOM      7  N3  BWD d   1      78.000  25.339  40.159  0.00  0.00    -0.274 N 
ATOM      8  C4  BWD d   1      77.884  26.405  39.313  0.00  0.00     0.268 A 
ATOM      9  H1  BWD d   1      78.117  24.444  39.730  0.00  0.00     0.173 HD
ATOM     10  O4  BWD d   1      77.923  26.299  38.110  0.00  0.00    -0.267 OA
ATOM     11  C5  BWD d   1      77.736  27.722  40.032  0.00  0.00     0.094 A 
ATOM     12 BR5  BWD d   1      77.510  29.310  39.037  0.00  0.00    -0.044 Br
ATOM     13  C6  BWD d   1      77.709  27.739  41.374  0.00  0.00     0.006 A 
ATOM     14  H2  BWD d   1      77.567  28.696  41.875  0.00  0.00     0.114 H 
ENDBRANCH   1   4
BRANCH   1  15
ATOM     15  C8  BWD d   1      76.456  26.279  44.103  0.00  0.00     0.198 C 
ATOM     16  H5  BWD d   1      76.218  25.364  43.541  0.00  0.00     0.103 H 
BRANCH  15  17
ATOM     17  N8  BWD d   1      75.376  27.297  43.849  0.00  0.00    -0.064 N 
ATOM     18  H6  BWD d   1      74.498  26.952  44.205  0.00  0.00     0.275 HD
ATOM     19  H7  BWD d   1      75.296  27.461  42.858  0.00  0.00     0.275 HD
ATOM     20  H8  BWD d   1      75.611  28.160  44.315  0.00  0.00     0.275 HD
ENDBRANCH  15  17
BRANCH  15  21
ATOM     21  C9  BWD d   1      76.467  25.914  45.581  0.00  0.00     0.206 C 
ATOM     22  O91 BWD d   1      75.634  26.420  46.298  0.00  0.00    -0.646 OA
ATOM     23  O92 BWD d   1      77.426  25.135  45.925  0.00  0.00    -0.646 OA
ENDBRANCH  15  21
ENDBRANCH   1  15
TORSDOF 4
