REMARK  7 active torsions:
REMARK  status: ('A' for Active; 'I' for Inactive)
REMARK    1  A    between atoms: CAE_5  and  CAG_6 
REMARK    2  A    between atoms: CAG_6  and  CAH_7 
REMARK       I    between atoms: CAH_7  and  NAJ_9 
REMARK    3  A    between atoms: NAJ_9  and  CAK_10 
REMARK    4  A    between atoms: CAK_10  and  B_11 
REMARK    5  A    between atoms: CAK_10  and  CAL_14 
REMARK    6  A    between atoms: B_11  and  OAT_12 
REMARK    7  A    between atoms: B_11  and  OAO_13 
ROOT
ATOM      1  CAK SM3 d   1      25.722   6.167  15.420  0.00  0.00     0.071 C 
ATOM      2  H7  SM3 d   1      26.585   6.519  14.836  0.00  0.00     0.072 H 
ENDROOT
BRANCH   1   3
ATOM      3  NAJ SM3 d   1      24.937   5.290  14.565  0.00  0.00    -0.355 N 
ATOM      4  CAH SM3 d   1      24.508   5.552  13.312  0.00  0.00     0.222 C 
ATOM      5  OAI SM3 d   1      24.745   6.624  12.727  0.00  0.00    -0.273 OA
ATOM      6  H6  SM3 d   1      24.689   4.399  14.945  0.00  0.00     0.162 HD
BRANCH   4   7
ATOM      7  CAG SM3 d   1      23.697   4.439  12.624  0.00  0.00     0.039 C 
ATOM      8  H4  SM3 d   1      24.254   4.069  11.750  0.00  0.00     0.055 H 
ATOM      9  H5  SM3 d   1      23.537   3.613  13.333  0.00  0.00     0.055 H 
BRANCH   7  10
ATOM     10  CAE SM3 d   1      22.352   4.981  12.171  0.00  0.00    -0.009 A 
ATOM     11  CAF SM3 d   1      21.376   5.663  12.902  0.00  0.00    -0.069 A 
ATOM     12  CAC SM3 d   1      20.255   5.991  12.077  0.00  0.00    -0.076 A 
ATOM     13  H1  SM3 d   1      21.458   5.912  13.959  0.00  0.00     0.085 H 
ATOM     14  CAB SM3 d   1      20.393   5.570  10.798  0.00  0.00    -0.045 A 
ATOM     15  H2  SM3 d   1      19.379   6.526  12.441  0.00  0.00     0.084 H 
ATOM     16  SAD SM3 d   1      21.870   4.766  10.536  0.00  0.00    -0.106 SA
ATOM     17  H3  SM3 d   1      19.643   5.728  10.024  0.00  0.00     0.095 H 
ENDBRANCH   7  10
ENDBRANCH   4   7
ENDBRANCH   1   3
BRANCH   1  18
ATOM     18  B   SM3 d   1      26.289   5.337  16.621  0.00  0.00     0.519 B 
BRANCH  18  19
ATOM     19  OAT SM3 d   1      25.253   4.412  17.133  0.00  0.00    -0.436 OA
ATOM     20  H8  SM3 d   1      24.961   3.845  16.429  0.00  0.00     0.184 HD
ENDBRANCH  18  19
BRANCH  18  21
ATOM     21  OAO SM3 d   1      26.734   6.201  17.691  0.00  0.00    -0.436 OA
ATOM     22  H9  SM3 d   1      27.399   6.794  17.362  0.00  0.00     0.184 HD
ENDBRANCH  18  21
ENDBRANCH   1  18
BRANCH   1  23
ATOM     23  CAL SM3 d   1      24.903   7.454  15.833  0.00  0.00    -0.039 A 
ATOM     24  CAQ SM3 d   1      25.210   8.735  15.283  0.00  0.00    -0.075 A 
ATOM     25  CAR SM3 d   1      24.469   9.882  15.667  0.00  0.00    -0.082 A 
ATOM     26  H10 SM3 d   1      26.017   8.832  14.565  0.00  0.00     0.084 H 
ATOM     27  CAS SM3 d   1      23.412   9.762  16.608  0.00  0.00    -0.083 A 
ATOM     28  H14 SM3 d   1      24.709  10.850  15.242  0.00  0.00     0.083 H 
ATOM     29  CAN SM3 d   1      23.092   8.497  17.161  0.00  0.00    -0.082 A 
ATOM     30  H13 SM3 d   1      22.849  10.640  16.904  0.00  0.00     0.083 H 
ATOM     31  CAM SM3 d   1      23.826   7.336  16.781  0.00  0.00    -0.075 A 
ATOM     32  H12 SM3 d   1      22.283   8.412  17.878  0.00  0.00     0.083 H 
ATOM     33  H11 SM3 d   1      23.575   6.370  17.203  0.00  0.00     0.084 H 
ENDBRANCH   1  23
TORSDOF 7
