REMARK  11 active torsions:
REMARK  status: ('A' for Active; 'I' for Inactive)
REMARK    1  A    between atoms: C1_1  and  C2_2 
REMARK    2  A    between atoms: C1_1  and  C5_5 
REMARK    3  A    between atoms: C5_5  and  C11_11 
REMARK    4  A    between atoms: N8_8  and  C15_15 
REMARK    5  A    between atoms: C12_12  and  O17_17 
REMARK    6  A    between atoms: O17_17  and  C19_19 
REMARK    7  A    between atoms: C24_24  and  C27_27 
REMARK    8  A    between atoms: C27_27  and  C28_28 
REMARK    9  A    between atoms: C27_27  and  C29_29 
REMARK   10  A    between atoms: C27_27  and  N30_30 
REMARK   11  A    between atoms: N31_31  and  C34_34 
ROOT
ATOM      1  C19 BNE d   1      17.832 132.248  -2.391  0.00  0.00     0.097 A 
ATOM      2  C20 BNE d   1      18.801 132.361  -3.446  0.00  0.00     0.078 A 
ATOM      3  C21 BNE d   1      18.007 132.998  -1.194  0.00  0.00    -0.040 A 
ATOM      4  C22 BNE d   1      19.921 133.212  -3.275  0.00  0.00    -0.059 A 
ATOM      5  C23 BNE d   1      18.625 131.708  -4.709  0.00  0.00     0.102 C 
ATOM      6  C24 BNE d   1      19.127 133.870  -1.009  0.00  0.00    -0.014 A 
ATOM      7  C25 BNE d   1      20.083 133.957  -2.078  0.00  0.00    -0.072 A 
ATOM      8  N26 BNE d   1      18.422 131.206  -5.728  0.00  0.00    -0.191 NA
ATOM      9  H21 BNE d   1      17.273 132.906  -0.402  0.00  0.00     0.088 H 
ATOM     10  H22 BNE d   1      20.660 133.295  -4.064  0.00  0.00     0.086 H 
ATOM     11  H23 BNE d   1      20.945 134.605  -1.968  0.00  0.00     0.084 H 
ENDROOT
BRANCH   1  12
ATOM     12  O17 BNE d   1      16.682 131.431  -2.475  0.00  0.00    -0.309 OA
BRANCH  12  13
ATOM     13  C12 BNE d   1      15.498 132.044  -2.981  0.00  0.00     0.076 A 
ATOM     14  C6  BNE d   1      15.556 133.353  -3.559  0.00  0.00    -0.043 A 
ATOM     15  C2  BNE d   1      14.429 134.033  -4.084  0.00  0.00    -0.038 A 
ATOM     16  H5  BNE d   1      16.517 133.852  -3.597  0.00  0.00     0.088 H 
ATOM     17  C7  BNE d   1      13.174 133.326  -4.008  0.00  0.00    -0.075 A 
ATOM     18  C13 BNE d   1      13.095 132.015  -3.437  0.00  0.00    -0.080 A 
ATOM     19  H6  BNE d   1      12.275 133.795  -4.390  0.00  0.00     0.084 H 
ATOM     20  C18 BNE d   1      14.255 131.373  -2.924  0.00  0.00    -0.050 A 
ATOM     21  H12 BNE d   1      12.139 131.506  -3.396  0.00  0.00     0.083 H 
ATOM     22  H20 BNE d   1      14.187 130.380  -2.494  0.00  0.00     0.087 H 
BRANCH  15  23
ATOM     23  C1  BNE d   1      14.597 135.511  -4.694  0.00  0.00     0.068 C 
ATOM     24  C3  BNE d   1      16.133 135.944  -4.955  0.00  0.00     0.232 C 
ATOM     25  N8  BNE d   1      16.925 135.299  -5.954  0.00  0.00    -0.356 N 
ATOM     26  O9  BNE d   1      16.639 136.858  -4.270  0.00  0.00    -0.272 OA
ATOM     27  C14 BNE d   1      16.498 134.245  -6.883  0.00  0.00    -0.003 C 
ATOM     28  C16 BNE d   1      15.369 134.703  -7.799  0.00  0.00    -0.050 C 
ATOM     29  H13 BNE d   1      16.151 133.379  -6.300  0.00  0.00     0.064 H 
ATOM     30  H14 BNE d   1      17.358 133.950  -7.502  0.00  0.00     0.064 H 
ATOM     31  C10 BNE d   1      13.980 134.578  -7.170  0.00  0.00    -0.062 C 
ATOM     32  H18 BNE d   1      15.539 135.758  -8.059  0.00  0.00     0.035 H 
ATOM     33  H19 BNE d   1      15.393 134.091  -8.713  0.00  0.00     0.035 H 
ATOM     34  C4  BNE d   1      13.697 135.574  -6.021  0.00  0.00    -0.046 C 
ATOM     35  H7  BNE d   1      13.231 134.743  -7.958  0.00  0.00     0.033 H 
ATOM     36  H8  BNE d   1      13.875 133.558  -6.772  0.00  0.00     0.033 H 
ATOM     37  H1  BNE d   1      13.808 136.586  -6.438  0.00  0.00     0.035 H 
ATOM     38  H2  BNE d   1      12.653 135.418  -5.710  0.00  0.00     0.035 H 
BRANCH  25  39
ATOM     39  C15 BNE d   1      18.316 135.722  -6.137  0.00  0.00    -0.016 C 
ATOM     40  H15 BNE d   1      18.559 136.509  -5.408  0.00  0.00     0.056 H 
ATOM     41  H16 BNE d   1      18.449 136.113  -7.157  0.00  0.00     0.056 H 
ATOM     42  H17 BNE d   1      18.984 134.862  -5.983  0.00  0.00     0.056 H 
ENDBRANCH  25  39
BRANCH  23  43
ATOM     43  C5  BNE d   1      14.015 136.601  -3.696  0.00  0.00    -0.049 C 
ATOM     44  H3  BNE d   1      12.918 136.553  -3.756  0.00  0.00     0.034 H 
ATOM     45  H4  BNE d   1      14.359 137.586  -4.044  0.00  0.00     0.034 H 
BRANCH  43  46
ATOM     46  C11 BNE d   1      14.407 136.469  -2.208  0.00  0.00    -0.075 C 
ATOM     47  H9  BNE d   1      13.940 137.281  -1.632  0.00  0.00     0.027 H 
ATOM     48  H10 BNE d   1      15.501 136.532  -2.110  0.00  0.00     0.027 H 
ATOM     49  H11 BNE d   1      14.060 135.499  -1.822  0.00  0.00     0.027 H 
ENDBRANCH  43  46
ENDBRANCH  23  43
ENDBRANCH  15  23
ENDBRANCH  12  13
ENDBRANCH   1  12
BRANCH   6  50
ATOM     50  C27 BNE d   1      19.322 134.693   0.293  0.00  0.00     0.190 C 
BRANCH  50  51
ATOM     51  C28 BNE d   1      19.308 133.839   1.561  0.00  0.00     0.070 A 
ATOM     52  N31 BNE d   1      20.094 132.724   1.793  0.00  0.00    -0.346 N 
ATOM     53  C33 BNE d   1      19.752 132.271   3.023  0.00  0.00     0.065 A 
ATOM     54  NZ  BNE d   1      18.825 132.969   3.643  0.00  0.00    -0.254 NA
ATOM     55  H31 BNE d   1      20.212 131.390   3.468  0.00  0.00     0.143 H 
ATOM     56  C32 BNE d   1      18.549 133.946   2.728  0.00  0.00     0.028 A 
ATOM     57  H30 BNE d   1      17.811 134.730   2.893  0.00  0.00     0.117 H 
BRANCH  52  58
ATOM     58  C34 BNE d   1      21.108 132.052   0.994  0.00  0.00    -0.013 C 
ATOM     59  H32 BNE d   1      21.230 132.580   0.037  0.00  0.00     0.057 H 
ATOM     60  H33 BNE d   1      20.796 131.014   0.803  0.00  0.00     0.057 H 
ATOM     61  H34 BNE d   1      22.064 132.053   1.538  0.00  0.00     0.057 H 
ENDBRANCH  52  58
ENDBRANCH  50  51
BRANCH  50  62
ATOM     62  C29 BNE d   1      18.219 135.794   0.425  0.00  0.00    -0.036 C 
ATOM     63  H24 BNE d   1      18.215 136.419  -0.480  0.00  0.00     0.032 H 
ATOM     64  H25 BNE d   1      18.431 136.422   1.303  0.00  0.00     0.032 H 
ATOM     65  H26 BNE d   1      17.236 135.316   0.545  0.00  0.00     0.032 H 
ENDBRANCH  50  62
BRANCH  50  66
ATOM     66  N30 BNE d   1      20.633 135.348   0.253  0.00  0.00    -0.061 N 
ATOM     67  H27 BNE d   1      21.355 134.650   0.168  0.00  0.00     0.276 HD
ATOM     68  H28 BNE d   1      20.772 135.873   1.102  0.00  0.00     0.276 HD
ATOM     69  H29 BNE d   1      20.673 135.971  -0.538  0.00  0.00     0.276 HD
ENDBRANCH  50  66
ENDBRANCH   6  50
TORSDOF 11
