REMARK  11 active torsions:
REMARK  status: ('A' for Active; 'I' for Inactive)
REMARK    1  A    between atoms: C1_4  and  N_1 
REMARK    2  A    between atoms: C_2  and  C6_13 
REMARK    3  A    between atoms: C1_4  and  C_2 
REMARK    4  A    between atoms: C1_4  and  C2_5 
REMARK    5  A    between atoms: C5_12  and  O3_8 
REMARK    6  A    between atoms: O3_8  and  C4_11 
REMARK    7  A    between atoms: C3_10  and  C11_17 
REMARK    8  A    between atoms: C3_10  and  C10_16 
REMARK    9  A    between atoms: C3_10  and  C9_15 
REMARK   10  A    between atoms: C7_14  and  C3_10 
REMARK   11  A    between atoms: C4_11  and  P_18 
ROOT
ATOM      1  O2  AT1 d   1       6.284  30.732   1.026  0.00  0.00    -0.214 OA
ATOM      2  N1  AT1 d   1       7.287  29.745   0.881  0.00  0.00    -0.102 NA
ATOM      3  C5  AT1 d   1       7.508  29.709  -0.408  0.00  0.00     0.200 A 
ATOM      4  C6  AT1 d   1       6.705  30.628  -1.162  0.00  0.00     0.032 A 
ATOM      5  C7  AT1 d   1       5.946  31.247  -0.191  0.00  0.00     0.097 A 
ENDROOT
BRANCH   5   6
ATOM      6  C3  AT1 d   1       4.857  32.323  -0.098  0.00  0.00     0.001 C 
BRANCH   6   7
ATOM      7  C11 AT1 d   1       4.775  33.227  -1.329  0.00  0.00    -0.064 C 
ATOM      8  H15 AT1 d   1       5.730  33.757  -1.459  0.00  0.00     0.028 H 
ATOM      9  H16 AT1 d   1       3.965  33.959  -1.193  0.00  0.00     0.028 H 
ATOM     10  H17 AT1 d   1       4.571  32.615  -2.220  0.00  0.00     0.028 H 
ENDBRANCH   6   7
BRANCH   6  11
ATOM     11  C10 AT1 d   1       5.092  33.206   1.130  0.00  0.00    -0.064 C 
ATOM     12  H12 AT1 d   1       6.056  33.726   1.029  0.00  0.00     0.028 H 
ATOM     13  H13 AT1 d   1       5.106  32.580   2.034  0.00  0.00     0.028 H 
ATOM     14  H14 AT1 d   1       4.283  33.947   1.209  0.00  0.00     0.028 H 
ENDBRANCH   6  11
BRANCH   6  15
ATOM     15  C9  AT1 d   1       3.504  31.598   0.051  0.00  0.00    -0.064 C 
ATOM     16  H9  AT1 d   1       2.696  32.341   0.121  0.00  0.00     0.028 H 
ATOM     17  H10 AT1 d   1       3.516  30.983   0.963  0.00  0.00     0.028 H 
ATOM     18  H11 AT1 d   1       3.335  30.954  -0.824  0.00  0.00     0.028 H 
ENDBRANCH   6  15
ENDBRANCH   5   6
BRANCH   4  19
ATOM     19  C   AT1 d   1       6.814  30.737  -2.658  0.00  0.00     0.002 C 
ATOM     20  H4  AT1 d   1       5.950  31.312  -3.023  0.00  0.00     0.044 H 
ATOM     21  H5  AT1 d   1       6.783  29.721  -3.079  0.00  0.00     0.044 H 
BRANCH  19  22
ATOM     22  C1  AT1 d   1       8.096  31.425  -3.161  0.00  0.00     0.186 C 
ATOM     23  H6  AT1 d   1       8.946  31.035  -2.582  0.00  0.00     0.101 H 
BRANCH  22  24
ATOM     24  N   AT1 d   1       8.015  32.943  -2.977  0.00  0.00    -0.065 N 
ATOM     25  H1  AT1 d   1       7.851  33.155  -2.005  0.00  0.00     0.275 HD
ATOM     26  H2  AT1 d   1       7.258  33.309  -3.533  0.00  0.00     0.275 HD
ATOM     27  H3  AT1 d   1       8.882  33.364  -3.271  0.00  0.00     0.275 HD
ENDBRANCH  22  24
BRANCH  22  28
ATOM     28  C2  AT1 d   1       8.352  31.156  -4.690  0.00  0.00     0.204 C 
ATOM     29  O1  AT1 d   1       8.458  29.962  -5.060  0.00  0.00    -0.646 OA
ATOM     30  O   AT1 d   1       8.440  32.185  -5.449  0.00  0.00    -0.646 OA
ENDBRANCH  22  28
ENDBRANCH  19  22
ENDBRANCH   4  19
BRANCH   3  31
ATOM     31  O3  AT1 d   1       8.392  28.904  -1.012  0.00  0.00    -0.319 OA
BRANCH  31  32
ATOM     32  C4  AT1 d   1       9.176  27.982  -0.192  0.00  0.00     0.130 C 
ATOM     33  H7  AT1 d   1       8.782  27.970   0.835  0.00  0.00     0.096 H 
ATOM     34  H8  AT1 d   1       9.123  26.969  -0.617  0.00  0.00     0.096 H 
BRANCH  32  35
ATOM     35  P   AT1 d   1      10.886  28.552  -0.184  0.00  0.00     0.284 P 
ATOM     36  O4  AT1 d   1      10.957  29.969   0.274  0.00  0.00    -0.638 OA
ATOM     37  O5  AT1 d   1      11.602  27.546   0.674  0.00  0.00    -0.638 OA
ATOM     38  O6  AT1 d   1      11.390  28.356  -1.655  0.00  0.00    -0.638 OA
ENDBRANCH  32  35
ENDBRANCH  31  32
ENDBRANCH   3  31
TORSDOF 11
