REMARK  0 active torsions:
REMARK  status: ('A' for Active; 'I' for Inactive)
ROOT
ATOM      1 CL   BCP d   1      33.056  56.278  31.853  0.00  0.00    -0.060 Cl
ATOM      2  C6  BCP d   1      33.949  55.003  30.960  0.00  0.00     0.161 A 
ATOM      3  N1  BCP d   1      35.273  54.872  31.115  0.00  0.00    -0.208 NA
ATOM      4  C2  BCP d   1      35.995  53.929  30.465  0.00  0.00     0.201 A 
ATOM      5 BR   BCP d   1      37.846  53.892  30.802  0.00  0.00    -0.006 Br
ATOM      6  C5  BCP d   1      33.318  54.038  30.020  0.00  0.00     0.144 A 
ATOM      7  C4  BCP d   1      34.169  53.052  29.364  0.00  0.00     0.163 A 
ATOM      8  N3  BCP d   1      35.483  53.023  29.601  0.00  0.00    -0.202 NA
ATOM      9  N7  BCP d   1      32.063  53.836  29.604  0.00  0.00    -0.237 NA
ATOM     10  C8  BCP d   1      32.118  52.781  28.728  0.00  0.00     0.066 A 
ATOM     11  N9  BCP d   1      33.392  52.301  28.579  0.00  0.00    -0.333 N 
ATOM     12  H1  BCP d   1      31.250  52.373  28.212  0.00  0.00     0.143 H 
ATOM     13  H2  BCP d   1      33.691  51.517  27.981  0.00  0.00     0.168 HD
ENDROOT
TORSDOF 0
