REMARK  10 active torsions:
REMARK  status: ('A' for Active; 'I' for Inactive)
REMARK    1  A    between atoms: C2_2  and  C1_1 
REMARK    2  A    between atoms: C4_4  and  O4_15 
REMARK    3  A    between atoms: N5_12  and  C5_5 
REMARK    4  A    between atoms: C6_6  and  C7_7 
REMARK    5  A    between atoms: C7_7  and  C8_8 
REMARK    6  A    between atoms: C7_7  and  O7_17 
REMARK    7  A    between atoms: C8_8  and  C9_9 
REMARK    8  A    between atoms: C8_8  and  O8_18 
REMARK    9  A    between atoms: C9_9  and  O9_19 
REMARK   10  A    between atoms: C10_10  and  C11_11 
ROOT
ATOM      1  C2  DAN d   1      25.640  -3.228   9.050  0.00  0.00     0.144 C 
ATOM      2  C3  DAN d   1      25.510  -1.736   9.207  0.00  0.00    -0.035 C 
ATOM      3  C4  DAN d   1      24.194  -1.185   8.664  0.00  0.00     0.076 C 
ATOM      4  C5  DAN d   1      23.121  -2.264   8.661  0.00  0.00     0.067 C 
ATOM      5  C6  DAN d   1      23.661  -3.453   7.873  0.00  0.00     0.094 C 
ATOM      6  O6  DAN d   1      24.747  -4.005   8.596  0.00  0.00    -0.335 OA
ATOM      7  H1  DAN d   1      26.278  -1.113   9.662  0.00  0.00     0.085 H 
ATOM      8  H2  DAN d   1      24.350  -0.827   7.636  0.00  0.00     0.092 H 
ATOM      9  H3  DAN d   1      22.880  -2.576   9.688  0.00  0.00     0.081 H 
ATOM     10  H4  DAN d   1      24.026  -3.087   6.902  0.00  0.00     0.091 H 
ENDROOT
BRANCH   5  11
ATOM     11  C7  DAN d   1      22.600  -4.543   7.604  0.00  0.00     0.089 C 
ATOM     12  H5  DAN d   1      21.877  -4.144   6.877  0.00  0.00     0.091 H 
BRANCH  11  13
ATOM     13  C8  DAN d   1      23.191  -5.839   7.061  0.00  0.00     0.083 C 
ATOM     14  H6  DAN d   1      24.000  -6.176   7.726  0.00  0.00     0.090 H 
BRANCH  13  15
ATOM     15  C9  DAN d   1      22.102  -6.912   6.992  0.00  0.00     0.043 C 
ATOM     16  H7  DAN d   1      21.492  -6.876   7.907  0.00  0.00     0.078 H 
ATOM     17  H8  DAN d   1      22.569  -7.904   6.902  0.00  0.00     0.078 H 
BRANCH  15  18
ATOM     18  O9  DAN d   1      21.278  -6.672   5.864  0.00  0.00    -0.398 OA
ATOM     19  H16 DAN d   1      21.806  -6.703   5.075  0.00  0.00     0.209 HD
ENDBRANCH  15  18
ENDBRANCH  13  15
BRANCH  13  20
ATOM     20  O8  DAN d   1      23.699  -5.635   5.771  0.00  0.00    -0.391 OA
ATOM     21  H15 DAN d   1      22.998  -5.349   5.197  0.00  0.00     0.210 HD
ENDBRANCH  13  20
ENDBRANCH  11  13
BRANCH  11  22
ATOM     22  O7  DAN d   1      21.925  -4.903   8.797  0.00  0.00    -0.390 OA
ATOM     23  H14 DAN d   1      21.533  -4.129   9.184  0.00  0.00     0.210 HD
ENDBRANCH  11  22
ENDBRANCH   5  11
BRANCH   4  24
ATOM     24  N5  DAN d   1      21.951  -1.699   8.031  0.00  0.00    -0.362 N 
ATOM     25  C10 DAN d   1      20.705  -2.034   8.324  0.00  0.00     0.147 C 
ATOM     26  O10 DAN d   1      20.388  -3.080   9.206  0.00  0.00    -0.178 OA
ATOM     27  H12 DAN d   1      22.092  -1.006   7.324  0.00  0.00     0.162 HD
BRANCH  25  28
ATOM     28  C11 DAN d   1      19.653  -1.225   7.626  0.00  0.00    -0.015 C 
ATOM     29  H9  DAN d   1      18.657  -1.576   7.933  0.00  0.00     0.038 H 
ATOM     30  H10 DAN d   1      19.764  -1.341   6.538  0.00  0.00     0.038 H 
ATOM     31  H11 DAN d   1      19.767  -0.165   7.896  0.00  0.00     0.038 H 
ENDBRANCH  25  28
ENDBRANCH   4  24
BRANCH   3  32
ATOM     32  O4  DAN d   1      23.765  -0.117   9.472  0.00  0.00    -0.389 OA
ATOM     33  H13 DAN d   1      22.955   0.236   9.124  0.00  0.00     0.210 HD
ENDBRANCH   3  32
BRANCH   1  34
ATOM     34  C1  DAN d   1      26.842  -3.804   9.434  0.00  0.00     0.233 C 
ATOM     35  O1A DAN d   1      27.703  -3.204  10.377  0.00  0.00    -0.642 OA
ATOM     36  O1B DAN d   1      27.183  -4.930   8.897  0.00  0.00    -0.642 OA
ENDBRANCH   1  34
TORSDOF 10
