REMARK  12 active torsions:
REMARK  status: ('A' for Active; 'I' for Inactive)
REMARK    1  A    between atoms: O1_7  and  C1_1 
REMARK    2  A    between atoms: C2_2  and  O2_8 
REMARK    3  A    between atoms: C3_3  and  O3_9 
REMARK    4  A    between atoms: C4_4  and  O4_10 
REMARK    5  A    between atoms: C5_5  and  C6_6 
REMARK    6  A    between atoms: C6_6  and  O6_12 
REMARK    7  A    between atoms: C4'_16  and  O1_7 
REMARK    8  A    between atoms: C1'_13  and  O1'_19 
REMARK    9  A    between atoms: C2'_14  and  O2'_20 
REMARK   10  A    between atoms: C3'_15  and  O3'_21 
REMARK   11  A    between atoms: C5'_17  and  C6'_18 
REMARK   12  A    between atoms: C6'_18  and  O6'_23 
ROOT
ATOM      1  O1  NON d   1     113.469  31.787  24.022  0.00  0.00    -0.348 OA
ENDROOT
BRANCH   1   2
ATOM      2  C1  NON d   1     113.097  31.532  22.681  0.00  0.00     0.159 C 
ATOM      3  C2  NON d   1     113.996  30.437  22.087  0.00  0.00     0.110 C 
ATOM      4  C3  NON d   1     115.448  30.943  22.100  0.00  0.00     0.092 C 
ATOM      5  H2  NON d   1     113.690  30.239  21.049  0.00  0.00     0.094 H 
ATOM      6  C4  NON d   1     115.544  32.223  21.276  0.00  0.00     0.090 C 
ATOM      7  H3  NON d   1     115.741  31.160  23.138  0.00  0.00     0.091 H 
ATOM      8  C5  NON d   1     114.560  33.257  21.817  0.00  0.00     0.089 C 
ATOM      9  H4  NON d   1     115.295  31.999  20.228  0.00  0.00     0.091 H 
ATOM     10  O5  NON d   1     113.221  32.698  21.866  0.00  0.00    -0.348 OA
ATOM     11  H5  NON d   1     114.874  33.547  22.830  0.00  0.00     0.090 H 
ATOM     12  H1  NON d   1     112.050  31.194  22.665  0.00  0.00     0.133 H 
BRANCH   3  13
ATOM     13  O2  NON d   1     113.876  29.237  22.837  0.00  0.00    -0.388 OA
ATOM     14  H8  NON d   1     114.437  28.571  22.458  0.00  0.00     0.210 HD
ENDBRANCH   3  13
BRANCH   4  15
ATOM     15  O3  NON d   1     116.325  29.967  21.573  0.00  0.00    -0.390 OA
ATOM     16  H9  NON d   1     116.085  29.780  20.673  0.00  0.00     0.210 HD
ENDBRANCH   4  15
BRANCH   6  17
ATOM     17  O4  NON d   1     116.863  32.737  21.343  0.00  0.00    -0.390 OA
ATOM     18  H10 NON d   1     117.471  32.090  21.005  0.00  0.00     0.210 HD
ENDBRANCH   6  17
BRANCH   8  19
ATOM     19  C6  NON d   1     114.510  34.489  20.937  0.00  0.00     0.043 C 
ATOM     20  H6  NON d   1     113.963  34.248  20.013  0.00  0.00     0.078 H 
ATOM     21  H7  NON d   1     115.537  34.793  20.687  0.00  0.00     0.078 H 
BRANCH  19  22
ATOM     22  O6  NON d   1     113.856  35.566  21.594  0.00  0.00    -0.398 OA
ATOM     23  H11 NON d   1     114.326  35.782  22.391  0.00  0.00     0.209 HD
ENDBRANCH  19  22
ENDBRANCH   8  19
ENDBRANCH   1   2
BRANCH   1  24
ATOM     24  C4' NON d   1     112.439  31.784  25.038  0.00  0.00     0.096 C 
ATOM     25  C3' NON d   1     112.432  30.422  25.725  0.00  0.00     0.092 C 
ATOM     26  C2' NON d   1     111.517  30.409  26.957  0.00  0.00     0.110 C 
ATOM     27  H14 NON d   1     113.457  30.189  26.051  0.00  0.00     0.091 H 
ATOM     28  C1' NON d   1     111.842  31.577  27.897  0.00  0.00     0.156 C 
ATOM     29  H13 NON d   1     110.472  30.500  26.625  0.00  0.00     0.094 H 
ATOM     30  O5' NON d   1     111.796  32.818  27.187  0.00  0.00    -0.349 OA
ATOM     31  H12 NON d   1     111.112  31.594  28.720  0.00  0.00     0.133 H 
ATOM     32  C5' NON d   1     112.740  32.880  26.084  0.00  0.00     0.089 C 
ATOM     33  H16 NON d   1     113.757  32.712  26.468  0.00  0.00     0.090 H 
ATOM     34  H15 NON d   1     111.459  31.973  24.575  0.00  0.00     0.091 H 
BRANCH  25  35
ATOM     35  O3' NON d   1     112.008  29.435  24.798  0.00  0.00    -0.390 OA
ATOM     36  H21 NON d   1     112.606  29.418  24.060  0.00  0.00     0.210 HD
ENDBRANCH  25  35
BRANCH  26  37
ATOM     37  O2' NON d   1     111.679  29.182  27.657  0.00  0.00    -0.388 OA
ATOM     38  H20 NON d   1     111.450  28.459  27.085  0.00  0.00     0.210 HD
ENDBRANCH  26  37
BRANCH  28  39
ATOM     39  O1' NON d   1     113.114  31.428  28.404  0.00  0.00    -0.369 OA
ATOM     40  H19 NON d   1     113.307  32.151  28.990  0.00  0.00     0.212 HD
ENDBRANCH  28  39
BRANCH  32  41
ATOM     41  C6' NON d   1     112.658  34.290  25.514  0.00  0.00     0.043 C 
ATOM     42  H17 NON d   1     111.610  34.623  25.531  0.00  0.00     0.078 H 
ATOM     43  H18 NON d   1     113.023  34.279  24.476  0.00  0.00     0.078 H 
BRANCH  41  44
ATOM     44  O6' NON d   1     113.446  35.201  26.273  0.00  0.00    -0.398 OA
ATOM     45  H22 NON d   1     113.376  36.070  25.895  0.00  0.00     0.209 HD
ENDBRANCH  41  44
ENDBRANCH  32  41
ENDBRANCH   1  24
TORSDOF 12
