REMARK  6 active torsions:
REMARK  status: ('A' for Active; 'I' for Inactive)
REMARK    1  A    between atoms: C1'_21  and  N1_1 
REMARK    2  A    between atoms: O3'_18  and  P_9 
REMARK    3  A    between atoms: C5'_14  and  O5'_13 
REMARK    4  A    between atoms: C4'_15  and  C5'_14 
REMARK    5  A    between atoms: C3'_17  and  O3'_18 
REMARK    6  A    between atoms: C2'_19  and  O2'_20 
ROOT
ATOM      1  C4' U3P d   1      20.060   4.780  12.177  0.00  0.00     0.089 C 
ATOM      2  O4' U3P d   1      21.176   4.593  11.287  0.00  0.00    -0.353 OA
ATOM      3  C3' U3P d   1      20.570   4.661  13.606  0.00  0.00     0.107 C 
ATOM      4  C2' U3P d   1      22.074   4.418  13.478  0.00  0.00     0.106 C 
ATOM      5  C1' U3P d   1      22.218   4.013  12.013  0.00  0.00     0.141 C 
ATOM      6  H7  U3P d   1      19.309   3.996  11.998  0.00  0.00     0.090 H 
ATOM      7  H8  U3P d   1      20.333   5.551  14.207  0.00  0.00     0.092 H 
ATOM      8  H9  U3P d   1      22.606   5.363  13.662  0.00  0.00     0.093 H 
ATOM      9  H11 U3P d   1      22.101   2.920  11.975  0.00  0.00     0.123 H 
ENDROOT
BRANCH   5  10
ATOM     10  N1  U3P d   1      23.493   4.323  11.348  0.00  0.00    -0.280 N 
ATOM     11  C2  U3P d   1      24.336   3.266  11.082  0.00  0.00     0.331 A 
ATOM     12  N3  U3P d   1      25.478   3.613  10.406  0.00  0.00    -0.275 N 
ATOM     13  O2  U3P d   1      24.112   2.114  11.426  0.00  0.00    -0.246 OA
ATOM     14  C4  U3P d   1      25.846   4.879  10.000  0.00  0.00     0.250 A 
ATOM     15  H1  U3P d   1      26.110   2.870  10.184  0.00  0.00     0.173 HD
ATOM     16  C5  U3P d   1      24.927   5.908  10.350  0.00  0.00    -0.002 A 
ATOM     17  O4  U3P d   1      26.866   5.023   9.340  0.00  0.00    -0.268 OA
ATOM     18  C6  U3P d   1      23.805   5.602  10.990  0.00  0.00    -0.008 A 
ATOM     19  H2  U3P d   1      25.144   6.944  10.093  0.00  0.00     0.094 H 
ATOM     20  H3  U3P d   1      23.108   6.401  11.238  0.00  0.00     0.112 H 
ENDBRANCH   5  10
BRANCH   4  21
ATOM     21  O2' U3P d   1      22.627   3.457  14.329  0.00  0.00    -0.388 OA
ATOM     22  H10 U3P d   1      22.214   2.617  14.167  0.00  0.00     0.210 HD
ENDBRANCH   4  21
BRANCH   1  23
ATOM     23  C5' U3P d   1      19.433   6.126  11.904  0.00  0.00     0.043 C 
ATOM     24  H5  U3P d   1      19.123   6.179  10.850  0.00  0.00     0.078 H 
ATOM     25  H6  U3P d   1      18.554   6.260  12.552  0.00  0.00     0.078 H 
BRANCH  23  26
ATOM     26  O5' U3P d   1      20.397   7.169  12.177  0.00  0.00    -0.398 OA
ATOM     27  H4  U3P d   1      20.664   7.122  13.087  0.00  0.00     0.209 HD
ENDBRANCH  23  26
ENDBRANCH   1  23
BRANCH   3  28
ATOM     28  O3' U3P d   1      20.029   3.462  14.179  0.00  0.00    -0.272 OA
BRANCH  28  29
ATOM     29  P   U3P d   1      18.786   3.504  15.195  0.00  0.00     0.422 P 
ATOM     30  O1P U3P d   1      18.985   2.313  16.076  0.00  0.00    -0.617 OA
ATOM     31  O2P U3P d   1      17.521   3.640  14.419  0.00  0.00    -0.617 OA
ATOM     32  O3P U3P d   1      19.018   4.810  16.072  0.00  0.00    -0.617 OA
ENDBRANCH  28  29
ENDBRANCH   3  28
TORSDOF 6
