REMARK  5 active torsions:
REMARK  status: ('A' for Active; 'I' for Inactive)
REMARK    1  A    between atoms: C11_1  and  C10_4 
REMARK    2  A    between atoms: C10_4  and  C9_5 
REMARK    3  A    between atoms: C9_5  and  C8_6 
REMARK    4  A    between atoms: C8_6  and  C7_7 
REMARK    5  A    between atoms: C7_7  and  C2_8 
ROOT
ATOM      1  C2  BTN d   1      10.786 -13.066  23.894  0.00  0.00     0.012 C 
ATOM      2  S1  BTN d   1      11.991 -14.002  22.887  0.00  0.00    -0.160 SA
ATOM      3  C6  BTN d   1      12.374 -12.482  21.952  0.00  0.00    -0.002 C 
ATOM      4  C5  BTN d   1      12.406 -11.356  22.971  0.00  0.00     0.042 A 
ATOM      5  N1  BTN d   1      13.686 -11.182  23.621  0.00  0.00    -0.336 N 
ATOM      6  C3  BTN d   1      13.623 -11.404  24.938  0.00  0.00     0.316 A 
ATOM      7  O3  BTN d   1      14.577 -11.306  25.746  0.00  0.00    -0.247 OA
ATOM      8  N2  BTN d   1      12.354 -11.718  25.276  0.00  0.00    -0.335 N 
ATOM      9  C4  BTN d   1      11.459 -11.730  24.132  0.00  0.00     0.046 A 
ATOM     10  H9  BTN d   1       9.934 -12.853  23.232  0.00  0.00     0.059 H 
ATOM     11  H10 BTN d   1      11.596 -12.292  21.198  0.00  0.00     0.052 H 
ATOM     12  H11 BTN d   1      13.351 -12.575  21.456  0.00  0.00     0.052 H 
ATOM     13  H12 BTN d   1      12.096 -10.418  22.486  0.00  0.00     0.077 H 
ATOM     14  H13 BTN d   1      14.524 -10.925  23.140  0.00  0.00     0.164 HD
ATOM     15  H14 BTN d   1      12.062 -11.920  26.211  0.00  0.00     0.164 HD
ATOM     16  H15 BTN d   1      10.677 -10.966  24.255  0.00  0.00     0.077 H 
ENDROOT
BRANCH   1  17
ATOM     17  C7  BTN d   1      10.149 -13.800  25.053  0.00  0.00    -0.051 C 
ATOM     18  H7  BTN d   1      10.934 -14.401  25.537  0.00  0.00     0.034 H 
ATOM     19  H8  BTN d   1       9.777 -13.044  25.760  0.00  0.00     0.034 H 
BRANCH  17  20
ATOM     20  C8  BTN d   1       8.969 -14.751  24.722  0.00  0.00    -0.063 C 
ATOM     21  H5  BTN d   1       8.107 -14.142  24.412  0.00  0.00     0.033 H 
ATOM     22  H6  BTN d   1       9.272 -15.407  23.893  0.00  0.00     0.033 H 
BRANCH  20  23
ATOM     23  C9  BTN d   1       8.546 -15.625  25.902  0.00  0.00    -0.056 C 
ATOM     24  H3  BTN d   1       9.447 -16.024  26.392  0.00  0.00     0.033 H 
ATOM     25  H4  BTN d   1       7.982 -15.010  26.618  0.00  0.00     0.033 H 
BRANCH  23  26
ATOM     26  C10 BTN d   1       7.670 -16.789  25.451  0.00  0.00     0.016 C 
ATOM     27  H1  BTN d   1       8.268 -17.444  24.800  0.00  0.00     0.049 H 
ATOM     28  H2  BTN d   1       7.350 -17.350  26.341  0.00  0.00     0.049 H 
BRANCH  26  29
ATOM     29  C11 BTN d   1       6.462 -16.360  24.706  0.00  0.00     0.172 C 
ATOM     30  O11 BTN d   1       5.964 -15.251  25.022  0.00  0.00    -0.648 OA
ATOM     31  O12 BTN d   1       5.956 -17.076  23.804  0.00  0.00    -0.648 OA
ENDBRANCH  26  29
ENDBRANCH  23  26
ENDBRANCH  20  23
ENDBRANCH  17  20
ENDBRANCH   1  17
TORSDOF 5
