REMARK WARNING: 32 MAX_TORS EXCEEDED!!!
REMARK  76 active torsions:
REMARK  status: ('A' for Active; 'I' for Inactive)
REMARK    1  A    between atoms: N_1  and  CA_2 
REMARK    2  A    between atoms: CA_2  and  C_3 
REMARK    3  A    between atoms: CA_2  and  CB_5 
REMARK       I    between atoms: C_3  and  N_9 
REMARK    4  A    between atoms: CB_5  and  CG_6 
REMARK    5  A    between atoms: N_9  and  CA_10 
REMARK    6  A    between atoms: CA_10  and  C_11 
REMARK    7  A    between atoms: CA_10  and  CB_13 
REMARK       I    between atoms: C_11  and  N_17 
REMARK    8  A    between atoms: CB_13  and  CG_14 
REMARK    9  A    between atoms: N_17  and  CA_18 
REMARK   10  A    between atoms: CA_18  and  C_19 
REMARK   11  A    between atoms: CA_18  and  CB_21 
REMARK       I    between atoms: C_19  and  N_29 
REMARK   12  A    between atoms: CB_21  and  CG_22 
REMARK   13  A    between atoms: CZ_27  and  OH_28 
REMARK   14  A    between atoms: N_29  and  CA_30 
REMARK   15  A    between atoms: CA_30  and  C_31 
REMARK   16  A    between atoms: CA_30  and  CB_33 
REMARK       I    between atoms: C_31  and  N_37 
REMARK   17  A    between atoms: CB_33  and  CG_34 
REMARK   18  A    between atoms: CG_34  and  CD1_35 
REMARK   19  A    between atoms: CG_34  and  CD2_36 
REMARK   20  A    between atoms: N_37  and  CA_38 
REMARK   21  A    between atoms: CA_38  and  C_39 
REMARK   22  A    between atoms: CA_38  and  CB_41 
REMARK       I    between atoms: C_39  and  N_51 
REMARK   23  A    between atoms: CB_41  and  CG_42 
REMARK   24  A    between atoms: N_51  and  CA_52 
REMARK   25  A    between atoms: CA_52  and  C_53 
REMARK       I    between atoms: C_53  and  N_55 
REMARK   26  A    between atoms: N_55  and  CA_56 
REMARK   27  A    between atoms: CA_56  and  C_57 
REMARK   28  A    between atoms: CA_56  and  CB_59 
REMARK       I    between atoms: C_57  and  N_63 
REMARK   29  A    between atoms: CB_59  and  CG_60 
REMARK   30  A    between atoms: CG_60  and  CD1_61 
REMARK   31  A    between atoms: CG_60  and  CD2_62 
REMARK   32  A    between atoms: N_63  and  CA_64 
REMARK   33  A    between atoms: CA_64  and  C_65 
REMARK   34  A    between atoms: CA_64  and  CB_67 
REMARK       I    between atoms: C_65  and  N_72 
REMARK   35  A    between atoms: CB_67  and  CG_68 
REMARK   36  A    between atoms: CG_68  and  CD_69 
REMARK   37  A    between atoms: N_72  and  CA_73 
REMARK   38  A    between atoms: CA_73  and  C_74 
REMARK   39  A    between atoms: CA_73  and  CB_76 
REMARK       I    between atoms: C_74  and  N_77 
REMARK   40  A    between atoms: N_77  and  CA_78 
REMARK   41  A    between atoms: CA_78  and  C_79 
REMARK       I    between atoms: C_79  and  N_81 
REMARK   42  A    between atoms: N_81  and  CA_82 
REMARK   43  A    between atoms: CA_82  and  C_83 
REMARK   44  A    between atoms: CA_82  and  CB_85 
REMARK       I    between atoms: C_83  and  N_90 
REMARK   45  A    between atoms: CB_85  and  CG_86 
REMARK   46  A    between atoms: CG_86  and  CD_87 
REMARK   47  A    between atoms: N_90  and  CA_91 
REMARK   48  A    between atoms: CA_91  and  C_92 
REMARK       I    between atoms: C_92  and  N_94 
REMARK   49  A    between atoms: N_94  and  CA_95 
REMARK   50  A    between atoms: CA_95  and  C_96 
REMARK   51  A    between atoms: CA_95  and  CB_98 
REMARK       I    between atoms: C_96  and  N_102 
REMARK   52  A    between atoms: CB_98  and  CG1_99 
REMARK   53  A    between atoms: CB_98  and  CG2_100 
REMARK   54  A    between atoms: CG1_99  and  CD1_101 
REMARK   55  A    between atoms: N_102  and  CA_103 
REMARK   56  A    between atoms: CA_103  and  C_104 
REMARK   57  A    between atoms: CA_103  and  CB_106 
REMARK       I    between atoms: C_104  and  N_108 
REMARK   58  A    between atoms: CB_106  and  OG_107 
REMARK   59  A    between atoms: N_108  and  CA_109 
REMARK   60  A    between atoms: CA_109  and  C_110 
REMARK   61  A    between atoms: CA_109  and  CB_112 
REMARK       I    between atoms: C_110  and  N_116 
REMARK   62  A    between atoms: CB_112  and  CG_113 
REMARK   63  A    between atoms: N_116  and  CA_117 
REMARK   64  A    between atoms: CA_117  and  C_118 
REMARK   65  A    between atoms: CA_117  and  CB_120 
REMARK       I    between atoms: C_118  and  N_124 
REMARK   66  A    between atoms: CB_120  and  CG_121 
REMARK   67  A    between atoms: CG_121  and  CD1_122 
REMARK   68  A    between atoms: CG_121  and  CD2_123 
REMARK   69  A    between atoms: N_124  and  CA_125 
REMARK   70  A    between atoms: CA_125  and  C_126 
REMARK   71  A    between atoms: CA_125  and  CB_128 
REMARK       I    between atoms: C_126  and  N_135 
REMARK   72  A    between atoms: CB_128  and  CG_129 
REMARK   73  A    between atoms: N_135  and  CA_136 
REMARK   74  A    between atoms: CA_136  and  C_137 
REMARK   75  A    between atoms: CA_136  and  CB_139 
REMARK   76  A    between atoms: CB_139  and  CG_140 
ROOT
ATOM      1  C   GLU d   1     -17.001   8.412   0.735  0.00  0.00     0.241 C 
ATOM      2  O   GLU d   1     -16.157   9.087   1.323  0.00  0.00    -0.271 OA
ATOM      3  N   ALA d   1     -18.188   8.901   0.400  0.00  0.00    -0.346 N 
ATOM      4  H61 ALA d   1     -18.850   8.320  -0.073  0.00  0.00     0.163 HD
ENDROOT
BRANCH   3   5
ATOM      5  CA  ALA d   1     -18.532  10.283   0.718  0.00  0.00     0.086 C 
ATOM      6  H62 ALA d   1     -17.920  10.947   0.090  0.00  0.00     0.086 H 
BRANCH   5   7
ATOM      7  C   ALA d   1     -18.235  10.588   2.176  0.00  0.00     0.240 C 
ATOM      8  O   ALA d   1     -18.601   9.830   3.074  0.00  0.00    -0.271 OA
ATOM      9  N   GLY d   1     -17.562  11.705   2.405  0.00  0.00    -0.351 N 
ATOM     10  H66 GLY d   1     -17.283  12.282   1.637  0.00  0.00     0.163 HD
BRANCH   9  11
ATOM     11  CA  GLY d   1     -17.226  12.098   3.758  0.00  0.00     0.069 C 
ATOM     12  H67 GLY d   1     -18.155  12.418   4.252  0.00  0.00     0.078 H 
ATOM     13  H68 GLY d   1     -16.532  12.949   3.695  0.00  0.00     0.078 H 
BRANCH  11  14
ATOM     14  C   GLY d   1     -16.579  11.040   4.636  0.00  0.00     0.236 C 
ATOM     15  O   GLY d   1     -17.166  10.647   5.641  0.00  0.00    -0.272 OA
ATOM     16  N   GLU d   1     -15.384  10.572   4.278  0.00  0.00    -0.346 N 
ATOM     17  H69 GLU d   1     -14.954  10.899   3.437  0.00  0.00     0.163 HD
BRANCH  16  18
ATOM     18  CA  GLU d   1     -14.698   9.584   5.106  0.00  0.00     0.090 C 
ATOM     19  H70 GLU d   1     -15.377   9.330   5.934  0.00  0.00     0.087 H 
BRANCH  18  20
ATOM     20  C   GLU d   1     -13.402  10.118   5.730  0.00  0.00     0.240 C 
ATOM     21  O   GLU d   1     -12.992   9.669   6.799  0.00  0.00    -0.271 OA
ATOM     22  N   GLY d   1     -12.765  11.078   5.073  0.00  0.00    -0.351 N 
ATOM     23  H75 GLY d   1     -13.125  11.398   4.197  0.00  0.00     0.163 HD
BRANCH  22  24
ATOM     24  CA  GLY d   1     -11.549  11.672   5.610  0.00  0.00     0.069 C 
ATOM     25  H76 GLY d   1     -11.867  12.400   6.371  0.00  0.00     0.078 H 
ATOM     26  H77 GLY d   1     -11.066  12.202   4.776  0.00  0.00     0.078 H 
BRANCH  24  27
ATOM     27  C   GLY d   1     -10.473  10.813   6.257  0.00  0.00     0.236 C 
ATOM     28  O   GLY d   1     -10.693   9.681   6.670  0.00  0.00    -0.272 OA
ATOM     29  N   ILE d   1      -9.287  11.394   6.361  0.00  0.00    -0.346 N 
ATOM     30  H78 ILE d   1      -9.182  12.331   6.028  0.00  0.00     0.163 HD
BRANCH  29  31
ATOM     31  CA  ILE d   1      -8.130  10.726   6.939  0.00  0.00     0.092 C 
ATOM     32  H79 ILE d   1      -7.934   9.821   6.346  0.00  0.00     0.088 H 
BRANCH  31  33
ATOM     33  C   ILE d   1      -8.349  10.293   8.397  0.00  0.00     0.241 C 
ATOM     34  O   ILE d   1      -7.782   9.297   8.843  0.00  0.00    -0.271 OA
ATOM     35  N   SER d   1      -9.179  11.034   9.130  0.00  0.00    -0.344 N 
ATOM     36  H89 SER d   1      -9.626  11.822   8.707  0.00  0.00     0.163 HD
BRANCH  35  37
ATOM     37  CA  SER d   1      -9.458  10.731  10.534  0.00  0.00     0.109 C 
ATOM     38  H90 SER d   1      -8.500  10.754  11.073  0.00  0.00     0.090 H 
BRANCH  37  39
ATOM     39  C   SER d   1     -10.082   9.377  10.749  0.00  0.00     0.243 C 
ATOM     40  O   SER d   1      -9.993   8.813  11.830  0.00  0.00    -0.271 OA
ATOM     41  N   ASP d   1     -10.737   8.863   9.725  0.00  0.00    -0.345 N 
ATOM     42  H94 ASP d   1     -10.794   9.370   8.865  0.00  0.00     0.163 HD
BRANCH  41  43
ATOM     43  CA  ASP d   1     -11.368   7.577   9.842  0.00  0.00     0.098 C 
ATOM     44  H95 ASP d   1     -11.719   7.444  10.876  0.00  0.00     0.088 H 
BRANCH  43  45
ATOM     45  C   ASP d   1     -10.386   6.472   9.513  0.00  0.00     0.241 C 
ATOM     46  O   ASP d   1     -10.779   5.324   9.372  0.00  0.00    -0.271 OA
ATOM     47  N   LEU d   1      -9.108   6.816   9.402  0.00  0.00    -0.346 N 
ATOM     48  H98 LEU d   1      -8.842   7.769   9.547  0.00  0.00     0.163 HD
BRANCH  47  49
ATOM     49  CA  LEU d   1      -8.081   5.828   9.071  0.00  0.00     0.089 C 
ATOM     50  H99 LEU d   1      -8.576   4.854   8.940  0.00  0.00     0.087 H 
BRANCH  49  51
ATOM     51  C   LEU d   1      -7.034   5.680  10.159  0.00  0.00     0.241 C 
ATOM     52  O   LEU d   1      -6.269   4.718  10.174  0.00  0.00    -0.271 OA
ATOM     53  N   PHE d   1      -6.994   6.660  11.051  0.00  0.00    -0.346 N 
ATOM     54 9H10 PHE d   1      -7.622   7.431  10.950  0.00  0.00     0.163 HD
BRANCH  53  55
ATOM     55  CA  PHE d   1      -6.068   6.651  12.171  0.00  0.00     0.093 C 
ATOM     56 0H11 PHE d   1      -5.575   5.669  12.224  0.00  0.00     0.088 H 
BRANCH  55  57
ATOM     57  C   PHE d   1      -6.858   6.881  13.458  0.00  0.00     0.241 C 
ATOM     58  O   PHE d   1      -7.851   7.606  13.456  0.00  0.00    -0.271 OA
ATOM     59  N   ASP d   1      -6.419   6.243  14.543  0.00  0.00    -0.344 N 
ATOM     60 8H11 ASP d   1      -5.606   5.667  14.458  0.00  0.00     0.163 HD
BRANCH  59  61
ATOM     61  CA  ASP d   1      -7.067   6.342  15.857  0.00  0.00     0.105 C 
ATOM     62 9H11 ASP d   1      -8.155   6.283  15.703  0.00  0.00     0.090 H 
BRANCH  61  63
ATOM     63  C   ASP d   1      -6.760   7.640  16.580  0.00  0.00     0.197 C 
ATOM     64  O   ASP d   1      -6.255   7.561  17.721  0.00  0.00    -0.646 OA
ATOM     65  OXT ASP d   1      -7.037   8.712  16.008  0.00  0.00    -0.646 OA
ENDBRANCH  61  63
BRANCH  61  66
ATOM     66  CB  ASP d   1      -6.630   5.176  16.748  0.00  0.00     0.044 C 
ATOM     67 0H12 ASP d   1      -6.886   5.415  17.791  0.00  0.00     0.053 H 
ATOM     68 1H12 ASP d   1      -5.541   5.053  16.657  0.00  0.00     0.053 H 
BRANCH  66  69
ATOM     69  CG  ASP d   1      -7.298   3.872  16.372  0.00  0.00     0.175 C 
ATOM     70  OD1 ASP d   1      -6.833   2.808  16.838  0.00  0.00    -0.648 OA
ATOM     71  OD2 ASP d   1      -8.294   3.913  15.617  0.00  0.00    -0.648 OA
ENDBRANCH  66  69
ENDBRANCH  61  66
ENDBRANCH  59  61
ENDBRANCH  55  57
BRANCH  55  72
ATOM     72  CB  PHE d   1      -4.995   7.729  11.983  0.00  0.00    -0.014 C 
ATOM     73 1H11 PHE d   1      -4.412   7.804  12.912  0.00  0.00     0.043 H 
ATOM     74 2H11 PHE d   1      -5.497   8.688  11.786  0.00  0.00     0.043 H 
BRANCH  72  75
ATOM     75  CG  PHE d   1      -4.044   7.446  10.845  0.00  0.00    -0.056 A 
ATOM     76  CD1 PHE d   1      -4.367   7.811   9.542  0.00  0.00    -0.077 A 
ATOM     77  CE1 PHE d   1      -3.502   7.552   8.497  0.00  0.00    -0.082 A 
ATOM     78 3H11 PHE d   1      -5.311   8.306   9.344  0.00  0.00     0.084 H 
ATOM     79  CZ  PHE d   1      -2.282   6.910   8.738  0.00  0.00    -0.083 A 
ATOM     80 5H11 PHE d   1      -3.768   7.846   7.488  0.00  0.00     0.083 H 
ATOM     81  CE2 PHE d   1      -1.948   6.533  10.039  0.00  0.00    -0.082 A 
ATOM     82 7H11 PHE d   1      -1.601   6.707   7.919  0.00  0.00     0.083 H 
ATOM     83  CD2 PHE d   1      -2.827   6.803  11.082  0.00  0.00    -0.077 A 
ATOM     84 6H11 PHE d   1      -1.007   6.032  10.236  0.00  0.00     0.083 H 
ATOM     85 4H11 PHE d   1      -2.564   6.511  12.092  0.00  0.00     0.084 H 
ENDBRANCH  72  75
ENDBRANCH  55  72
ENDBRANCH  53  55
ENDBRANCH  49  51
BRANCH  49  86
ATOM     86  CB  LEU d   1      -7.407   6.209   7.768  0.00  0.00    -0.035 C 
ATOM     87 0H10 LEU d   1      -6.633   5.466   7.524  0.00  0.00     0.037 H 
ATOM     88 1H10 LEU d   1      -6.943   7.201   7.871  0.00  0.00     0.037 H 
BRANCH  86  89
ATOM     89  CG  LEU d   1      -8.440   6.246   6.660  0.00  0.00    -0.059 C 
ATOM     90 2H10 LEU d   1      -9.217   6.981   6.918  0.00  0.00     0.038 H 
BRANCH  89  91
ATOM     91  CD1 LEU d   1      -7.791   6.673   5.375  0.00  0.00    -0.073 C 
ATOM     92 3H10 LEU d   1      -8.545   6.698   4.574  0.00  0.00     0.028 H 
ATOM     93 4H10 LEU d   1      -6.998   5.958   5.110  0.00  0.00     0.028 H 
ATOM     94 5H10 LEU d   1      -7.355   7.675   5.500  0.00  0.00     0.028 H 
ENDBRANCH  89  91
BRANCH  89  95
ATOM     95  CD2 LEU d   1      -9.085   4.882   6.544  0.00  0.00    -0.073 C 
ATOM     96 6H10 LEU d   1      -9.546   4.612   7.505  0.00  0.00     0.028 H 
ATOM     97 7H10 LEU d   1      -8.320   4.136   6.281  0.00  0.00     0.028 H 
ATOM     98 8H10 LEU d   1      -9.857   4.907   5.761  0.00  0.00     0.028 H 
ENDBRANCH  89  95
ENDBRANCH  86  89
ENDBRANCH  49  86
ENDBRANCH  47  49
ENDBRANCH  43  45
BRANCH  43  99
ATOM     99  CB  ASP d   1     -12.557   7.513   8.904  0.00  0.00     0.043 C 
ATOM    100  H96 ASP d   1     -13.020   6.519   8.989  0.00  0.00     0.052 H 
ATOM    101  H97 ASP d   1     -12.203   7.666   7.874  0.00  0.00     0.052 H 
BRANCH  99 102
ATOM    102  CG  ASP d   1     -13.601   8.565   9.221  0.00  0.00     0.175 C 
ATOM    103  OD1 ASP d   1     -14.386   8.909   8.318  0.00  0.00    -0.648 OA
ATOM    104  OD2 ASP d   1     -13.649   9.040  10.374  0.00  0.00    -0.648 OA
ENDBRANCH  99 102
ENDBRANCH  43  99
ENDBRANCH  41  43
ENDBRANCH  37  39
BRANCH  37 105
ATOM    105  CB  SER d   1     -10.387  11.778  11.146  0.00  0.00     0.044 C 
ATOM    106  H91 SER d   1     -10.767  11.404  12.108  0.00  0.00     0.077 H 
ATOM    107  H92 SER d   1     -11.230  11.955  10.462  0.00  0.00     0.077 H 
BRANCH 105 108
ATOM    108  OG  SER d   1      -9.702  12.993  11.360  0.00  0.00    -0.398 OA
ATOM    109  H93 SER d   1      -9.375  13.321  10.531  0.00  0.00     0.209 HD
ENDBRANCH 105 108
ENDBRANCH  37 105
ENDBRANCH  35  37
ENDBRANCH  31  33
BRANCH  31 110
ATOM    110  CB  ILE d   1      -6.882  11.655   6.846  0.00  0.00    -0.030 C 
ATOM    111  H80 ILE d   1      -6.781  12.009   5.809  0.00  0.00     0.043 H 
BRANCH 110 112
ATOM    112  CG1 ILE d   1      -5.611  10.894   7.234  0.00  0.00    -0.063 C 
ATOM    113  H81 ILE d   1      -5.755  10.474   8.240  0.00  0.00     0.033 H 
ATOM    114  H82 ILE d   1      -4.774  11.607   7.250  0.00  0.00     0.033 H 
BRANCH 112 115
ATOM    115  CD1 ILE d   1      -5.252   9.763   6.295  0.00  0.00    -0.076 C 
ATOM    116  H86 ILE d   1      -4.332   9.273   6.646  0.00  0.00     0.027 H 
ATOM    117  H87 ILE d   1      -5.091  10.164   5.283  0.00  0.00     0.027 H 
ATOM    118  H88 ILE d   1      -6.072   9.030   6.273  0.00  0.00     0.027 H 
ENDBRANCH 112 115
ENDBRANCH 110 112
BRANCH 110 119
ATOM    119  CG2 ILE d   1      -7.058  12.858   7.766  0.00  0.00    -0.071 C 
ATOM    120  H83 ILE d   1      -7.971  13.403   7.486  0.00  0.00     0.028 H 
ATOM    121  H84 ILE d   1      -6.189  13.525   7.668  0.00  0.00     0.028 H 
ATOM    122  H85 ILE d   1      -7.141  12.514   8.807  0.00  0.00     0.028 H 
ENDBRANCH 110 119
ENDBRANCH  31 110
ENDBRANCH  29  31
ENDBRANCH  24  27
ENDBRANCH  22  24
ENDBRANCH  18  20
BRANCH  18 123
ATOM    123  CB  GLU d   1     -14.425   8.297   4.321  0.00  0.00    -0.029 C 
ATOM    124  H71 GLU d   1     -13.486   7.854   4.685  0.00  0.00     0.037 H 
ATOM    125  H72 GLU d   1     -14.322   8.549   3.255  0.00  0.00     0.037 H 
BRANCH 123 126
ATOM    126  CG  GLU d   1     -15.544   7.269   4.476  0.00  0.00     0.018 C 
ATOM    127  H73 GLU d   1     -16.442   7.653   3.970  0.00  0.00     0.049 H 
ATOM    128  H74 GLU d   1     -15.754   7.141   5.548  0.00  0.00     0.049 H 
BRANCH 126 129
ATOM    129  CD  GLU d   1     -15.203   5.911   3.887  0.00  0.00     0.172 C 
ATOM    130  OE1 GLU d   1     -15.589   4.883   4.493  0.00  0.00    -0.648 OA
ATOM    131  OE2 GLU d   1     -14.548   5.868   2.822  0.00  0.00    -0.648 OA
ENDBRANCH 126 129
ENDBRANCH 123 126
ENDBRANCH  18 123
ENDBRANCH  16  18
ENDBRANCH  11  14
ENDBRANCH   9  11
ENDBRANCH   5   7
BRANCH   5 132
ATOM    132  CB  ALA d   1     -20.002  10.550   0.417  0.00  0.00    -0.049 C 
ATOM    133  H63 ALA d   1     -20.243  11.595   0.662  0.00  0.00     0.030 H 
ATOM    134  H64 ALA d   1     -20.628   9.878   1.022  0.00  0.00     0.030 H 
ATOM    135  H65 ALA d   1     -20.196  10.370  -0.651  0.00  0.00     0.030 H 
ENDBRANCH   5 132
ENDBRANCH   3   5
BRANCH   1 136
ATOM    136  CA  GLU d   1     -16.702   6.956   0.353  0.00  0.00     0.090 C 
ATOM    137  H56 GLU d   1     -16.855   6.827  -0.729  0.00  0.00     0.087 H 
BRANCH 136 138
ATOM    138  N   GLU d   1     -15.313   6.680   0.685  0.00  0.00    -0.346 N 
ATOM    139  C   LEU d   1     -14.324   7.282   0.041  0.00  0.00     0.241 C 
ATOM    140  O   LEU d   1     -14.511   8.086  -0.863  0.00  0.00    -0.271 OA
ATOM    141  H55 GLU d   1     -15.101   6.026   1.411  0.00  0.00     0.163 HD
BRANCH 139 142
ATOM    142  CA  LEU d   1     -12.922   6.916   0.477  0.00  0.00     0.089 C 
ATOM    143  H45 LEU d   1     -12.999   6.180   1.290  0.00  0.00     0.087 H 
BRANCH 142 144
ATOM    144  N   LEU d   1     -12.169   6.301  -0.611  0.00  0.00    -0.346 N 
ATOM    145  C   GLY d   1     -12.531   5.101  -1.058  0.00  0.00     0.236 C 
ATOM    146  O   GLY d   1     -13.484   4.477  -0.587  0.00  0.00    -0.272 OA
ATOM    147  H44 LEU d   1     -11.389   6.777  -1.017  0.00  0.00     0.163 HD
BRANCH 145 148
ATOM    148  CA  GLY d   1     -11.724   4.482  -2.176  0.00  0.00     0.069 C 
ATOM    149  H42 GLY d   1     -11.024   3.775  -1.707  0.00  0.00     0.078 H 
ATOM    150  H43 GLY d   1     -12.434   3.930  -2.810  0.00  0.00     0.078 H 
BRANCH 148 151
ATOM    151  N   GLY d   1     -10.939   5.319  -3.061  0.00  0.00    -0.351 N 
ATOM    152  C   TRP d   1     -11.506   5.969  -4.069  0.00  0.00     0.241 C 
ATOM    153  O   TRP d   1     -12.710   5.924  -4.306  0.00  0.00    -0.271 OA
ATOM    154  H41 GLY d   1      -9.954   5.408  -2.909  0.00  0.00     0.163 HD
BRANCH 152 155
ATOM    155  CA  TRP d   1     -10.551   6.759  -4.958  0.00  0.00     0.093 C 
ATOM    156  H32 TRP d   1      -9.622   6.999  -4.420  0.00  0.00     0.088 H 
BRANCH 155 157
ATOM    157  N   TRP d   1     -10.304   5.844  -6.060  0.00  0.00    -0.346 N 
ATOM    158  C   LEU d   1      -9.492   4.805  -5.905  0.00  0.00     0.241 C 
ATOM    159  O   LEU d   1      -8.867   4.585  -4.860  0.00  0.00    -0.271 OA
ATOM    160  H31 TRP d   1     -10.749   5.998  -6.942  0.00  0.00     0.163 HD
BRANCH 158 161
ATOM    161  CA  LEU d   1      -9.357   3.884  -7.106  0.00  0.00     0.089 C 
ATOM    162  H21 LEU d   1     -10.115   4.167  -7.851  0.00  0.00     0.087 H 
BRANCH 161 163
ATOM    163  N   LEU d   1      -8.056   3.985  -7.731  0.00  0.00    -0.346 N 
ATOM    164  C   TYR d   1      -7.873   4.663  -8.858  0.00  0.00     0.241 C 
ATOM    165  O   TYR d   1      -8.779   5.268  -9.445  0.00  0.00    -0.271 OA
ATOM    166  H20 LEU d   1      -7.274   3.532  -7.303  0.00  0.00     0.163 HD
BRANCH 164 167
ATOM    167  CA  TYR d   1      -6.440   4.671  -9.376  0.00  0.00     0.093 C 
ATOM    168  H12 TYR d   1      -5.904   3.864  -8.856  0.00  0.00     0.088 H 
BRANCH 167 169
ATOM    169  N   TYR d   1      -6.273   4.425 -10.811  0.00  0.00    -0.346 N 
ATOM    170  C   ASP d   1      -6.801   3.356 -11.404  0.00  0.00     0.241 C 
ATOM    171  O   ASP d   1      -7.491   2.538 -10.792  0.00  0.00    -0.271 OA
ATOM    172  H11 TYR d   1      -5.749   5.077 -11.359  0.00  0.00     0.163 HD
BRANCH 170 173
ATOM    173  CA  ASP d   1      -6.544   3.172 -12.906  0.00  0.00     0.098 C 
ATOM    174  H8  ASP d   1      -7.523   2.952 -13.357  0.00  0.00     0.088 H 
BRANCH 173 175
ATOM    175  N   ASP d   1      -6.006   4.312 -13.652  0.00  0.00    -0.345 N 
ATOM    176  C   ASP d   1      -6.741   5.390 -13.910  0.00  0.00     0.249 C 
ATOM    177  O   ASP d   1      -7.895   5.522 -13.498  0.00  0.00    -0.271 OA
ATOM    178  H7  ASP d   1      -5.061   4.279 -13.976  0.00  0.00     0.163 HD
BRANCH 176 179
ATOM    179  CA  ASP d   1      -6.074   6.498 -14.733  0.00  0.00     0.185 C 
ATOM    180  H4  ASP d   1      -5.317   6.039 -15.386  0.00  0.00     0.100 H 
BRANCH 179 181
ATOM    181  N   ASP d   1      -7.068   7.219 -15.590  0.00  0.00    -0.066 N 
ATOM    182  H1  ASP d   1      -6.598   7.939 -16.116  0.00  0.00     0.275 HD
ATOM    183  H2  ASP d   1      -7.775   7.637 -15.005  0.00  0.00     0.275 HD
ATOM    184  H3  ASP d   1      -7.500   6.566 -16.225  0.00  0.00     0.275 HD
ENDBRANCH 179 181
BRANCH 179 185
ATOM    185  CB  ASP d   1      -5.386   7.494 -13.806  0.00  0.00     0.050 C 
ATOM    186  H5  ASP d   1      -6.151   7.989 -13.190  0.00  0.00     0.052 H 
ATOM    187  H6  ASP d   1      -4.866   8.245 -14.419  0.00  0.00     0.052 H 
BRANCH 185 188
ATOM    188  CG  ASP d   1      -4.386   6.838 -12.896  0.00  0.00     0.175 C 
ATOM    189  OD1 ASP d   1      -4.785   5.960 -12.109  0.00  0.00    -0.648 OA
ATOM    190  OD2 ASP d   1      -3.198   7.200 -12.966  0.00  0.00    -0.648 OA
ENDBRANCH 185 188
ENDBRANCH 179 185
ENDBRANCH 176 179
ENDBRANCH 173 175
BRANCH 173 191
ATOM    191  CB  ASP d   1      -5.646   1.940 -13.117  0.00  0.00     0.043 C 
ATOM    192  H9  ASP d   1      -5.625   1.702 -14.191  0.00  0.00     0.052 H 
ATOM    193  H10 ASP d   1      -6.077   1.094 -12.562  0.00  0.00     0.052 H 
BRANCH 191 194
ATOM    194  CG  ASP d   1      -4.208   2.154 -12.638  0.00  0.00     0.175 C 
ATOM    195  OD1 ASP d   1      -3.355   1.292 -12.940  0.00  0.00    -0.648 OA
ATOM    196  OD2 ASP d   1      -3.926   3.169 -11.962  0.00  0.00    -0.648 OA
ENDBRANCH 191 194
ENDBRANCH 173 191
ENDBRANCH 170 173
ENDBRANCH 167 169
BRANCH 167 197
ATOM    197  CB  TYR d   1      -5.807   5.996  -8.975  0.00  0.00    -0.014 C 
ATOM    198  H13 TYR d   1      -6.433   6.813  -9.364  0.00  0.00     0.043 H 
ATOM    199  H14 TYR d   1      -4.806   6.054  -9.426  0.00  0.00     0.043 H 
BRANCH 197 200
ATOM    200  CG  TYR d   1      -5.669   6.170  -7.481  0.00  0.00    -0.056 A 
ATOM    201  CD1 TYR d   1      -4.764   5.390  -6.753  0.00  0.00    -0.074 A 
ATOM    202  CE1 TYR d   1      -4.573   5.588  -5.386  0.00  0.00    -0.051 A 
ATOM    203  H15 TYR d   1      -4.200   4.617  -7.262  0.00  0.00     0.084 H 
ATOM    204  CZ  TYR d   1      -5.298   6.578  -4.721  0.00  0.00     0.065 A 
ATOM    205  H17 TYR d   1      -3.864   4.975  -4.842  0.00  0.00     0.087 H 
ATOM    206  CE2 TYR d   1      -6.219   7.363  -5.419  0.00  0.00    -0.051 A 
ATOM    207  CD2 TYR d   1      -6.398   7.153  -6.798  0.00  0.00    -0.074 A 
ATOM    208  H18 TYR d   1      -6.790   8.126  -4.903  0.00  0.00     0.087 H 
ATOM    209  H16 TYR d   1      -7.112   7.761  -7.342  0.00  0.00     0.084 H 
BRANCH 204 210
ATOM    210  OH  TYR d   1      -5.073   6.794  -3.374  0.00  0.00    -0.361 OA
ATOM    211  H19 TYR d   1      -4.422   6.177  -3.060  0.00  0.00     0.217 HD
ENDBRANCH 204 210
ENDBRANCH 197 200
ENDBRANCH 167 197
ENDBRANCH 164 167
ENDBRANCH 161 163
BRANCH 161 212
ATOM    212  CB  LEU d   1      -9.632   2.457  -6.642  0.00  0.00    -0.035 C 
ATOM    213  H22 LEU d   1      -8.827   2.135  -5.965  0.00  0.00     0.037 H 
ATOM    214  H23 LEU d   1      -9.663   1.791  -7.517  0.00  0.00     0.037 H 
BRANCH 212 215
ATOM    215  CG  LEU d   1     -10.970   2.383  -5.905  0.00  0.00    -0.059 C 
ATOM    216  H24 LEU d   1     -11.055   3.247  -5.230  0.00  0.00     0.038 H 
BRANCH 215 217
ATOM    217  CD1 LEU d   1     -12.097   2.437  -6.922  0.00  0.00    -0.073 C 
ATOM    218  H25 LEU d   1     -13.064   2.384  -6.401  0.00  0.00     0.028 H 
ATOM    219  H26 LEU d   1     -12.007   1.587  -7.614  0.00  0.00     0.028 H 
ATOM    220  H27 LEU d   1     -12.036   3.379  -7.487  0.00  0.00     0.028 H 
ENDBRANCH 215 217
BRANCH 215 221
ATOM    221  CD2 LEU d   1     -11.058   1.130  -5.092  0.00  0.00    -0.073 C 
ATOM    222  H28 LEU d   1     -10.235   1.108  -4.362  0.00  0.00     0.028 H 
ATOM    223  H29 LEU d   1     -10.983   0.256  -5.756  0.00  0.00     0.028 H 
ATOM    224  H30 LEU d   1     -12.021   1.105  -4.560  0.00  0.00     0.028 H 
ENDBRANCH 215 221
ENDBRANCH 212 215
ENDBRANCH 161 212
ENDBRANCH 158 161
ENDBRANCH 155 157
BRANCH 155 225
ATOM    225  CB  TRP d   1     -11.184   8.047  -5.481  0.00  0.00    -0.012 C 
ATOM    226  H33 TRP d   1     -11.382   8.718  -4.632  0.00  0.00     0.044 H 
ATOM    227  H34 TRP d   1     -12.132   7.801  -5.982  0.00  0.00     0.044 H 
BRANCH 225 228
ATOM    228  CG  TRP d   1     -10.290   8.743  -6.450  0.00  0.00    -0.028 A 
ATOM    229  CD1 TRP d   1     -10.272   8.593  -7.816  0.00  0.00    -0.015 A 
ATOM    230  NE1 TRP d   1      -9.248   9.335  -8.358  0.00  0.00    -0.365 N 
ATOM    231  H35 TRP d   1     -10.966   7.977  -8.386  0.00  0.00     0.112 H 
ATOM    232  CE2 TRP d   1      -8.579   9.980  -7.351  0.00  0.00     0.042 A 
ATOM    233  H36 TRP d   1      -9.021   9.396  -9.361  0.00  0.00     0.165 HD
ATOM    234  CD2 TRP d   1      -9.211   9.635  -6.131  0.00  0.00    -0.002 A 
ATOM    235  CZ2 TRP d   1      -7.474  10.842  -7.407  0.00  0.00    -0.056 A 
ATOM    236  CE3 TRP d   1      -8.715  10.175  -4.935  0.00  0.00    -0.070 A 
ATOM    237  CZ3 TRP d   1      -7.614  11.036  -4.991  0.00  0.00    -0.082 A 
ATOM    238  H37 TRP d   1      -9.176   9.930  -3.985  0.00  0.00     0.084 H 
ATOM    239  CH2 TRP d   1      -7.009  11.358  -6.220  0.00  0.00    -0.081 A 
ATOM    240  H39 TRP d   1      -7.221  11.461  -4.074  0.00  0.00     0.083 H 
ATOM    241  H40 TRP d   1      -6.157  12.028  -6.231  0.00  0.00     0.083 H 
ATOM    242  H38 TRP d   1      -7.004  11.092  -8.351  0.00  0.00     0.086 H 
ENDBRANCH 225 228
ENDBRANCH 155 225
ENDBRANCH 152 155
ENDBRANCH 148 151
ENDBRANCH 145 148
ENDBRANCH 142 144
BRANCH 142 243
ATOM    243  CB  LEU d   1     -12.202   8.153   1.023  0.00  0.00    -0.035 C 
ATOM    244  H46 LEU d   1     -12.900   8.703   1.671  0.00  0.00     0.037 H 
ATOM    245  H47 LEU d   1     -11.913   8.789   0.173  0.00  0.00     0.037 H 
BRANCH 243 246
ATOM    246  CG  LEU d   1     -10.945   7.830   1.833  0.00  0.00    -0.059 C 
ATOM    247  H48 LEU d   1     -10.152   7.492   1.150  0.00  0.00     0.038 H 
BRANCH 246 248
ATOM    248  CD1 LEU d   1     -10.465   9.073   2.576  0.00  0.00    -0.073 C 
ATOM    249  H49 LEU d   1      -9.562   8.829   3.154  0.00  0.00     0.028 H 
ATOM    250  H50 LEU d   1     -11.255   9.420   3.259  0.00  0.00     0.028 H 
ATOM    251  H51 LEU d   1     -10.232   9.867   1.851  0.00  0.00     0.028 H 
ENDBRANCH 246 248
BRANCH 246 252
ATOM    252  CD2 LEU d   1     -11.260   6.720   2.823  0.00  0.00    -0.073 C 
ATOM    253  H52 LEU d   1     -11.605   5.829   2.277  0.00  0.00     0.028 H 
ATOM    254  H53 LEU d   1     -12.049   7.056   3.512  0.00  0.00     0.028 H 
ATOM    255  H54 LEU d   1     -10.354   6.471   3.396  0.00  0.00     0.028 H 
ENDBRANCH 246 252
ENDBRANCH 243 246
ENDBRANCH 142 243
ENDBRANCH 139 142
ENDBRANCH 136 138
BRANCH 136 256
ATOM    256  CB  GLU d   1     -17.615   5.976   1.105  0.00  0.00    -0.029 C 
ATOM    257  H57 GLU d   1     -17.933   6.452   2.044  0.00  0.00     0.037 H 
ATOM    258  H58 GLU d   1     -17.035   5.069   1.332  0.00  0.00     0.037 H 
BRANCH 256 259
ATOM    259  CG  GLU d   1     -18.868   5.562   0.330  0.00  0.00     0.018 C 
ATOM    260  H59 GLU d   1     -19.536   6.432   0.249  0.00  0.00     0.049 H 
ATOM    261  H60 GLU d   1     -19.377   4.760   0.885  0.00  0.00     0.049 H 
BRANCH 259 262
ATOM    262  CD  GLU d   1     -18.550   5.058  -1.075  0.00  0.00     0.172 C 
ATOM    263  OE1 GLU d   1     -17.652   4.195  -1.207  0.00  0.00    -0.648 OA
ATOM    264  OE2 GLU d   1     -19.200   5.524  -2.043  0.00  0.00    -0.648 OA
ENDBRANCH 259 262
ENDBRANCH 256 259
ENDBRANCH 136 256
ENDBRANCH   1 136
TORSDOF 76
