REMARK WARNING: 32 MAX_TORS EXCEEDED!!!
REMARK  39 active torsions:
REMARK  status: ('A' for Active; 'I' for Inactive)
REMARK    1  A    between atoms: CA_2  and  N_1 
REMARK    2  A    between atoms: CA_2  and  CB_5 
REMARK    3  A    between atoms: C_3  and  CA_2 
REMARK       I    between atoms: N_9  and  C_3 
REMARK    4  A    between atoms: CB_5  and  CG_6 
REMARK    5  A    between atoms: CG_6  and  SD_7 
REMARK    6  A    between atoms: SD_7  and  CE_8 
REMARK    7  A    between atoms: C_11  and  CA_10 
REMARK       I    between atoms: N_16  and  C_11 
REMARK    8  A    between atoms: C_18  and  CA_17 
REMARK       I    between atoms: N_23  and  C_18 
REMARK    9  A    between atoms: CA_24  and  N_23 
REMARK   10  A    between atoms: CA_24  and  CB_27 
REMARK   11  A    between atoms: C_25  and  CA_24 
REMARK       I    between atoms: N_30  and  C_25 
REMARK   12  A    between atoms: CB_27  and  CG2_29 
REMARK   13  A    between atoms: CB_27  and  OG1_28 
REMARK   14  A    between atoms: CA_31  and  N_30 
REMARK   15  A    between atoms: CA_31  and  CB_34 
REMARK   16  A    between atoms: C_32  and  CA_31 
REMARK       I    between atoms: N_38  and  C_32 
REMARK   17  A    between atoms: CB_34  and  CG_35 
REMARK   18  A    between atoms: CG_35  and  CD1_36 
REMARK   19  A    between atoms: CG_35  and  CD2_37 
REMARK   20  A    between atoms: C_40  and  CA_39 
REMARK       I    between atoms: N_45  and  C_40 
REMARK   21  A    between atoms: CA_46  and  N_45 
REMARK   22  A    between atoms: CA_46  and  CB_49 
REMARK   23  A    between atoms: C_47  and  CA_46 
REMARK       I    between atoms: N_55  and  C_47 
REMARK   24  A    between atoms: CB_49  and  CG_50 
REMARK   25  A    between atoms: CA_56  and  N_55 
REMARK   26  A    between atoms: CA_56  and  CB_59 
REMARK   27  A    between atoms: C_57  and  CA_56 
REMARK       I    between atoms: N_66  and  C_57 
REMARK   28  A    between atoms: CB_59  and  CG_60 
REMARK   29  A    between atoms: CG_60  and  CD_61 
REMARK   30  A    between atoms: CD_61  and  NE_62 
REMARK       I    between atoms: NE_62  and  CZ_63 
REMARK       I    between atoms: CZ_63  and  NH1_64 
REMARK   31  A    between atoms: CA_67  and  N_66 
REMARK   32  A    between atoms: CA_67  and  CB_70 
REMARK   33  A    between atoms: C_68  and  CA_67 
REMARK       I    between atoms: C_68  and  N_74 
REMARK   34  A    between atoms: CB_70  and  CG_71 
REMARK   35  A    between atoms: N_74  and  CA_75 
REMARK   36  A    between atoms: CA_75  and  CB_78 
REMARK   37  A    between atoms: CA_75  and  C_76 
REMARK   38  A    between atoms: C_76  and  O1_88 
REMARK   39  A    between atoms: CB_78  and  CG_79 
ROOT
ATOM      1  N   PRO d   1     -10.548  21.077  26.703  0.00  0.00    -0.337 N 
ATOM      2  CA  PRO d   1     -10.279  22.451  26.240  0.00  0.00     0.091 C 
ATOM      3  CB  PRO d   1      -9.527  22.226  24.932  0.00  0.00    -0.036 C 
ATOM      4  CG  PRO d   1      -9.088  20.776  25.000  0.00  0.00    -0.048 C 
ATOM      5  CD  PRO d   1     -10.121  20.034  25.752  0.00  0.00    -0.001 C 
ATOM      6  H44 PRO d   1      -9.699  23.033  26.971  0.00  0.00     0.087 H 
ATOM      7  H45 PRO d   1      -8.656  22.894  24.863  0.00  0.00     0.036 H 
ATOM      8  H46 PRO d   1     -10.188  22.393  24.069  0.00  0.00     0.036 H 
ATOM      9  H47 PRO d   1      -8.994  20.364  23.984  0.00  0.00     0.035 H 
ATOM     10  H48 PRO d   1      -8.120  20.701  25.517  0.00  0.00     0.035 H 
ATOM     11  H49 PRO d   1     -10.947  19.713  25.101  0.00  0.00     0.064 H 
ATOM     12  H50 PRO d   1      -9.700  19.159  26.268  0.00  0.00     0.064 H 
ATOM     13  C   LEU d   1     -11.140  20.837  27.843  0.00  0.00     0.243 C 
ATOM     14  O   LEU d   1     -11.439  21.726  28.595  0.00  0.00    -0.271 OA
ENDROOT
BRANCH   2  15
ATOM     15  C   PRO d   1     -11.581  23.134  25.897  0.00  0.00     0.241 C 
ATOM     16  O   PRO d   1     -12.481  22.463  25.454  0.00  0.00    -0.271 OA
ATOM     17  N   HIS d   1     -11.652  24.445  26.079  0.00  0.00    -0.346 N 
ATOM     18  H51 HIS d   1     -10.842  24.916  26.427  0.00  0.00     0.163 HD
BRANCH  17  19
ATOM     19  CA  HIS d   1     -12.851  25.247  25.799  0.00  0.00     0.094 C 
ATOM     20  H52 HIS d   1     -13.676  24.907  26.442  0.00  0.00     0.088 H 
BRANCH  19  21
ATOM     21  CB  HIS d   1     -12.551  26.723  26.079  0.00  0.00     0.002 C 
ATOM     22  H53 HIS d   1     -11.521  26.931  25.754  0.00  0.00     0.046 H 
ATOM     23  H54 HIS d   1     -12.634  26.891  27.163  0.00  0.00     0.046 H 
BRANCH  21  24
ATOM     24  CG  HIS d   1     -13.466  27.689  25.384  0.00  0.00     0.030 A 
ATOM     25  ND1 HIS d   1     -14.728  27.993  25.853  0.00  0.00    -0.353 N 
ATOM     26  CE1 HIS d   1     -15.290  28.882  25.054  0.00  0.00     0.063 A 
ATOM     27  H55 HIS d   1     -15.164  27.590  26.695  0.00  0.00     0.166 HD
ATOM     28  NE2 HIS d   1     -14.435  29.184  24.094  0.00  0.00    -0.254 NA
ATOM     29  H57 HIS d   1     -16.291  29.296  25.168  0.00  0.00     0.143 H 
ATOM     30  CD2 HIS d   1     -13.285  28.450  24.277  0.00  0.00     0.025 A 
ATOM     31  H56 HIS d   1     -12.396  28.476  23.649  0.00  0.00     0.117 H 
ENDBRANCH  21  24
ENDBRANCH  19  21
BRANCH  19  32
ATOM     32  C   HIS d   1     -13.245  25.106  24.361  0.00  0.00     0.241 C 
ATOM     33  O   HIS d   1     -12.417  25.253  23.480  0.00  0.00    -0.271 OA
ATOM     34  N   ARG d   1     -14.502  24.819  24.107  0.00  0.00    -0.346 N 
ATOM     35  H58 ARG d   1     -15.156  24.668  24.848  0.00  0.00     0.163 HD
BRANCH  34  36
ATOM     36  CA  ARG d   1     -14.911  24.728  22.723  0.00  0.00     0.089 C 
ATOM     37  H59 ARG d   1     -14.021  24.851  22.088  0.00  0.00     0.087 H 
BRANCH  36  38
ATOM     38  CB  ARG d   1     -15.498  23.350  22.446  0.00  0.00    -0.036 C 
ATOM     39  H60 ARG d   1     -14.764  22.593  22.760  0.00  0.00     0.036 H 
ATOM     40  H61 ARG d   1     -15.676  23.262  21.364  0.00  0.00     0.036 H 
BRANCH  38  41
ATOM     41  CG  ARG d   1     -16.787  23.078  23.157  0.00  0.00    -0.048 C 
ATOM     42  H62 ARG d   1     -17.620  23.456  22.546  0.00  0.00     0.035 H 
ATOM     43  H63 ARG d   1     -16.778  23.597  24.127  0.00  0.00     0.035 H 
BRANCH  41  44
ATOM     44  CD  ARG d   1     -16.983  21.581  23.395  0.00  0.00     0.009 C 
ATOM     45  H64 ARG d   1     -16.240  21.033  22.797  0.00  0.00     0.064 H 
ATOM     46  H65 ARG d   1     -17.995  21.306  23.065  0.00  0.00     0.064 H 
BRANCH  44  47
ATOM     47  NE  ARG d   1     -16.830  21.187  24.797  0.00  0.00    -0.227 N 
ATOM     48  CZ  ARG d   1     -17.093  19.960  25.256  0.00  0.00     0.665 C 
ATOM     49  NH2 ARG d   1     -16.948  19.679  26.550  0.00  0.00    -0.235 N 
ATOM     50  NH1 ARG d   1     -17.478  19.011  24.414  0.00  0.00    -0.235 N 
ATOM     51  H69 ARG d   1     -16.649  20.414  27.206  0.00  0.00     0.174 HD
ATOM     52  H70 ARG d   1     -17.135  18.726  26.894  0.00  0.00     0.174 HD
ATOM     53  H67 ARG d   1     -17.682  18.064  24.764  0.00  0.00     0.174 HD
ATOM     54  H68 ARG d   1     -17.573  19.221  23.410  0.00  0.00     0.174 HD
ATOM     55  H66 ARG d   1     -16.501  21.896  25.468  0.00  0.00     0.177 HD
ENDBRANCH  44  47
ENDBRANCH  41  44
ENDBRANCH  38  41
ENDBRANCH  36  38
BRANCH  36  56
ATOM     56  C   ARG d   1     -15.888  25.865  22.393  0.00  0.00     0.241 C 
ATOM     57  O   ARG d   1     -16.631  26.307  23.266  0.00  0.00    -0.271 OA
ATOM     58  N   ASP d   1     -15.871  26.344  21.147  0.00  0.00    -0.346 N 
ATOM     59  H71 ASP d   1     -15.263  25.919  20.476  0.00  0.00     0.163 HD
BRANCH  58  60
ATOM     60  CA  ASP d   1     -16.704  27.463  20.727  0.00  0.00     0.098 C 
ATOM     61  H72 ASP d   1     -16.865  28.100  21.609  0.00  0.00     0.088 H 
BRANCH  60  62
ATOM     62  CB  ASP d   1     -16.025  28.287  19.634  0.00  0.00     0.043 C 
ATOM     63  H73 ASP d   1     -16.777  28.940  19.167  0.00  0.00     0.052 H 
ATOM     64  H74 ASP d   1     -15.617  27.600  18.878  0.00  0.00     0.052 H 
BRANCH  62  65
ATOM     65  CG  ASP d   1     -14.914  29.137  20.156  0.00  0.00     0.175 C 
ATOM     66  OD1 ASP d   1     -15.199  30.169  20.824  0.00  0.00    -0.648 OA
ATOM     67  OD2 ASP d   1     -13.718  28.829  19.943  0.00  0.00    -0.648 OA
ENDBRANCH  62  65
ENDBRANCH  60  62
BRANCH  60  68
ATOM     68  C   ASP d   1     -18.036  27.076  20.176  0.00  0.00     0.241 C 
ATOM     69  O   ASP d   1     -18.581  27.827  19.403  0.00  0.00    -0.271 OA
ATOM     70  N   TRP d   1     -18.579  25.936  20.539  0.00  0.00    -0.345 N 
ATOM     71  H75 TRP d   1     -18.096  25.317  21.158  0.00  0.00     0.163 HD
BRANCH  70  72
ATOM     72  CA  TRP d   1     -19.887  25.593  20.027  0.00  0.00     0.097 C 
ATOM     73  H76 TRP d   1     -20.412  26.513  19.730  0.00  0.00     0.089 H 
BRANCH  72  74
ATOM     74  CB  TRP d   1     -19.780  24.679  18.818  0.00  0.00    -0.011 C 
ATOM     75  H77 TRP d   1     -19.372  25.253  17.973  0.00  0.00     0.044 H 
ATOM     76  H78 TRP d   1     -20.784  24.311  18.560  0.00  0.00     0.044 H 
BRANCH  74  77
ATOM     77  CG  TRP d   1     -18.893  23.514  19.083  0.00  0.00    -0.028 A 
ATOM     78  CD1 TRP d   1     -19.137  22.456  19.920  0.00  0.00    -0.015 A 
ATOM     79  NE1 TRP d   1     -18.066  21.601  19.934  0.00  0.00    -0.365 N 
ATOM     80  H79 TRP d   1     -20.052  22.315  20.493  0.00  0.00     0.112 H 
ATOM     81  CE2 TRP d   1     -17.097  22.112  19.118  0.00  0.00     0.042 A 
ATOM     82  H80 TRP d   1     -18.003  20.723  20.469  0.00  0.00     0.165 HD
ATOM     83  CD2 TRP d   1     -17.588  23.315  18.572  0.00  0.00    -0.002 A 
ATOM     84  CZ2 TRP d   1     -15.841  21.609  18.806  0.00  0.00    -0.056 A 
ATOM     85  CE3 TRP d   1     -16.774  24.037  17.708  0.00  0.00    -0.070 A 
ATOM     86  CZ3 TRP d   1     -15.549  23.554  17.395  0.00  0.00    -0.082 A 
ATOM     87  H81 TRP d   1     -17.116  24.977  17.289  0.00  0.00     0.084 H 
ATOM     88  CH2 TRP d   1     -15.083  22.340  17.936  0.00  0.00    -0.081 A 
ATOM     89  H83 TRP d   1     -14.915  24.112  16.715  0.00  0.00     0.083 H 
ATOM     90  H84 TRP d   1     -14.101  21.978  17.656  0.00  0.00     0.083 H 
ATOM     91  H82 TRP d   1     -15.479  20.680  19.233  0.00  0.00     0.086 H 
ENDBRANCH  74  77
ENDBRANCH  72  74
BRANCH  72  92
ATOM     92  C   TRP d   1     -20.654  24.914  21.130  0.00  0.00     0.163 C 
ATOM     93  O   TRP d   1     -20.020  24.592  22.130  0.00  0.00    -0.648 OA
BRANCH  92  94
ATOM     94  O1  TRP d   1     -21.958  24.674  21.026  0.00  0.00    -0.775 OA
ATOM     95  H85 TRP d   1     -22.418  25.120  21.727  0.00  0.00     0.167 HD
ENDBRANCH  92  94
ENDBRANCH  72  92
ENDBRANCH  70  72
ENDBRANCH  60  68
ENDBRANCH  58  60
ENDBRANCH  36  56
ENDBRANCH  34  36
ENDBRANCH  19  32
ENDBRANCH  17  19
ENDBRANCH   2  15
BRANCH  13  96
ATOM     96  CA  LEU d   1     -11.441  19.374  28.160  0.00  0.00     0.090 C 
ATOM     97  H34 LEU d   1     -10.800  18.732  27.538  0.00  0.00     0.087 H 
BRANCH  96  98
ATOM     98  N   LEU d   1     -11.177  19.099  29.562  0.00  0.00    -0.346 N 
ATOM     99  C   THR d   1      -9.951  18.915  29.971  0.00  0.00     0.243 C 
ATOM    100  O   THR d   1      -9.014  18.967  29.221  0.00  0.00    -0.271 OA
ATOM    101  H33 LEU d   1     -11.934  19.051  30.213  0.00  0.00     0.163 HD
BRANCH  99 102
ATOM    102  CA  THR d   1      -9.765  18.639  31.401  0.00  0.00     0.113 C 
ATOM    103  H27 THR d   1     -10.696  18.273  31.858  0.00  0.00     0.091 H 
BRANCH 102 104
ATOM    104  N   THR d   1      -8.713  17.646  31.534  0.00  0.00    -0.344 N 
ATOM    105  C   PRO d   1      -8.930  16.395  31.187  0.00  0.00     0.241 C 
ATOM    106  O   PRO d   1     -10.029  16.035  30.764  0.00  0.00    -0.271 OA
ATOM    107  H26 THR d   1      -7.819  17.915  31.891  0.00  0.00     0.163 HD
BRANCH 105 108
ATOM    108  CA  PRO d   1      -7.760  15.414  31.313  0.00  0.00     0.091 C 
ATOM    109  CB  PRO d   1      -7.011  15.351  29.984  0.00  0.00    -0.036 C 
ATOM    110  CG  PRO d   1      -6.523  13.910  29.893  0.00  0.00    -0.048 C 
ATOM    111  H20 PRO d   1      -6.162  16.050  29.982  0.00  0.00     0.036 H 
ATOM    112  H21 PRO d   1      -7.684  15.588  29.146  0.00  0.00     0.036 H 
ATOM    113  CD  PRO d   1      -7.612  13.108  30.511  0.00  0.00    -0.001 C 
ATOM    114  H22 PRO d   1      -6.371  13.617  28.844  0.00  0.00     0.035 H 
ATOM    115  H23 PRO d   1      -5.582  13.782  30.449  0.00  0.00     0.035 H 
ATOM    116  N   PRO d   1      -8.194  14.029  31.498  0.00  0.00    -0.337 N 
ATOM    117  H24 PRO d   1      -8.359  12.813  29.759  0.00  0.00     0.064 H 
ATOM    118  H25 PRO d   1      -7.210  12.209  31.001  0.00  0.00     0.064 H 
ATOM    119  C   PRO d   1      -9.054  13.682  32.432  0.00  0.00     0.243 C 
ATOM    120  O   PRO d   1      -9.567  14.488  33.180  0.00  0.00    -0.271 OA
ATOM    121  H19 PRO d   1      -7.101  15.731  32.135  0.00  0.00     0.087 H 
BRANCH 119 122
ATOM    122  CA  PRO d   1      -9.422  12.208  32.515  0.00  0.00     0.092 C 
ATOM    123  CB  PRO d   1     -10.921  12.053  32.306  0.00  0.00    -0.036 C 
ATOM    124  CG  PRO d   1     -11.474  12.303  33.675  0.00  0.00    -0.048 C 
ATOM    125  H13 PRO d   1     -11.170  11.040  31.957  0.00  0.00     0.036 H 
ATOM    126  H14 PRO d   1     -11.299  12.793  31.585  0.00  0.00     0.036 H 
ATOM    127  CD  PRO d   1     -10.485  11.654  34.637  0.00  0.00    -0.001 C 
ATOM    128  H15 PRO d   1     -11.547  13.383  33.869  0.00  0.00     0.035 H 
ATOM    129  H16 PRO d   1     -12.468  11.844  33.778  0.00  0.00     0.035 H 
ATOM    130  N   PRO d   1      -9.231  11.663  33.862  0.00  0.00    -0.337 N 
ATOM    131  H17 PRO d   1     -10.385  12.242  35.561  0.00  0.00     0.064 H 
ATOM    132  H18 PRO d   1     -10.790  10.627  34.887  0.00  0.00     0.064 H 
ATOM    133  C   MET d   1      -8.056  11.205  34.279  0.00  0.00     0.251 C 
ATOM    134  O   MET d   1      -7.049  11.087  33.533  0.00  0.00    -0.271 OA
ATOM    135  H12 PRO d   1      -8.846  11.638  31.772  0.00  0.00     0.087 H 
BRANCH 133 136
ATOM    136  CA  MET d   1      -7.998  10.802  35.748  0.00  0.00     0.176 C 
ATOM    137  H4  MET d   1      -7.016  11.092  36.150  0.00  0.00     0.099 H 
BRANCH 136 138
ATOM    138  N   MET d   1      -9.060  11.541  36.513  0.00  0.00    -0.066 N 
ATOM    139  H1  MET d   1      -9.021  11.274  37.484  0.00  0.00     0.275 HD
ATOM    140  H2  MET d   1      -9.966  11.311  36.137  0.00  0.00     0.275 HD
ATOM    141  H3  MET d   1      -8.904  12.534  36.431  0.00  0.00     0.275 HD
ENDBRANCH 136 138
BRANCH 136 142
ATOM    142  CB  MET d   1      -8.148   9.283  35.905  0.00  0.00    -0.022 C 
ATOM    143  H5  MET d   1      -7.640   8.794  35.061  0.00  0.00     0.037 H 
ATOM    144  H6  MET d   1      -9.219   9.035  35.882  0.00  0.00     0.037 H 
BRANCH 142 145
ATOM    145  CG  MET d   1      -7.554   8.742  37.206  0.00  0.00    -0.021 C 
ATOM    146  H7  MET d   1      -8.246   8.990  38.024  0.00  0.00     0.049 H 
ATOM    147  H8  MET d   1      -6.591   9.246  37.375  0.00  0.00     0.049 H 
BRANCH 145 148
ATOM    148  SD  MET d   1      -7.259   6.926  37.242  0.00  0.00    -0.173 SA
BRANCH 148 149
ATOM    149  CE  MET d   1      -8.819   6.331  38.265  0.00  0.00    -0.035 C 
ATOM    150  H9  MET d   1      -8.789   5.237  38.377  0.00  0.00     0.041 H 
ATOM    151  H10 MET d   1      -9.738   6.620  37.734  0.00  0.00     0.041 H 
ATOM    152  H11 MET d   1      -8.807   6.801  39.259  0.00  0.00     0.041 H 
ENDBRANCH 148 149
ENDBRANCH 145 148
ENDBRANCH 142 145
ENDBRANCH 136 142
ENDBRANCH 133 136
ENDBRANCH 119 122
ENDBRANCH 105 108
ENDBRANCH 102 104
BRANCH 102 153
ATOM    153  CB  THR d   1      -9.338  19.940  32.032  0.00  0.00     0.060 C 
ATOM    154  H28 THR d   1      -8.447  20.328  31.517  0.00  0.00     0.086 H 
BRANCH 153 155
ATOM    155  CG2 THR d   1     -10.481  20.969  31.990  0.00  0.00    -0.050 C 
ATOM    156  H30 THR d   1     -10.146  21.908  32.455  0.00  0.00     0.031 H 
ATOM    157  H31 THR d   1     -11.348  20.576  32.540  0.00  0.00     0.031 H 
ATOM    158  H32 THR d   1     -10.765  21.159  30.945  0.00  0.00     0.031 H 
ENDBRANCH 153 155
BRANCH 153 159
ATOM    159  OG1 THR d   1      -9.071  19.732  33.439  0.00  0.00    -0.393 OA
ATOM    160  H29 THR d   1      -8.368  19.101  33.537  0.00  0.00     0.210 HD
ENDBRANCH 153 159
ENDBRANCH 102 153
ENDBRANCH  99 102
ENDBRANCH  96  98
BRANCH  96 161
ATOM    161  CB  LEU d   1     -12.905  19.071  27.856  0.00  0.00    -0.035 C 
ATOM    162  H35 LEU d   1     -13.123  19.418  26.835  0.00  0.00     0.037 H 
ATOM    163  H36 LEU d   1     -13.527  19.627  28.573  0.00  0.00     0.037 H 
BRANCH 161 164
ATOM    164  CG  LEU d   1     -13.275  17.606  27.946  0.00  0.00    -0.059 C 
ATOM    165  H37 LEU d   1     -12.893  17.211  28.899  0.00  0.00     0.038 H 
BRANCH 164 166
ATOM    166  CD1 LEU d   1     -14.769  17.363  27.912  0.00  0.00    -0.073 C 
ATOM    167  H38 LEU d   1     -14.966  16.283  27.981  0.00  0.00     0.028 H 
ATOM    168  H39 LEU d   1     -15.182  17.752  26.970  0.00  0.00     0.028 H 
ATOM    169  H40 LEU d   1     -15.244  17.877  28.761  0.00  0.00     0.028 H 
ENDBRANCH 164 166
BRANCH 164 170
ATOM    170  CD2 LEU d   1     -12.593  16.893  26.821  0.00  0.00    -0.073 C 
ATOM    171  H41 LEU d   1     -11.511  17.085  26.868  0.00  0.00     0.028 H 
ATOM    172  H42 LEU d   1     -12.989  17.258  25.862  0.00  0.00     0.028 H 
ATOM    173  H43 LEU d   1     -12.778  15.812  26.907  0.00  0.00     0.028 H 
ENDBRANCH 164 170
ENDBRANCH 161 164
ENDBRANCH  96 161
ENDBRANCH  13  96
TORSDOF 39
