REMARK  0 active torsions:
REMARK  status: ('A' for Active; 'I' for Inactive)
ROOT
ATOM      1  C1  LY1 d   1      28.741  42.988  18.605  0.00  0.00     0.107 C 
ATOM      2  N1  LY1 d   1      30.204  42.962  18.962  0.00  0.00    -0.071 N 
ATOM      3  C2  LY1 d   1      30.599  44.097  19.842  0.00  0.00     0.082 C 
ATOM      4  C3  LY1 d   1      30.578  45.432  19.110  0.00  0.00    -0.039 C 
ATOM      5  C4  LY1 d   1      29.182  45.833  18.663  0.00  0.00    -0.039 C 
ATOM      6  C4A LY1 d   1      28.728  45.174  17.390  0.00  0.00    -0.048 A 
ATOM      7  C5  LY1 d   1      28.533  45.955  16.267  0.00  0.00    -0.075 A 
ATOM      8  C6  LY1 d   1      28.115  45.369  15.085  0.00  0.00    -0.060 A 
ATOM      9  C7  LY1 d   1      27.876  43.994  15.005  0.00  0.00     0.056 A 
ATOM     10  C8  LY1 d   1      28.067  43.160  16.152  0.00  0.00     0.064 A 
ATOM     11  C8A LY1 d   1      28.503  43.787  17.346  0.00  0.00    -0.003 A 
ATOM     12 CL1  LY1 d   1      27.461  43.486  13.690  0.00  0.00    -0.083 Cl
ATOM     13 CL2  LY1 d   1      27.799  41.670  16.148  0.00  0.00    -0.082 Cl
ATOM     14  H1  LY1 d   1      28.177  43.444  19.432  0.00  0.00     0.083 H 
ATOM     15  H2  LY1 d   1      28.391  41.957  18.448  0.00  0.00     0.083 H 
ATOM     16  H3  LY1 d   1      30.744  43.009  18.113  0.00  0.00     0.277 HD
ATOM     17  H4  LY1 d   1      30.404  42.098  19.441  0.00  0.00     0.277 HD
ATOM     18  H5  LY1 d   1      31.617  43.916  20.217  0.00  0.00     0.075 H 
ATOM     19  H6  LY1 d   1      29.899  44.148  20.689  0.00  0.00     0.075 H 
ATOM     20  H7  LY1 d   1      31.224  45.357  18.223  0.00  0.00     0.035 H 
ATOM     21  H8  LY1 d   1      30.969  46.209  19.784  0.00  0.00     0.035 H 
ATOM     22  H9  LY1 d   1      29.168  46.922  18.511  0.00  0.00     0.040 H 
ATOM     23  H10 LY1 d   1      28.474  45.565  19.461  0.00  0.00     0.040 H 
ATOM     24  H11 LY1 d   1      28.707  47.024  16.312  0.00  0.00     0.084 H 
ATOM     25  H12 LY1 d   1      27.970  45.987  14.206  0.00  0.00     0.086 H 
ENDROOT
TORSDOF 0
