REMARK  0 active torsions:
REMARK  status: ('A' for Active; 'I' for Inactive)
ROOT
ATOM      1  I   IDI d   1      27.225  42.708  14.709  0.00  0.00    -0.045 I 
ATOM      2  C4  IDI d   1      28.685  46.003  17.017  0.00  0.00    -0.075 A 
ATOM      3  C5  IDI d   1      28.093  45.232  16.022  0.00  0.00    -0.066 A 
ATOM      4  C6  IDI d   1      28.081  43.847  16.126  0.00  0.00     0.007 A 
ATOM      5  C7  IDI d   1      28.655  43.251  17.244  0.00  0.00    -0.059 A 
ATOM      6  C8  IDI d   1      29.241  44.013  18.238  0.00  0.00    -0.025 A 
ATOM      7  C9  IDI d   1      29.261  45.398  18.125  0.00  0.00    -0.049 A 
ATOM      8  C1  IDI d   1      29.812  43.332  19.451  0.00  0.00     0.106 C 
ATOM      9  C2  IDI d   1      29.774  45.542  20.544  0.00  0.00     0.086 C 
ATOM     10  C3  IDI d   1      29.930  46.215  19.192  0.00  0.00    -0.018 C 
ATOM     11  N1  IDI d   1      30.460  44.236  20.417  0.00  0.00    -0.071 N 
ATOM     12  H1  IDI d   1      28.696  47.083  16.926  0.00  0.00     0.084 H 
ATOM     13  H2  IDI d   1      27.640  45.713  15.163  0.00  0.00     0.085 H 
ATOM     14  H3  IDI d   1      28.643  42.171  17.338  0.00  0.00     0.086 H 
ATOM     15  H4  IDI d   1      30.560  42.600  19.113  0.00  0.00     0.083 H 
ATOM     16  H5  IDI d   1      28.994  42.809  19.967  0.00  0.00     0.083 H 
ATOM     17  H6  IDI d   1      28.710  45.396  20.780  0.00  0.00     0.076 H 
ATOM     18  H7  IDI d   1      30.245  46.148  21.332  0.00  0.00     0.076 H 
ATOM     19  H8  IDI d   1      29.469  47.213  19.228  0.00  0.00     0.042 H 
ATOM     20  H9  IDI d   1      31.000  46.313  18.957  0.00  0.00     0.042 H 
ATOM     21  H10 IDI d   1      31.408  44.400  20.116  0.00  0.00     0.277 HD
ATOM     22  H11 IDI d   1      30.467  43.788  21.320  0.00  0.00     0.277 HD
ENDROOT
TORSDOF 0
