REMARK  17 active torsions:
REMARK  status: ('A' for Active; 'I' for Inactive)
REMARK    1  A    between atoms: C1_1  and  N1_2 
REMARK    2  A    between atoms: C12_4  and  C16_8 
REMARK    3  A    between atoms: C13_5  and  C17_9 
REMARK    4  A    between atoms: C22_13  and  C26_17 
REMARK    5  A    between atoms: C23_14  and  C27_18 
REMARK    6  A    between atoms: C32_22  and  C36_26 
REMARK    7  A    between atoms: C33_23  and  C37_27 
REMARK    8  A    between atoms: C37_27  and  C38_28 
REMARK    9  A    between atoms: C38_28  and  C39_29 
REMARK   10  A    between atoms: C39_29  and  O31_30 
REMARK   11  A    between atoms: C39_29  and  O32_31 
REMARK   12  A    between atoms: C42_34  and  C47_39 
REMARK   13  A    between atoms: C43_35  and  C46_38 
REMARK   14  A    between atoms: C47_39  and  C48_40 
REMARK   15  A    between atoms: C48_40  and  C49_41 
REMARK   16  A    between atoms: C49_41  and  O41_42 
REMARK   17  A    between atoms: C49_41  and  O42_43 
ROOT
ATOM      1  N1  NON d   1     -11.095-109.194  11.426  0.00  0.00    -0.059 N 
ATOM      2  C11 NON d   1     -11.949-108.105  11.030  0.00  0.00     0.128 A 
ATOM      3  C12 NON d   1     -11.697-106.943  11.885  0.00  0.00    -0.045 A 
ATOM      4  C13 NON d   1     -10.706-107.299  12.805  0.00  0.00    -0.024 A 
ATOM      5  C14 NON d   1     -10.328-108.681  12.533  0.00  0.00     0.132 A 
ATOM      6  C15 NON d   1      -9.331-109.434  13.279  0.00  0.00    -0.004 C 
ATOM      7  N2  NON d   1     -10.722-111.491  13.396  0.00  0.00    -0.056 N 
ATOM      8  C21 NON d   1      -9.640-110.729  13.825  0.00  0.00     0.127 A 
ATOM      9  C22 NON d   1      -8.925-111.454  14.871  0.00  0.00    -0.045 A 
ATOM     10  C23 NON d   1      -9.603-112.667  15.057  0.00  0.00    -0.021 A 
ATOM     11  C24 NON d   1     -10.729-112.672  14.122  0.00  0.00     0.146 A 
ATOM     12  C25 NON d   1     -11.693-113.719  13.961  0.00  0.00    -0.043 C 
ATOM     13  N3  NON d   1     -13.203-112.814  12.203  0.00  0.00    -0.381 N 
ATOM     14  C31 NON d   1     -12.821-113.804  13.087  0.00  0.00     0.033 A 
ATOM     15  C32 NON d   1     -13.741-114.937  12.982  0.00  0.00    -0.031 A 
ATOM     16  C33 NON d   1     -14.686-114.607  12.006  0.00  0.00    -0.049 A 
ATOM     17  C34 NON d   1     -14.326-113.260  11.530  0.00  0.00     0.037 A 
ATOM     18  C35 NON d   1     -15.019-112.517  10.522  0.00  0.00    -0.002 C 
ATOM     19  N4  NON d   1     -13.782-110.361  10.480  0.00  0.00    -0.284 NA
ATOM     20  C41 NON d   1     -14.770-111.199  10.018  0.00  0.00     0.038 A 
ATOM     21  C42 NON d   1     -15.526-110.531   8.939  0.00  0.00    -0.029 A 
ATOM     22  C43 NON d   1     -14.939-109.260   8.776  0.00  0.00    -0.051 A 
ATOM     23  C44 NON d   1     -13.852-109.164   9.751  0.00  0.00     0.057 A 
ATOM     24  C45 NON d   1     -12.957-108.040   9.981  0.00  0.00    -0.010 C 
ATOM     25  H4  NON d   1     -11.712-109.882  11.827  0.00  0.00     0.281 HD
ATOM     26  H5  NON d   1     -11.204-107.781  10.289  0.00  0.00     0.092 H 
ATOM     27  H6  NON d   1      -9.525-108.353  11.856  0.00  0.00     0.092 H 
ATOM     28  H7  NON d   1      -9.029-108.801  14.126  0.00  0.00     0.040 H 
ATOM     29  H8  NON d   1      -8.475-109.575  12.603  0.00  0.00     0.040 H 
ATOM     30  H15 NON d   1     -11.580-110.987  13.555  0.00  0.00     0.279 HD
ATOM     31  H16 NON d   1     -10.629-111.694  12.413  0.00  0.00     0.279 HD
ATOM     32  H17 NON d   1      -8.985-111.166  13.057  0.00  0.00     0.091 H 
ATOM     33  H18 NON d   1     -11.390-112.232  14.883  0.00  0.00     0.098 H 
ATOM     34  H19 NON d   1     -11.543-114.585  14.604  0.00  0.00     0.084 H 
ATOM     35  H26 NON d   1     -12.735-111.906  12.069  0.00  0.00     0.160 HD
ATOM     36  H27 NON d   1     -14.988-112.796  12.276  0.00  0.00     0.080 H 
ATOM     37  H28 NON d   1     -16.057-112.475  10.884  0.00  0.00     0.045 H 
ATOM     38  H29 NON d   1     -14.968-113.160   9.631  0.00  0.00     0.045 H 
ATOM     39  H40 NON d   1     -13.132-109.535   9.007  0.00  0.00     0.083 H 
ATOM     40  H41 NON d   1     -12.420-107.866   9.037  0.00  0.00     0.040 H 
ATOM     41  H42 NON d   1     -13.593-107.171  10.207  0.00  0.00     0.040 H 
ENDROOT
BRANCH  16  42
ATOM     42  C37 NON d   1     -15.907-115.496  11.507  0.00  0.00    -0.038 C 
ATOM     43  H33 NON d   1     -15.650-116.556  11.648  0.00  0.00     0.040 H 
ATOM     44  H34 NON d   1     -16.072-115.298  10.438  0.00  0.00     0.040 H 
BRANCH  42  45
ATOM     45  C38 NON d   1     -17.236-115.195  12.283  0.00  0.00    -0.016 C 
ATOM     46  H35 NON d   1     -17.046-114.381  12.998  0.00  0.00     0.040 H 
ATOM     47  H36 NON d   1     -17.535-116.102  12.829  0.00  0.00     0.040 H 
BRANCH  45  48
ATOM     48  C39 NON d   1     -18.385-114.779  11.369  0.00  0.00     0.126 C 
ATOM     49  H37 NON d   1     -17.673-114.610  10.548  0.00  0.00     0.128 H 
BRANCH  48  50
ATOM     50  O31 NON d   1     -18.772-113.460  11.308  0.00  0.00    -0.371 OA
ATOM     51  H38 NON d   1     -18.224-112.943  11.887  0.00  0.00     0.212 HD
ENDBRANCH  48  50
BRANCH  48  52
ATOM     52  O32 NON d   1     -19.038-115.723  10.612  0.00  0.00    -0.371 OA
ATOM     53  H39 NON d   1     -18.651-116.576  10.769  0.00  0.00     0.212 HD
ENDBRANCH  48  52
ENDBRANCH  45  48
ENDBRANCH  42  45
ENDBRANCH  16  42
BRANCH  15  54
ATOM     54  C36 NON d   1     -13.676-116.263  13.802  0.00  0.00    -0.049 C 
ATOM     55  H30 NON d   1     -12.820-116.226  14.492  0.00  0.00     0.033 H 
ATOM     56  H31 NON d   1     -13.556-117.114  13.115  0.00  0.00     0.033 H 
ATOM     57  H32 NON d   1     -14.606-116.384  14.377  0.00  0.00     0.033 H 
ENDBRANCH  15  54
BRANCH  21  58
ATOM     58  C47 NON d   1     -16.754-111.127   8.123  0.00  0.00    -0.035 C 
ATOM     59  H46 NON d   1     -16.593-112.207   7.988  0.00  0.00     0.040 H 
ATOM     60  H47 NON d   1     -16.792-110.636   7.139  0.00  0.00     0.040 H 
BRANCH  58  61
ATOM     61  C48 NON d   1     -18.134-110.913   8.841  0.00  0.00    -0.016 C 
ATOM     62  H48 NON d   1     -17.980-110.253   9.708  0.00  0.00     0.040 H 
ATOM     63  H49 NON d   1     -18.505-111.890   9.185  0.00  0.00     0.040 H 
BRANCH  61  64
ATOM     64  C49 NON d   1     -19.190-110.283   7.931  0.00  0.00     0.126 C 
ATOM     65  H50 NON d   1     -18.505-110.366   7.075  0.00  0.00     0.128 H 
BRANCH  64  66
ATOM     66  O41 NON d   1     -20.101-111.084   7.283  0.00  0.00    -0.371 OA
ATOM     67  H51 NON d   1     -19.934-111.993   7.503  0.00  0.00     0.212 HD
ENDBRANCH  64  66
BRANCH  64  68
ATOM     68  O42 NON d   1     -19.233-108.916   7.766  0.00  0.00    -0.371 OA
ATOM     69  H52 NON d   1     -18.541-108.514   8.278  0.00  0.00     0.212 HD
ENDBRANCH  64  68
ENDBRANCH  61  64
ENDBRANCH  58  61
ENDBRANCH  21  58
BRANCH  10  70
ATOM     70  C27 NON d   1      -9.240-113.782  16.051  0.00  0.00    -0.083 C 
ATOM     71  C28 NON d   1      -9.801-113.831  17.270  0.00  0.00    -0.121 C 
ATOM     72  H24 NON d   1      -9.532-114.628  17.962  0.00  0.00     0.066 H 
ATOM     73  H25 NON d   1     -10.525-113.074  17.567  0.00  0.00     0.066 H 
ATOM     74  H23 NON d   1      -8.517-114.543  15.762  0.00  0.00     0.083 H 
ENDBRANCH  10  70
BRANCH  22  75
ATOM     75  C46 NON d   1     -15.374-108.157   7.754  0.00  0.00    -0.052 C 
ATOM     76  H43 NON d   1     -16.221-108.525   7.156  0.00  0.00     0.033 H 
ATOM     77  H44 NON d   1     -14.531-107.921   7.088  0.00  0.00     0.033 H 
ATOM     78  H45 NON d   1     -15.676-107.251   8.299  0.00  0.00     0.033 H 
ENDBRANCH  22  75
BRANCH   9  79
ATOM     79  C26 NON d   1      -7.655-110.970  15.631  0.00  0.00    -0.052 C 
ATOM     80  H20 NON d   1      -7.350-111.735  16.360  0.00  0.00     0.033 H 
ATOM     81  H21 NON d   1      -7.879-110.031  16.158  0.00  0.00     0.033 H 
ATOM     82  H22 NON d   1      -6.839-110.802  14.912  0.00  0.00     0.033 H 
ENDBRANCH   9  79
BRANCH   1  83
ATOM     83  C1  NON d   1     -10.356-109.999  10.325  0.00  0.00     0.068 C 
ATOM     84  H1  NON d   1     -11.077-110.317   9.557  0.00  0.00     0.068 H 
ATOM     85  H2  NON d   1      -9.883-110.885  10.774  0.00  0.00     0.068 H 
ATOM     86  H3  NON d   1      -9.585-109.365   9.863  0.00  0.00     0.068 H 
ENDBRANCH   1  83
BRANCH   3  87
ATOM     87  C16 NON d   1     -12.430-105.556  11.780  0.00  0.00    -0.052 C 
ATOM     88  H9  NON d   1     -12.037-104.874  12.549  0.00  0.00     0.033 H 
ATOM     89  H10 NON d   1     -13.510-105.699  11.934  0.00  0.00     0.033 H 
ATOM     90  H11 NON d   1     -12.256-105.124  10.783  0.00  0.00     0.033 H 
ENDBRANCH   3  87
BRANCH   4  91
ATOM     91  C17 NON d   1     -10.108-106.425  13.918  0.00  0.00    -0.084 C 
ATOM     92  C18 NON d   1      -9.436-105.300  13.703  0.00  0.00    -0.121 C 
ATOM     93  H13 NON d   1      -9.041-104.733  14.544  0.00  0.00     0.066 H 
ATOM     94  H14 NON d   1      -9.280-104.945  12.685  0.00  0.00     0.066 H 
ATOM     95  H12 NON d   1     -10.244-106.749  14.949  0.00  0.00     0.083 H 
ENDBRANCH   4  91
TORSDOF 17
