REMARK  30 active torsions:
REMARK  status: ('A' for Active; 'I' for Inactive)
REMARK    1  A    between atoms: N_1  and  CA_2 
REMARK    2  A    between atoms: CA_2  and  C_3 
REMARK    3  A    between atoms: CA_2  and  CB_5 
REMARK       I    between atoms: C_3  and  N_17 
REMARK    4  A    between atoms: CB_5  and  OG1_6 
REMARK    5  A    between atoms: CB_5  and  CG2_7 
REMARK    6  A    between atoms: N_17  and  CA_18 
REMARK    7  A    between atoms: CA_18  and  C_19 
REMARK       I    between atoms: C_19  and  N_24 
REMARK    8  A    between atoms: N_24  and  CA_25 
REMARK    9  A    between atoms: CA_25  and  C_26 
REMARK   10  A    between atoms: CA_25  and  CB_28 
REMARK       I    between atoms: C_26  and  N_48 
REMARK   11  A    between atoms: CB_28  and  CG_29 
REMARK   12  A    between atoms: N_48  and  CA_49 
REMARK   13  A    between atoms: CA_49  and  C_50 
REMARK   14  A    between atoms: CA_49  and  CB_52 
REMARK       I    between atoms: C_50  and  N_63 
REMARK   15  A    between atoms: CB_52  and  CG_53 
REMARK   16  A    between atoms: CG_53  and  CD_54 
REMARK   17  A    between atoms: N_63  and  CA_64 
REMARK   18  A    between atoms: CA_64  and  C_65 
REMARK   19  A    between atoms: CA_64  and  CB_67 
REMARK       I    between atoms: C_65  and  N_77 
REMARK   20  A    between atoms: CB_67  and  OG1_68 
REMARK   21  A    between atoms: CB_67  and  CG2_69 
REMARK   22  A    between atoms: N_77  and  CA_78 
REMARK   23  A    between atoms: CA_78  and  C_79 
REMARK   24  A    between atoms: CA_78  and  CB_81 
REMARK       I    between atoms: C_79  and  N_101 
REMARK   25  A    between atoms: CB_81  and  CG_82 
REMARK   26  A    between atoms: N_101  and  CA_102 
REMARK   27  A    between atoms: CA_102  and  C_103 
REMARK   28  A    between atoms: CA_102  and  CB_105 
REMARK   29  A    between atoms: CB_105  and  CG1_106 
REMARK   30  A    between atoms: CB_105  and  CG2_107 
ROOT
ATOM      1  CA  GLU d   1       2.935  -2.082  -1.427  0.00  0.00     0.090 C 
ATOM      2  H24 GLU d   1       3.635  -2.345  -2.234  0.00  0.00     0.087 H 
ENDROOT
BRANCH   1   3
ATOM      3  N   GLU d   1       2.719  -3.266  -0.598  0.00  0.00    -0.346 N 
ATOM      4  C   TRP d   1       3.738  -4.008  -0.173  0.00  0.00     0.241 C 
ATOM      5  O   TRP d   1       4.909  -3.750  -0.448  0.00  0.00    -0.271 OA
ATOM      6  H23 GLU d   1       1.786  -3.524  -0.345  0.00  0.00     0.163 HD
BRANCH   4   7
ATOM      7  CA  TRP d   1       3.388  -5.218   0.688  0.00  0.00     0.093 C 
ATOM      8  H14 TRP d   1       4.290  -5.521   1.240  0.00  0.00     0.088 H 
BRANCH   7   9
ATOM      9  N   TRP d   1       2.351  -4.888   1.662  0.00  0.00    -0.346 N 
ATOM     10  C   GLY d   1       2.027  -5.723   2.646  0.00  0.00     0.236 C 
ATOM     11  O   GLY d   1       2.568  -6.816   2.803  0.00  0.00    -0.272 OA
ATOM     12  H13 TRP d   1       1.873  -4.013   1.588  0.00  0.00     0.163 HD
BRANCH  10  13
ATOM     13  CA  GLY d   1       0.937  -5.257   3.592  0.00  0.00     0.069 C 
ATOM     14  H11 GLY d   1       1.392  -5.022   4.566  0.00  0.00     0.078 H 
ATOM     15  H12 GLY d   1       0.473  -4.351   3.176  0.00  0.00     0.078 H 
BRANCH  13  16
ATOM     16  N   GLY d   1      -0.095  -6.259   3.790  0.00  0.00    -0.350 N 
ATOM     17  C   THR d   1       0.104  -7.294   4.602  0.00  0.00     0.251 C 
ATOM     18  O   THR d   1       1.152  -7.467   5.226  0.00  0.00    -0.271 OA
ATOM     19  H10 GLY d   1      -0.967  -6.170   3.309  0.00  0.00     0.163 HD
BRANCH  17  20
ATOM     20  CA  THR d   1      -1.053  -8.279   4.730  0.00  0.00     0.199 C 
ATOM     21  H4  THR d   1      -0.733  -9.115   5.369  0.00  0.00     0.103 H 
BRANCH  20  22
ATOM     22  N   THR d   1      -2.244  -7.633   5.341  0.00  0.00    -0.064 N 
ATOM     23  H1  THR d   1      -2.001  -7.271   6.250  0.00  0.00     0.275 HD
ATOM     24  H2  THR d   1      -2.983  -8.312   5.436  0.00  0.00     0.275 HD
ATOM     25  H3  THR d   1      -2.556  -6.878   4.751  0.00  0.00     0.275 HD
ENDBRANCH  20  22
BRANCH  20  26
ATOM     26  CB  THR d   1      -1.443  -8.820   3.355  0.00  0.00     0.068 C 
ATOM     27  H5  THR d   1      -1.435  -7.978   2.647  0.00  0.00     0.086 H 
BRANCH  26  28
ATOM     28  OG1 THR d   1      -2.743  -9.382   3.388  0.00  0.00    -0.393 OA
ATOM     29  H6  THR d   1      -2.966  -9.712   2.526  0.00  0.00     0.210 HD
ENDBRANCH  26  28
BRANCH  26  30
ATOM     30  CG2 THR d   1      -0.497  -9.886   2.842  0.00  0.00    -0.050 C 
ATOM     31  H7  THR d   1      -0.834 -10.230   1.853  0.00  0.00     0.031 H 
ATOM     32  H8  THR d   1      -0.487 -10.735   3.542  0.00  0.00     0.031 H 
ATOM     33  H9  THR d   1       0.517  -9.467   2.759  0.00  0.00     0.031 H 
ENDBRANCH  26  30
ENDBRANCH  20  26
ENDBRANCH  17  20
ENDBRANCH  13  16
ENDBRANCH  10  13
ENDBRANCH   7   9
BRANCH   7  34
ATOM     34  CB  TRP d   1       2.953  -6.389  -0.205  0.00  0.00    -0.012 C 
ATOM     35  H15 TRP d   1       3.084  -7.323   0.361  0.00  0.00     0.044 H 
ATOM     36  H16 TRP d   1       3.601  -6.405  -1.094  0.00  0.00     0.044 H 
BRANCH  34  37
ATOM     37  CG  TRP d   1       1.526  -6.311  -0.663  0.00  0.00    -0.028 A 
ATOM     38  CD1 TRP d   1       0.426  -6.770   0.003  0.00  0.00    -0.015 A 
ATOM     39  NE1 TRP d   1      -0.709  -6.527  -0.735  0.00  0.00    -0.365 N 
ATOM     40  H17 TRP d   1       0.445  -7.258   0.977  0.00  0.00     0.112 H 
ATOM     41  CE2 TRP d   1      -0.354  -5.903  -1.902  0.00  0.00     0.042 A 
ATOM     42  H18 TRP d   1      -1.669  -6.774  -0.456  0.00  0.00     0.165 HD
ATOM     43  CD2 TRP d   1       1.046  -5.752  -1.892  0.00  0.00    -0.002 A 
ATOM     44  CZ2 TRP d   1      -1.145  -5.461  -2.960  0.00  0.00    -0.056 A 
ATOM     45  CE3 TRP d   1       1.663  -5.137  -2.986  0.00  0.00    -0.070 A 
ATOM     46  CZ3 TRP d   1       0.877  -4.699  -4.035  0.00  0.00    -0.082 A 
ATOM     47  H19 TRP d   1       2.739  -5.006  -3.011  0.00  0.00     0.084 H 
ATOM     48  CH2 TRP d   1      -0.513  -4.862  -4.015  0.00  0.00    -0.081 A 
ATOM     49  H21 TRP d   1       1.345  -4.221  -4.888  0.00  0.00     0.083 H 
ATOM     50  H22 TRP d   1      -1.101  -4.506  -4.853  0.00  0.00     0.083 H 
ATOM     51  H20 TRP d   1      -2.222  -5.587  -2.948  0.00  0.00     0.086 H 
ENDBRANCH  34  37
ENDBRANCH   7  34
ENDBRANCH   4   7
ENDBRANCH   1   3
BRANCH   1  52
ATOM     52  C   GLU d   1       3.543  -0.948  -0.607  0.00  0.00     0.241 C 
ATOM     53  O   GLU d   1       3.056  -0.622   0.476  0.00  0.00    -0.271 OA
ATOM     54  N   THR d   1       4.607  -0.349  -1.134  0.00  0.00    -0.344 N 
ATOM     55  H29 THR d   1       4.952  -0.663  -2.019  0.00  0.00     0.163 HD
BRANCH  54  56
ATOM     56  CA  THR d   1       5.286   0.753  -0.459  0.00  0.00     0.113 C 
ATOM     57  H30 THR d   1       4.730   0.998   0.458  0.00  0.00     0.091 H 
BRANCH  56  58
ATOM     58  C   THR d   1       5.323   1.989  -1.352  0.00  0.00     0.243 C 
ATOM     59  O   THR d   1       5.874   1.955  -2.452  0.00  0.00    -0.271 OA
ATOM     60  N   TRP d   1       4.731   3.078  -0.874  0.00  0.00    -0.346 N 
ATOM     61  H36 TRP d   1       4.300   3.043   0.028  0.00  0.00     0.163 HD
BRANCH  60  62
ATOM     62  CA  TRP d   1       4.694   4.322  -1.632  0.00  0.00     0.093 C 
ATOM     63  H37 TRP d   1       4.622   4.076  -2.702  0.00  0.00     0.088 H 
BRANCH  62  64
ATOM     64  C   TRP d   1       5.965   5.135  -1.408  0.00  0.00     0.241 C 
ATOM     65  O   TRP d   1       6.227   5.604  -0.300  0.00  0.00    -0.271 OA
ATOM     66  N   VAL d   1       6.752   5.293  -2.468  0.00  0.00    -0.344 N 
ATOM     67  H46 VAL d   1       6.482   4.885  -3.340  0.00  0.00     0.163 HD
BRANCH  66  68
ATOM     68  CA  VAL d   1       7.998   6.045  -2.391  0.00  0.00     0.099 C 
ATOM     69  H47 VAL d   1       8.385   5.964  -1.365  0.00  0.00     0.090 H 
BRANCH  68  70
ATOM     70  C   VAL d   1       7.772   7.520  -2.710  0.00  0.00     0.197 C 
ATOM     71  O   VAL d   1       8.412   8.369  -2.055  0.00  0.00    -0.646 OA
ATOM     72  OXT VAL d   1       6.958   7.813  -3.609  0.00  0.00    -0.646 OA
ENDBRANCH  68  70
BRANCH  68  73
ATOM     73  CB  VAL d   1       9.053   5.476  -3.360  0.00  0.00    -0.032 C 
ATOM     74  H48 VAL d   1       9.938   6.128  -3.327  0.00  0.00     0.042 H 
BRANCH  73  75
ATOM     75  CG1 VAL d   1       9.474   4.078  -2.930  0.00  0.00    -0.071 C 
ATOM     76  H49 VAL d   1      10.226   3.689  -3.632  0.00  0.00     0.028 H 
ATOM     77  H50 VAL d   1       8.596   3.415  -2.929  0.00  0.00     0.028 H 
ATOM     78  H51 VAL d   1       9.904   4.119  -1.918  0.00  0.00     0.028 H 
ENDBRANCH  73  75
BRANCH  73  79
ATOM     79  CG2 VAL d   1       8.523   5.465  -4.786  0.00  0.00    -0.071 C 
ATOM     80  H52 VAL d   1       8.226   6.484  -5.074  0.00  0.00     0.028 H 
ATOM     81  H53 VAL d   1       7.651   4.797  -4.848  0.00  0.00     0.028 H 
ATOM     82  H54 VAL d   1       9.309   5.106  -5.467  0.00  0.00     0.028 H 
ENDBRANCH  73  79
ENDBRANCH  68  73
ENDBRANCH  66  68
ENDBRANCH  62  64
BRANCH  62  83
ATOM     83  CB  TRP d   1       3.466   5.144  -1.238  0.00  0.00    -0.012 C 
ATOM     84  H38 TRP d   1       3.529   6.126  -1.729  0.00  0.00     0.044 H 
ATOM     85  H39 TRP d   1       3.470   5.279  -0.146  0.00  0.00     0.044 H 
BRANCH  83  86
ATOM     86  CG  TRP d   1       2.176   4.494  -1.635  0.00  0.00    -0.028 A 
ATOM     87  CD1 TRP d   1       1.424   3.637  -0.885  0.00  0.00    -0.015 A 
ATOM     88  NE1 TRP d   1       0.312   3.244  -1.590  0.00  0.00    -0.365 N 
ATOM     89  H40 TRP d   1       1.669   3.312   0.125  0.00  0.00     0.112 H 
ATOM     90  CE2 TRP d   1       0.330   3.849  -2.820  0.00  0.00     0.042 A 
ATOM     91  H41 TRP d   1      -0.416   2.600  -1.250  0.00  0.00     0.165 HD
ATOM     92  CD2 TRP d   1       1.490   4.644  -2.884  0.00  0.00    -0.002 A 
ATOM     93  CZ2 TRP d   1      -0.572   3.764  -3.877  0.00  0.00    -0.056 A 
ATOM     94  CE3 TRP d   1       1.744   5.374  -4.048  0.00  0.00    -0.070 A 
ATOM     95  CZ3 TRP d   1       0.846   5.288  -5.097  0.00  0.00    -0.082 A 
ATOM     96  H42 TRP d   1       2.628   5.996  -4.128  0.00  0.00     0.084 H 
ATOM     97  CH2 TRP d   1      -0.300   4.489  -5.005  0.00  0.00    -0.081 A 
ATOM     98  H44 TRP d   1       1.033   5.849  -6.006  0.00  0.00     0.083 H 
ATOM     99  H45 TRP d   1      -0.985   4.444  -5.844  0.00  0.00     0.083 H 
ATOM    100  H43 TRP d   1      -1.459   3.145  -3.809  0.00  0.00     0.086 H 
ENDBRANCH  83  86
ENDBRANCH  62  83
ENDBRANCH  60  62
ENDBRANCH  56  58
BRANCH  56 101
ATOM    101  CB  THR d   1       6.709   0.344  -0.075  0.00  0.00     0.060 C 
ATOM    102  H31 THR d   1       7.315   0.333  -0.993  0.00  0.00     0.086 H 
BRANCH 101 103
ATOM    103  OG1 THR d   1       6.720  -0.951   0.499  0.00  0.00    -0.393 OA
ATOM    104  H32 THR d   1       7.611  -1.186   0.730  0.00  0.00     0.210 HD
ENDBRANCH 101 103
BRANCH 101 105
ATOM    105  CG2 THR d   1       7.356   1.289   0.914  0.00  0.00    -0.050 C 
ATOM    106  H33 THR d   1       8.372   0.938   1.146  0.00  0.00     0.031 H 
ATOM    107  H34 THR d   1       6.759   1.319   1.837  0.00  0.00     0.031 H 
ATOM    108  H35 THR d   1       7.407   2.298   0.478  0.00  0.00     0.031 H 
ENDBRANCH 101 105
ENDBRANCH  56 101
ENDBRANCH  54  56
ENDBRANCH   1  52
BRANCH   1 109
ATOM    109  CB  GLU d   1       1.619  -1.618  -2.053  0.00  0.00    -0.029 C 
ATOM    110  H25 GLU d   1       1.304  -2.365  -2.796  0.00  0.00     0.037 H 
ATOM    111  H26 GLU d   1       1.792  -0.654  -2.553  0.00  0.00     0.037 H 
BRANCH 109 112
ATOM    112  CG  GLU d   1       0.498  -1.442  -1.042  0.00  0.00     0.018 C 
ATOM    113  H27 GLU d   1      -0.070  -0.536  -1.301  0.00  0.00     0.049 H 
ATOM    114  H28 GLU d   1       0.941  -1.324  -0.042  0.00  0.00     0.049 H 
BRANCH 112 115
ATOM    115  CD  GLU d   1      -0.456  -2.621  -1.013  0.00  0.00     0.172 C 
ATOM    116  OE1 GLU d   1      -1.137  -2.858  -2.032  0.00  0.00    -0.648 OA
ATOM    117  OE2 GLU d   1      -0.521  -3.306   0.029  0.00  0.00    -0.648 OA
ENDBRANCH 112 115
ENDBRANCH 109 112
ENDBRANCH   1 109
TORSDOF 30
