REMARK  12 active torsions:
REMARK  status: ('A' for Active; 'I' for Inactive)
REMARK    1  A    between atoms: O1_1  and  C1_2 
REMARK    2  A    between atoms: C1_2  and  C2_3 
REMARK    3  A    between atoms: C2_3  and  C3_4 
REMARK    4  A    between atoms: C3_4  and  C4_5 
REMARK    5  A    between atoms: C4_5  and  C5_6 
REMARK    6  A    between atoms: C5_6  and  C6_7 
REMARK    7  A    between atoms: C6_7  and  C7_8 
REMARK    8  A    between atoms: C7_8  and  C8_9 
REMARK    9  A    between atoms: C8_9  and  C9_10 
REMARK   10  A    between atoms: C9_10  and  C10_11 
REMARK   11  A    between atoms: C10_11  and  C11_12 
REMARK   12  A    between atoms: C11_12  and  C12_13 
ROOT
ATOM      1  C6  BDD d   1      18.170  -1.252  -1.223  0.00  0.00    -0.065 C 
ATOM      2  H12 BDD d   1      18.413  -2.111  -1.866  0.00  0.00     0.033 H 
ATOM      3  H13 BDD d   1      17.083  -1.215  -1.056  0.00  0.00     0.033 H 
ENDROOT
BRANCH   1   4
ATOM      4  C5  BDD d   1      18.612   0.026  -1.910  0.00  0.00    -0.065 C 
ATOM      5  H10 BDD d   1      18.169   0.881  -1.379  0.00  0.00     0.033 H 
ATOM      6  H11 BDD d   1      19.709   0.091  -1.859  0.00  0.00     0.033 H 
BRANCH   4   7
ATOM      7  C4  BDD d   1      18.188   0.088  -3.374  0.00  0.00    -0.065 C 
ATOM      8  H8  BDD d   1      18.732   0.909  -3.863  0.00  0.00     0.033 H 
ATOM      9  H9  BDD d   1      18.451  -0.865  -3.857  0.00  0.00     0.033 H 
BRANCH   7  10
ATOM     10  C3  BDD d   1      16.721   0.320  -3.541  0.00  0.00    -0.063 C 
ATOM     11  H6  BDD d   1      16.189  -0.642  -3.492  0.00  0.00     0.033 H 
ATOM     12  H7  BDD d   1      16.360   0.980  -2.738  0.00  0.00     0.033 H 
BRANCH  10  13
ATOM     13  C2  BDD d   1      16.465   0.973  -4.888  0.00  0.00    -0.045 C 
ATOM     14  H4  BDD d   1      16.283   2.046  -4.729  0.00  0.00     0.036 H 
ATOM     15  H5  BDD d   1      17.358   0.842  -5.517  0.00  0.00     0.036 H 
BRANCH  13  16
ATOM     16  C1  BDD d   1      15.267   0.380  -5.616  0.00  0.00     0.017 C 
ATOM     17  H2  BDD d   1      15.149  -0.678  -5.340  0.00  0.00     0.073 H 
ATOM     18  H3  BDD d   1      14.355   0.933  -5.347  0.00  0.00     0.073 H 
BRANCH  16  19
ATOM     19  O1  BDD d   1      15.506   0.492  -7.024  0.00  0.00    -0.401 OA
ATOM     20  H1  BDD d   1      14.769   0.127  -7.499  0.00  0.00     0.209 HD
ENDBRANCH  16  19
ENDBRANCH  13  16
ENDBRANCH  10  13
ENDBRANCH   7  10
ENDBRANCH   4   7
ENDBRANCH   1   4
BRANCH   1  21
ATOM     21  C7  BDD d   1      18.879  -1.413   0.119  0.00  0.00    -0.065 C 
ATOM     22  H14 BDD d   1      18.917  -0.432   0.616  0.00  0.00     0.033 H 
ATOM     23  H15 BDD d   1      19.903  -1.770  -0.066  0.00  0.00     0.033 H 
BRANCH  21  24
ATOM     24  C8  BDD d   1      18.181  -2.399   1.045  0.00  0.00    -0.065 C 
ATOM     25  H16 BDD d   1      18.293  -3.417   0.645  0.00  0.00     0.033 H 
ATOM     26  H17 BDD d   1      17.112  -2.146   1.109  0.00  0.00     0.033 H 
BRANCH  24  27
ATOM     27  C9  BDD d   1      18.801  -2.331   2.437  0.00  0.00    -0.065 C 
ATOM     28  H18 BDD d   1      19.856  -2.034   2.342  0.00  0.00     0.033 H 
ATOM     29  H19 BDD d   1      18.740  -3.326   2.903  0.00  0.00     0.033 H 
BRANCH  27  30
ATOM     30  C10 BDD d   1      18.088  -1.330   3.324  0.00  0.00    -0.064 C 
ATOM     31  H20 BDD d   1      17.011  -1.381   3.108  0.00  0.00     0.033 H 
ATOM     32  H21 BDD d   1      18.463  -0.324   3.083  0.00  0.00     0.033 H 
BRANCH  30  33
ATOM     33  C11 BDD d   1      18.291  -1.573   4.809  0.00  0.00    -0.057 C 
ATOM     34  H22 BDD d   1      19.370  -1.549   5.020  0.00  0.00     0.034 H 
ATOM     35  H23 BDD d   1      17.891  -2.567   5.056  0.00  0.00     0.034 H 
BRANCH  33  36
ATOM     36  C12 BDD d   1      17.603  -0.543   5.699  0.00  0.00    -0.014 C 
ATOM     37 BR   BDD d   1      18.101   0.901   5.308  0.00  0.00    -0.097 Br
ATOM     38  H24 BDD d   1      17.850  -0.744   6.752  0.00  0.00     0.049 H 
ATOM     39  H25 BDD d   1      16.514  -0.606   5.559  0.00  0.00     0.049 H 
ENDBRANCH  33  36
ENDBRANCH  30  33
ENDBRANCH  27  30
ENDBRANCH  24  27
ENDBRANCH  21  24
ENDBRANCH   1  21
TORSDOF 12
