REMARK  12 active torsions:
REMARK  status: ('A' for Active; 'I' for Inactive)
REMARK    1  A    between atoms: O1_1  and  C1_2 
REMARK    2  A    between atoms: C1_2  and  C2_3 
REMARK    3  A    between atoms: C2_3  and  C3_4 
REMARK    4  A    between atoms: C3_4  and  C4_5 
REMARK    5  A    between atoms: C4_5  and  C5_6 
REMARK    6  A    between atoms: C5_6  and  C6_7 
REMARK    7  A    between atoms: C6_7  and  C7_8 
REMARK    8  A    between atoms: C7_8  and  C8_9 
REMARK    9  A    between atoms: C8_9  and  C9_10 
REMARK   10  A    between atoms: C9_10  and  C10_11 
REMARK   11  A    between atoms: C10_11  and  C11_12 
REMARK   12  A    between atoms: C11_12  and  C12_13 
ROOT
ATOM      1  C6  BDD d   1      16.944  24.271  29.734  0.00  0.00    -0.065 C 
ATOM      2  H12 BDD d   1      17.612  23.523  30.185  0.00  0.00     0.033 H 
ATOM      3  H13 BDD d   1      16.647  23.939  28.728  0.00  0.00     0.033 H 
ENDROOT
BRANCH   1   4
ATOM      4  C5  BDD d   1      17.704  25.594  29.609  0.00  0.00    -0.065 C 
ATOM      5  H10 BDD d   1      16.986  26.396  29.383  0.00  0.00     0.033 H 
ATOM      6  H11 BDD d   1      18.203  25.808  30.565  0.00  0.00     0.033 H 
BRANCH   4   7
ATOM      7  C4  BDD d   1      18.755  25.548  28.504  0.00  0.00    -0.065 C 
ATOM      8  H8  BDD d   1      19.553  26.270  28.733  0.00  0.00     0.033 H 
ATOM      9  H9  BDD d   1      19.181  24.535  28.451  0.00  0.00     0.033 H 
BRANCH   7  10
ATOM     10  C3  BDD d   1      18.130  25.900  27.162  0.00  0.00    -0.063 C 
ATOM     11  H6  BDD d   1      17.178  25.359  27.061  0.00  0.00     0.033 H 
ATOM     12  H7  BDD d   1      17.941  26.983  27.132  0.00  0.00     0.033 H 
BRANCH  10  13
ATOM     13  C2  BDD d   1      19.034  25.526  25.995  0.00  0.00    -0.045 C 
ATOM     14  H4  BDD d   1      18.786  26.159  25.130  0.00  0.00     0.036 H 
ATOM     15  H5  BDD d   1      20.082  25.693  26.284  0.00  0.00     0.036 H 
BRANCH  13  16
ATOM     16  C1  BDD d   1      18.850  24.061  25.610  0.00  0.00     0.017 C 
ATOM     17  H2  BDD d   1      19.716  23.480  25.960  0.00  0.00     0.073 H 
ATOM     18  H3  BDD d   1      17.934  23.672  26.079  0.00  0.00     0.073 H 
BRANCH  16  19
ATOM     19  O1  BDD d   1      18.743  23.945  24.199  0.00  0.00    -0.401 OA
ATOM     20  H1  BDD d   1      19.534  24.280  23.794  0.00  0.00     0.209 HD
ENDBRANCH  16  19
ENDBRANCH  13  16
ENDBRANCH  10  13
ENDBRANCH   7  10
ENDBRANCH   4   7
ENDBRANCH   1   4
BRANCH   1  21
ATOM     21  C7  BDD d   1      15.690  24.391  30.599  0.00  0.00    -0.065 C 
ATOM     22  H14 BDD d   1      15.215  25.363  30.402  0.00  0.00     0.033 H 
ATOM     23  H15 BDD d   1      15.983  24.334  31.658  0.00  0.00     0.033 H 
BRANCH  21  24
ATOM     24  C8  BDD d   1      14.680  23.281  30.306  0.00  0.00    -0.065 C 
ATOM     25  H16 BDD d   1      15.197  22.310  30.327  0.00  0.00     0.033 H 
ATOM     26  H17 BDD d   1      14.246  23.444  29.308  0.00  0.00     0.033 H 
BRANCH  24  27
ATOM     27  C9  BDD d   1      13.560  23.272  31.341  0.00  0.00    -0.065 C 
ATOM     28  H18 BDD d   1      13.989  23.494  32.329  0.00  0.00     0.033 H 
ATOM     29  H19 BDD d   1      13.100  22.273  31.357  0.00  0.00     0.033 H 
BRANCH  27  30
ATOM     30  C10 BDD d   1      12.483  24.303  31.031  0.00  0.00    -0.064 C 
ATOM     31  H20 BDD d   1      12.114  24.132  30.009  0.00  0.00     0.033 H 
ATOM     32  H21 BDD d   1      12.926  25.308  31.098  0.00  0.00     0.033 H 
BRANCH  30  33
ATOM     33  C11 BDD d   1      11.310  24.224  31.991  0.00  0.00    -0.057 C 
ATOM     34  H22 BDD d   1      11.665  24.460  33.005  0.00  0.00     0.034 H 
ATOM     35  H23 BDD d   1      10.905  23.201  31.973  0.00  0.00     0.034 H 
BRANCH  33  36
ATOM     36  C12 BDD d   1      10.196  25.201  31.620  0.00  0.00    -0.014 C 
ATOM     37 BR   BDD d   1      10.544  26.709  32.119  0.00  0.00    -0.097 Br
ATOM     38  H24 BDD d   1       9.259  24.874  32.094  0.00  0.00     0.049 H 
ATOM     39  H25 BDD d   1      10.072  25.205  30.527  0.00  0.00     0.049 H 
ENDBRANCH  33  36
ENDBRANCH  30  33
ENDBRANCH  27  30
ENDBRANCH  24  27
ENDBRANCH  21  24
ENDBRANCH   1  21
TORSDOF 12
