REMARK  18 active torsions:
REMARK  status: ('A' for Active; 'I' for Inactive)
REMARK    1  A    between atoms: C17_7  and  C3_3 
REMARK    2  A    between atoms: C19_8  and  C17_7 
REMARK    3  A    between atoms: N2_9  and  C19_8 
REMARK    4  A    between atoms: N2_9  and  C25_10 
REMARK    5  A    between atoms: C38_14  and  N2_9 
REMARK    6  A    between atoms: C25_10  and  C26_11 
REMARK    7  A    between atoms: C26_11  and  C29_12 
REMARK    8  A    between atoms: C29_12  and  C32_13 
REMARK    9  A    between atoms: C40_15  and  C38_14 
REMARK   10  A    between atoms: C65_27  and  C45_18 
REMARK   11  A    between atoms: C46_19  and  C51_21 
REMARK   12  A    between atoms: C52_22  and  C7_38 
REMARK       I    between atoms: N1_33  and  C65_27 
REMARK   13  A    between atoms: C66_28  and  C68_30 
REMARK   14  A    between atoms: C66_28  and  N1_33 
REMARK   15  A    between atoms: C66_28  and  C74_34 
REMARK   16  A    between atoms: C74_34  and  C76_35 
REMARK   17  A    between atoms: C76_35  and  S1_36 
REMARK   18  A    between atoms: S1_36  and  C82_37 
ROOT
ATOM      1  C40 TIN d   1      53.346  48.393   0.336  0.00  0.00    -0.032 A 
ATOM      2  C43 TIN d   1      53.874  47.570   1.390  0.00  0.00    -0.074 A 
ATOM      3  C44 TIN d   1      54.542  48.189   2.496  0.00  0.00    -0.066 A 
ATOM      4  C45 TIN d   1      54.668  49.622   2.534  0.00  0.00     0.043 A 
ATOM      5  C46 TIN d   1      54.139  50.443   1.462  0.00  0.00    -0.009 A 
ATOM      6  C47 TIN d   1      53.481  49.804   0.375  0.00  0.00    -0.064 A 
ATOM      7  H28 TIN d   1      53.768  46.492   1.348  0.00  0.00     0.084 H 
ATOM      8  H29 TIN d   1      54.949  47.583   3.297  0.00  0.00     0.085 H 
ATOM      9  H30 TIN d   1      53.078  50.403  -0.433  0.00  0.00     0.085 H 
ENDROOT
BRANCH   1  10
ATOM     10  C38 TIN d   1      52.616  47.745  -0.839  0.00  0.00     0.107 C 
ATOM     11  H26 TIN d   1      52.896  48.300  -1.747  0.00  0.00     0.083 H 
ATOM     12  H27 TIN d   1      52.974  46.708  -0.918  0.00  0.00     0.083 H 
BRANCH  10  13
ATOM     13  N2  TIN d   1      51.088  47.699  -0.783  0.00  0.00    -0.067 N 
ATOM     14  H16 TIN d   1      50.807  47.526  -1.735  0.00  0.00     0.280 HD
BRANCH  13  15
ATOM     15  C19 TIN d   1      50.421  48.980  -0.414  0.00  0.00     0.084 C 
ATOM     16  H14 TIN d   1      49.667  48.789   0.364  0.00  0.00     0.076 H 
ATOM     17  H15 TIN d   1      51.172  49.686  -0.031  0.00  0.00     0.076 H 
BRANCH  15  18
ATOM     18  C17 TIN d   1      49.734  49.586  -1.656  0.00  0.00    -0.039 C 
ATOM     19  H12 TIN d   1      50.377  49.412  -2.531  0.00  0.00     0.035 H 
ATOM     20  H13 TIN d   1      48.769  49.080  -1.804  0.00  0.00     0.035 H 
BRANCH  18  21
ATOM     21  C3  TIN d   1      49.479  51.098  -1.529  0.00  0.00    -0.053 C 
ATOM     22  C2  TIN d   1      47.969  51.413  -1.692  0.00  0.00    -0.062 C 
ATOM     23  C1  TIN d   1      47.696  52.935  -1.570  0.00  0.00    -0.065 C 
ATOM     24  H3  TIN d   1      47.635  51.067  -2.681  0.00  0.00     0.033 H 
ATOM     25  H4  TIN d   1      47.406  50.884  -0.909  0.00  0.00     0.033 H 
ATOM     26  C6  TIN d   1      48.587  53.763  -2.546  0.00  0.00    -0.065 C 
ATOM     27  H1  TIN d   1      47.907  53.253  -0.538  0.00  0.00     0.033 H 
ATOM     28  H2  TIN d   1      46.638  53.127  -1.804  0.00  0.00     0.033 H 
ATOM     29  C5  TIN d   1      50.094  53.407  -2.424  0.00  0.00    -0.065 C 
ATOM     30  H10 TIN d   1      48.458  54.832  -2.321  0.00  0.00     0.033 H 
ATOM     31  H11 TIN d   1      48.260  53.564  -3.577  0.00  0.00     0.033 H 
ATOM     32  C4  TIN d   1      50.340  51.883  -2.544  0.00  0.00    -0.062 C 
ATOM     33  H8  TIN d   1      50.646  53.920  -3.225  0.00  0.00     0.033 H 
ATOM     34  H9  TIN d   1      50.462  53.751  -1.446  0.00  0.00     0.033 H 
ATOM     35  H6  TIN d   1      50.082  51.557  -3.562  0.00  0.00     0.033 H 
ATOM     36  H7  TIN d   1      51.403  51.675  -2.351  0.00  0.00     0.033 H 
ATOM     37  H5  TIN d   1      49.781  51.411  -0.518  0.00  0.00     0.040 H 
ENDBRANCH  18  21
ENDBRANCH  15  18
ENDBRANCH  13  15
BRANCH  13  38
ATOM     38  C25 TIN d   1      50.545  46.551   0.000  0.00  0.00     0.084 C 
ATOM     39  H17 TIN d   1      50.102  46.919   0.937  0.00  0.00     0.076 H 
ATOM     40  H18 TIN d   1      51.355  45.844   0.230  0.00  0.00     0.076 H 
BRANCH  38  41
ATOM     41  C26 TIN d   1      49.463  45.844  -0.842  0.00  0.00    -0.043 C 
ATOM     42  H19 TIN d   1      49.925  45.494  -1.777  0.00  0.00     0.035 H 
ATOM     43  H20 TIN d   1      48.672  46.573  -1.074  0.00  0.00     0.035 H 
BRANCH  41  44
ATOM     44  C29 TIN d   1      48.823  44.644  -0.141  0.00  0.00    -0.067 C 
ATOM     45  H21 TIN d   1      48.160  45.011   0.656  0.00  0.00     0.032 H 
ATOM     46  H22 TIN d   1      49.619  44.026   0.300  0.00  0.00     0.032 H 
BRANCH  44  47
ATOM     47  C32 TIN d   1      48.000  43.776  -1.110  0.00  0.00    -0.076 C 
ATOM     48  H23 TIN d   1      47.562  42.929  -0.562  0.00  0.00     0.027 H 
ATOM     49  H24 TIN d   1      48.655  43.396  -1.908  0.00  0.00     0.027 H 
ATOM     50  H25 TIN d   1      47.196  44.382  -1.552  0.00  0.00     0.027 H 
ENDBRANCH  44  47
ENDBRANCH  41  44
ENDBRANCH  38  41
ENDBRANCH  13  38
ENDBRANCH  10  13
ENDBRANCH   1  10
BRANCH   5  51
ATOM     51  C51 TIN d   1      54.218  51.926   1.409  0.00  0.00    -0.019 A 
ATOM     52  C52 TIN d   1      53.091  52.725   1.780  0.00  0.00    -0.051 A 
ATOM     53  C53 TIN d   1      53.194  54.144   1.727  0.00  0.00    -0.076 A 
ATOM     54  C54 TIN d   1      54.405  54.782   1.307  0.00  0.00    -0.082 A 
ATOM     55  H31 TIN d   1      52.342  54.751   2.009  0.00  0.00     0.084 H 
ATOM     56  C55 TIN d   1      55.532  53.992   0.931  0.00  0.00    -0.082 A 
ATOM     57  H32 TIN d   1      54.465  55.864   1.275  0.00  0.00     0.083 H 
ATOM     58  C56 TIN d   1      55.427  52.575   0.987  0.00  0.00    -0.072 A 
ATOM     59  H33 TIN d   1      56.453  54.464   0.608  0.00  0.00     0.083 H 
ATOM     60  H34 TIN d   1      56.281  51.970   0.704  0.00  0.00     0.084 H 
BRANCH  52  61
ATOM     61  C7  TIN d   1      51.757  52.249   2.372  0.00  0.00    -0.050 C 
ATOM     62  H44 TIN d   1      51.734  51.149   2.388  0.00  0.00     0.033 H 
ATOM     63  H45 TIN d   1      50.927  52.624   1.755  0.00  0.00     0.033 H 
ATOM     64  H46 TIN d   1      51.653  52.633   3.398  0.00  0.00     0.033 H 
ENDBRANCH  52  61
ENDBRANCH   5  51
BRANCH   4  65
ATOM     65  C65 TIN d   1      55.363  50.182   3.734  0.00  0.00     0.253 C 
ATOM     66  O67 TIN d   1      56.556  50.481   3.701  0.00  0.00    -0.268 OA
ATOM     67  N1  TIN d   1      54.655  50.362   4.905  0.00  0.00    -0.342 N 
ATOM     68  H36 TIN d   1      54.285  49.504   5.260  0.00  0.00     0.163 HD
BRANCH  67  69
ATOM     69  C66 TIN d   1      54.310  51.524   5.766  0.00  0.00     0.097 C 
ATOM     70  H35 TIN d   1      54.992  51.447   6.626  0.00  0.00     0.089 H 
BRANCH  69  71
ATOM     71  C68 TIN d   1      52.925  51.582   6.373  0.00  0.00     0.196 C 
ATOM     72  O69 TIN d   1      52.052  50.897   5.870  0.00  0.00    -0.646 OA
ATOM     73  O70 TIN d   1      52.713  52.313   7.331  0.00  0.00    -0.646 OA
ENDBRANCH  69  71
BRANCH  69  74
ATOM     74  C74 TIN d   1      54.646  52.846   5.070  0.00  0.00    -0.029 C 
ATOM     75  H37 TIN d   1      53.850  53.067   4.344  0.00  0.00     0.037 H 
ATOM     76  H38 TIN d   1      55.602  52.725   4.540  0.00  0.00     0.037 H 
BRANCH  74  77
ATOM     77  C76 TIN d   1      54.771  54.029   6.020  0.00  0.00    -0.021 C 
ATOM     78  H39 TIN d   1      55.578  53.822   6.739  0.00  0.00     0.049 H 
ATOM     79  H40 TIN d   1      53.821  54.151   6.561  0.00  0.00     0.049 H 
BRANCH  77  80
ATOM     80  S1  TIN d   1      55.142  55.547   5.162  0.00  0.00    -0.173 SA
BRANCH  80  81
ATOM     81  C82 TIN d   1      55.083  56.607   6.616  0.00  0.00    -0.035 C 
ATOM     82  H41 TIN d   1      55.292  57.646   6.321  0.00  0.00     0.041 H 
ATOM     83  H42 TIN d   1      55.838  56.274   7.343  0.00  0.00     0.041 H 
ATOM     84  H43 TIN d   1      54.084  56.549   7.072  0.00  0.00     0.041 H 
ENDBRANCH  80  81
ENDBRANCH  77  80
ENDBRANCH  74  77
ENDBRANCH  69  74
ENDBRANCH  67  69
ENDBRANCH   4  65
TORSDOF 18
