REMARK  8 active torsions:
REMARK  status: ('A' for Active; 'I' for Inactive)
REMARK    1  A    between atoms: C1_1  and  N2_2 
REMARK    2  A    between atoms: C6_6  and  C7_7 
REMARK    3  A    between atoms: C7_7  and  C8_8 
REMARK    4  A    between atoms: C8_8  and  N9_9 
REMARK    5  A    between atoms: C8_8  and  C19_19 
REMARK    6  A    between atoms: N9_9  and  C10_10 
REMARK    7  A    between atoms: C10_10  and  C11_11 
REMARK       I    between atoms: C19_19  and  N21_21 
REMARK    8  A    between atoms: C25_25  and  C27_27 
ROOT
ATOM      1  C11 FTH d   1      49.647  52.248  -1.179  0.00  0.00    -0.033 A 
ATOM      2  C12 FTH d   1      50.770  53.113  -1.095  0.00  0.00    -0.074 A 
ATOM      3  C13 FTH d   1      50.812  54.289  -1.910  0.00  0.00    -0.062 A 
ATOM      4  C14 FTH d   1      49.733  54.572  -2.801  0.00  0.00     0.044 A 
ATOM      5  C15 FTH d   1      49.789  55.746  -3.606  0.00  0.00     0.099 C 
ATOM      6  N16 FTH d   1      49.803  56.724  -4.191  0.00  0.00    -0.191 NA
ATOM      7  C17 FTH d   1      48.604  53.713  -2.885  0.00  0.00    -0.062 A 
ATOM      8  C18 FTH d   1      48.568  52.546  -2.070  0.00  0.00    -0.074 A 
ATOM      9  H13 FTH d   1      51.587  52.885  -0.420  0.00  0.00     0.084 H 
ATOM     10  H14 FTH d   1      51.660  54.962  -1.851  0.00  0.00     0.085 H 
ATOM     11  H15 FTH d   1      47.785  53.942  -3.557  0.00  0.00     0.085 H 
ATOM     12  H16 FTH d   1      47.716  51.878  -2.125  0.00  0.00     0.084 H 
ENDROOT
BRANCH   1  13
ATOM     13  C10 FTH d   1      49.601  51.027  -0.357  0.00  0.00     0.106 C 
ATOM     14  H11 FTH d   1      50.286  51.151   0.495  0.00  0.00     0.083 H 
ATOM     15  H12 FTH d   1      48.574  50.892   0.014  0.00  0.00     0.083 H 
BRANCH  13  16
ATOM     16  N9  FTH d   1      49.986  49.845  -1.090  0.00  0.00    -0.058 N 
ATOM     17  H9  FTH d   1      49.667  49.958  -2.040  0.00  0.00     0.278 HD
ATOM     18  H10 FTH d   1      50.993  49.793  -1.077  0.00  0.00     0.278 HD
BRANCH  16  19
ATOM     19  C8  FTH d   1      49.476  48.578  -0.605  0.00  0.00     0.183 C 
ATOM     20  H8  FTH d   1      49.032  48.759   0.385  0.00  0.00     0.100 H 
BRANCH  19  21
ATOM     21  C7  FTH d   1      48.347  48.103  -1.551  0.00  0.00     0.010 C 
ATOM     22  H6  FTH d   1      47.853  47.243  -1.075  0.00  0.00     0.046 H 
ATOM     23  H7  FTH d   1      47.627  48.929  -1.652  0.00  0.00     0.046 H 
BRANCH  21  24
ATOM     24  C6  FTH d   1      48.770  47.673  -2.974  0.00  0.00     0.032 A 
ATOM     25  N2  FTH d   1      47.947  46.941  -3.743  0.00  0.00    -0.348 N 
ATOM     26  C3  FTH d   1      48.627  46.763  -4.879  0.00  0.00     0.065 A 
ATOM     27  N4  FTH d   1      49.822  47.341  -4.872  0.00  0.00    -0.254 NA
ATOM     28  H4  FTH d   1      48.239  46.200  -5.727  0.00  0.00     0.143 H 
ATOM     29  C5  FTH d   1      49.943  47.917  -3.695  0.00  0.00     0.025 A 
ATOM     30  H5  FTH d   1      50.804  48.484  -3.344  0.00  0.00     0.117 H 
BRANCH  25  31
ATOM     31  C1  FTH d   1      46.601  46.438  -3.414  0.00  0.00    -0.013 C 
ATOM     32  H1  FTH d   1      46.202  45.872  -4.269  0.00  0.00     0.057 H 
ATOM     33  H2  FTH d   1      45.936  47.286  -3.193  0.00  0.00     0.057 H 
ATOM     34  H3  FTH d   1      46.660  45.780  -2.534  0.00  0.00     0.057 H 
ENDBRANCH  25  31
ENDBRANCH  21  24
ENDBRANCH  19  21
BRANCH  19  35
ATOM     35  C19 FTH d   1      50.582  47.472  -0.413  0.00  0.00     0.251 C 
ATOM     36  O20 FTH d   1      50.493  46.335  -0.900  0.00  0.00    -0.271 OA
ATOM     37  N21 FTH d   1      51.593  47.763   0.406  0.00  0.00    -0.346 N 
ATOM     38  C22 FTH d   1      51.685  47.038   1.600  0.00  0.00     0.002 C 
ATOM     39  C26 FTH d   1      52.543  48.886   0.074  0.00  0.00     0.023 C 
ATOM     40  C23 FTH d   1      53.021  46.985   2.238  0.00  0.00    -0.016 C 
ATOM     41  H17 FTH d   1      51.374  46.004   1.389  0.00  0.00     0.064 H 
ATOM     42  H18 FTH d   1      50.988  47.490   2.321  0.00  0.00     0.064 H 
ATOM     43  C24 FTH d   1      53.988  48.075   1.945  0.00  0.00     0.033 C 
ATOM     44  H19 FTH d   1      53.492  46.041   1.928  0.00  0.00     0.043 H 
ATOM     45  H20 FTH d   1      52.861  46.976   3.326  0.00  0.00     0.043 H 
ATOM     46  C25 FTH d   1      53.751  48.990   0.965  0.00  0.00    -0.012 C 
ATOM     47  C37 FTH d   1      55.133  48.151   2.850  0.00  0.00     0.096 C 
ATOM     48  N38 FTH d   1      56.140  48.162   3.445  0.00  0.00    -0.192 NA
ATOM     49  H21 FTH d   1      51.987  49.833   0.143  0.00  0.00     0.071 H 
ATOM     50  H22 FTH d   1      52.894  48.741  -0.958  0.00  0.00     0.071 H 
BRANCH  46  51
ATOM     51  C27 FTH d   1      54.685  50.094   0.765  0.00  0.00    -0.016 A 
ATOM     52  C28 FTH d   1      55.961  49.860   0.151  0.00  0.00    -0.072 A 
ATOM     53  C29 FTH d   1      56.875  50.933  -0.045  0.00  0.00    -0.081 A 
ATOM     54  H23 FTH d   1      56.230  48.859  -0.166  0.00  0.00     0.084 H 
ATOM     55  C30 FTH d   1      56.565  52.234   0.376  0.00  0.00    -0.072 A 
ATOM     56  H24 FTH d   1      57.827  50.741  -0.528  0.00  0.00     0.083 H 
ATOM     57  C31 FTH d   1      55.312  52.486   0.994  0.00  0.00    -0.025 A 
ATOM     58  H25 FTH d   1      57.275  53.040   0.231  0.00  0.00     0.084 H 
ATOM     59  C32 FTH d   1      55.001  53.808   1.407  0.00  0.00    -0.072 A 
ATOM     60  C36 FTH d   1      54.357  51.417   1.210  0.00  0.00    -0.015 A 
ATOM     61  C33 FTH d   1      53.743  54.084   2.011  0.00  0.00    -0.082 A 
ATOM     62  H26 FTH d   1      55.721  54.606   1.262  0.00  0.00     0.084 H 
ATOM     63  C34 FTH d   1      52.788  53.052   2.210  0.00  0.00    -0.082 A 
ATOM     64  H27 FTH d   1      53.510  55.096   2.324  0.00  0.00     0.083 H 
ATOM     65  C35 FTH d   1      53.076  51.730   1.814  0.00  0.00    -0.071 A 
ATOM     66  H28 FTH d   1      51.833  53.282   2.669  0.00  0.00     0.083 H 
ATOM     67  H29 FTH d   1      52.340  50.948   1.961  0.00  0.00     0.084 H 
ENDBRANCH  46  51
ENDBRANCH  19  35
ENDBRANCH  16  19
ENDBRANCH  13  16
ENDBRANCH   1  13
TORSDOF 8
