REMARK  5 active torsions:
REMARK  status: ('A' for Active; 'I' for Inactive)
REMARK       I    between atoms: C12_13  and  N1_3 
REMARK    1  A    between atoms: C4_5  and  C5_6 
REMARK    2  A    between atoms: C20_23  and  C12_13 
REMARK    3  A    between atoms: N3_20  and  C16_17 
REMARK    4  A    between atoms: C16_17  and  C22_25 
REMARK    5  A    between atoms: C18_21  and  C20_23 
ROOT
ATOM      1  C21 FTI d   1      51.535  48.128   1.996  0.00  0.00    -0.074 A 
ATOM      2  C22 FTI d   1      52.097  47.196   1.107  0.00  0.00    -0.040 A 
ATOM      3  C23 FTI d   1      53.455  47.210   0.843  0.00  0.00    -0.074 A 
ATOM      4  C24 FTI d   1      54.312  48.158   1.481  0.00  0.00    -0.062 A 
ATOM      5  C25 FTI d   1      53.764  49.120   2.370  0.00  0.00     0.044 A 
ATOM      6  C26 FTI d   1      52.354  49.110   2.647  0.00  0.00    -0.062 A 
ATOM      7  C27 FTI d   1      54.613  50.110   2.970  0.00  0.00     0.099 C 
ATOM      8  N4  FTI d   1      55.266  50.951   3.418  0.00  0.00    -0.191 NA
ATOM      9  H20 FTI d   1      50.469  48.105   2.192  0.00  0.00     0.084 H 
ATOM     10  H21 FTI d   1      53.873  46.494   0.145  0.00  0.00     0.084 H 
ATOM     11  H22 FTI d   1      55.378  48.143   1.287  0.00  0.00     0.085 H 
ATOM     12  H23 FTI d   1      51.919  49.828   3.332  0.00  0.00     0.085 H 
ENDROOT
BRANCH   2  13
ATOM     13  C16 FTI d   1      51.241  46.156   0.501  0.00  0.00     0.024 C 
ATOM     14  H14 FTI d   1      51.804  45.212   0.546  0.00  0.00     0.072 H 
ATOM     15  H15 FTI d   1      50.341  46.077   1.128  0.00  0.00     0.072 H 
BRANCH  13  16
ATOM     16  N3  FTI d   1      50.783  46.316  -0.888  0.00  0.00    -0.339 N 
ATOM     17  C17 FTI d   1      51.421  45.886  -2.005  0.00  0.00     0.066 A 
ATOM     18  N2  FTI d   1      50.704  46.035  -3.126  0.00  0.00    -0.254 NA
ATOM     19  H16 FTI d   1      52.423  45.459  -1.991  0.00  0.00     0.143 H 
ATOM     20  C19 FTI d   1      49.432  46.651  -2.694  0.00  0.00     0.026 A 
ATOM     21  C18 FTI d   1      49.455  46.832  -1.349  0.00  0.00     0.039 A 
ATOM     22  H17 FTI d   1      48.606  46.918  -3.352  0.00  0.00     0.117 H 
BRANCH  21  23
ATOM     23  C20 FTI d   1      48.312  47.409  -0.519  0.00  0.00     0.049 C 
ATOM     24  H18 FTI d   1      47.439  47.522  -1.178  0.00  0.00     0.056 H 
ATOM     25  H19 FTI d   1      48.078  46.690   0.280  0.00  0.00     0.056 H 
BRANCH  23  26
ATOM     26  C12 FTI d   1      48.600  48.826   0.163  0.00  0.00     0.225 C 
ATOM     27  N1  FTI d   1      48.839  49.940  -0.597  0.00  0.00    -0.347 N 
ATOM     28  C2  FTI d   1      48.148  50.216  -1.938  0.00  0.00     0.002 C 
ATOM     29  C3  FTI d   1      49.684  50.951   0.050  0.00  0.00     0.023 C 
ATOM     30  C1  FTI d   1      48.524  51.515  -2.638  0.00  0.00    -0.016 C 
ATOM     31  H3  FTI d   1      48.393  49.386  -2.618  0.00  0.00     0.064 H 
ATOM     32  H4  FTI d   1      47.063  50.235  -1.758  0.00  0.00     0.064 H 
ATOM     33  C28 FTI d   1      49.742  52.208  -2.170  0.00  0.00     0.033 C 
ATOM     34  H1  FTI d   1      47.681  52.211  -2.518  0.00  0.00     0.043 H 
ATOM     35  H2  FTI d   1      48.663  51.287  -3.705  0.00  0.00     0.043 H 
ATOM     36  C4  FTI d   1      50.294  51.945  -0.914  0.00  0.00    -0.012 C 
ATOM     37  C29 FTI d   1      50.329  53.124  -3.116  0.00  0.00     0.096 C 
ATOM     38  N5  FTI d   1      50.778  53.970  -3.757  0.00  0.00    -0.192 NA
ATOM     39  H5  FTI d   1      50.499  50.435   0.578  0.00  0.00     0.071 H 
ATOM     40  H6  FTI d   1      49.069  51.504   0.775  0.00  0.00     0.071 H 
ATOM     41  O1  FTI d   1      48.563  48.869   1.403  0.00  0.00    -0.273 OA
BRANCH  36  42
ATOM     42  C5  FTI d   1      51.549  52.559  -0.483  0.00  0.00    -0.016 A 
ATOM     43  C6  FTI d   1      52.771  51.879  -0.545  0.00  0.00    -0.015 A 
ATOM     44  C7  FTI d   1      54.028  52.521  -0.107  0.00  0.00    -0.025 A 
ATOM     45  C13 FTI d   1      52.809  50.513  -1.030  0.00  0.00    -0.071 A 
ATOM     46  C8  FTI d   1      53.992  53.813   0.369  0.00  0.00    -0.072 A 
ATOM     47  C11 FTI d   1      55.274  51.846  -0.190  0.00  0.00    -0.072 A 
ATOM     48  C9  FTI d   1      52.731  54.504   0.457  0.00  0.00    -0.081 A 
ATOM     49  H7  FTI d   1      54.907  54.307   0.675  0.00  0.00     0.084 H 
ATOM     50  C10 FTI d   1      51.490  53.925   0.042  0.00  0.00    -0.072 A 
ATOM     51  H8  FTI d   1      52.722  55.511   0.857  0.00  0.00     0.083 H 
ATOM     52  H9  FTI d   1      50.555  54.469   0.113  0.00  0.00     0.084 H 
ATOM     53  C14 FTI d   1      55.279  50.517  -0.658  0.00  0.00    -0.082 A 
ATOM     54  H10 FTI d   1      56.195  52.339   0.098  0.00  0.00     0.084 H 
ATOM     55  C15 FTI d   1      54.053  49.862  -1.083  0.00  0.00    -0.082 A 
ATOM     56  H12 FTI d   1      56.215  49.972  -0.702  0.00  0.00     0.083 H 
ATOM     57  H13 FTI d   1      54.100  48.843  -1.451  0.00  0.00     0.083 H 
ATOM     58  H11 FTI d   1      51.902  50.008  -1.343  0.00  0.00     0.084 H 
ENDBRANCH  36  42
ENDBRANCH  23  26
ENDBRANCH  21  23
ENDBRANCH  13  16
ENDBRANCH   2  13
TORSDOF 5
