REMARK  5 active torsions:
REMARK  status: ('A' for Active; 'I' for Inactive)
REMARK    1  A    between atoms: C11_1  and  C10_4 
REMARK    2  A    between atoms: C10_4  and  C9_5 
REMARK    3  A    between atoms: C9_5  and  C8_6 
REMARK    4  A    between atoms: C8_6  and  C7_7 
REMARK    5  A    between atoms: C7_7  and  C2_8 
ROOT
ATOM      1  C2  BTN d   1      21.396  15.617  30.088  0.00  0.00     0.012 C 
ATOM      2  S1  BTN d   1      20.765  13.911  30.371  0.00  0.00    -0.160 SA
ATOM      3  C6  BTN d   1      21.472  13.401  28.779  0.00  0.00    -0.002 C 
ATOM      4  C5  BTN d   1      22.832  14.073  28.683  0.00  0.00     0.042 A 
ATOM      5  N1  BTN d   1      23.908  13.321  29.308  0.00  0.00    -0.336 N 
ATOM      6  C3  BTN d   1      24.461  14.004  30.326  0.00  0.00     0.316 A 
ATOM      7  O3  BTN d   1      25.384  13.583  31.071  0.00  0.00    -0.247 OA
ATOM      8  N2  BTN d   1      23.827  15.189  30.485  0.00  0.00    -0.335 N 
ATOM      9  C4  BTN d   1      22.774  15.392  29.499  0.00  0.00     0.046 A 
ATOM     10  H9  BTN d   1      20.781  16.071  29.297  0.00  0.00     0.059 H 
ATOM     11  H10 BTN d   1      20.825  13.730  27.952  0.00  0.00     0.052 H 
ATOM     12  H11 BTN d   1      21.584  12.307  28.745  0.00  0.00     0.052 H 
ATOM     13  H12 BTN d   1      23.069  14.266  27.626  0.00  0.00     0.077 H 
ATOM     14  H13 BTN d   1      24.200  12.410  29.017  0.00  0.00     0.164 HD
ATOM     15  H14 BTN d   1      24.056  15.851  31.199  0.00  0.00     0.164 HD
ATOM     16  H15 BTN d   1      23.019  16.253  28.860  0.00  0.00     0.077 H 
ENDROOT
BRANCH   1  17
ATOM     17  C7  BTN d   1      21.261  16.572  31.282  0.00  0.00    -0.051 C 
ATOM     18  H7  BTN d   1      21.508  16.015  32.198  0.00  0.00     0.034 H 
ATOM     19  H8  BTN d   1      21.979  17.394  31.148  0.00  0.00     0.034 H 
BRANCH  17  20
ATOM     20  C8  BTN d   1      19.846  17.186  31.454  0.00  0.00    -0.063 C 
ATOM     21  H5  BTN d   1      19.643  17.845  30.597  0.00  0.00     0.033 H 
ATOM     22  H6  BTN d   1      19.109  16.369  31.471  0.00  0.00     0.033 H 
BRANCH  20  23
ATOM     23  C9  BTN d   1      19.700  18.001  32.740  0.00  0.00    -0.056 C 
ATOM     24  H3  BTN d   1      20.139  17.442  33.580  0.00  0.00     0.033 H 
ATOM     25  H4  BTN d   1      20.223  18.962  32.626  0.00  0.00     0.033 H 
BRANCH  23  26
ATOM     26  C10 BTN d   1      18.207  18.258  33.018  0.00  0.00     0.016 C 
ATOM     27  H1  BTN d   1      17.662  17.314  32.868  0.00  0.00     0.049 H 
ATOM     28  H2  BTN d   1      18.103  18.579  34.065  0.00  0.00     0.049 H 
BRANCH  26  29
ATOM     29  C11 BTN d   1      17.591  19.289  32.155  0.00  0.00     0.172 C 
ATOM     30  O11 BTN d   1      18.322  20.208  31.692  0.00  0.00    -0.648 OA
ATOM     31  O12 BTN d   1      16.349  19.248  31.906  0.00  0.00    -0.648 OA
ENDBRANCH  26  29
ENDBRANCH  23  26
ENDBRANCH  20  23
ENDBRANCH  17  20
ENDBRANCH   1  17
TORSDOF 5
