REMARK  8 active torsions:
REMARK  status: ('A' for Active; 'I' for Inactive)
REMARK    1  A    between atoms: C15_2  and  C13_4 
REMARK    2  A    between atoms: C13_4  and  C01_5 
REMARK    3  A    between atoms: C07_8  and  O2_9 
REMARK    4  A    between atoms: O2_9  and  C2_10 
REMARK    5  A    between atoms: C8_13  and  O1_14 
REMARK    6  A    between atoms: C6_15  and  C14_17 
REMARK    7  A    between atoms: C14_17  and  C16_18 
REMARK    8  A    between atoms: C14_17  and  C18_19 
ROOT
ATOM      1  C2  IH5 d   1       2.596  21.554  31.536  0.00  0.00     0.076 A 
ATOM      2  C12 IH5 d   1       3.316  22.000  30.314  0.00  0.00    -0.048 A 
ATOM      3  C10 IH5 d   1       3.007  23.220  29.695  0.00  0.00    -0.048 A 
ATOM      4  C8  IH5 d   1       1.986  24.059  30.211  0.00  0.00     0.072 A 
ATOM      5  C6  IH5 d   1       1.217  23.699  31.426  0.00  0.00    -0.019 A 
ATOM      6  C4  IH5 d   1       1.542  22.412  32.085  0.00  0.00    -0.041 A 
ATOM      7  H4  IH5 d   1       4.093  21.372  29.894  0.00  0.00     0.087 H 
ATOM      8  H5  IH5 d   1       3.555  23.526  28.811  0.00  0.00     0.087 H 
ATOM      9  H7  IH5 d   1       1.000  22.105  32.973  0.00  0.00     0.088 H 
ENDROOT
BRANCH   1  10
ATOM     10  O2  IH5 d   1       2.887  20.267  32.225  0.00  0.00    -0.307 OA
BRANCH  10  11
ATOM     11  C07 IH5 d   1       4.169  19.826  32.328  0.00  0.00     0.119 A 
ATOM     12  C09 IH5 d   1       4.638  18.923  31.254  0.00  0.00     0.070 A 
ATOM     13  C11 IH5 d   1       5.955  18.402  31.250  0.00  0.00    -0.052 A 
ATOM     14 CL6  IH5 d   1       3.595  18.466  29.959  0.00  0.00    -0.081 Cl
ATOM     15  C01 IH5 d   1       6.856  18.745  32.328  0.00  0.00    -0.045 A 
ATOM     16  H3  IH5 d   1       6.284  17.753  30.447  0.00  0.00     0.087 H 
ATOM     17  C03 IH5 d   1       6.395  19.637  33.393  0.00  0.00    -0.052 A 
ATOM     18  C05 IH5 d   1       5.054  20.165  33.368  0.00  0.00     0.070 A 
ATOM     19  H15 IH5 d   1       7.064  19.901  34.203  0.00  0.00     0.087 H 
ATOM     20 CL5  IH5 d   1       4.576  21.219  34.619  0.00  0.00    -0.081 Cl
BRANCH  15  21
ATOM     21  C13 IH5 d   1       8.252  18.097  32.198  0.00  0.00     0.040 C 
ATOM     22  H1  IH5 d   1       8.171  17.388  31.361  0.00  0.00     0.056 H 
ATOM     23  H2  IH5 d   1       8.932  18.916  31.921  0.00  0.00     0.056 H 
BRANCH  21  24
ATOM     24  C15 IH5 d   1       8.950  17.348  33.292  0.00  0.00     0.176 C 
ATOM     25  O3  IH5 d   1       8.258  16.321  33.839  0.00  0.00    -0.648 OA
ATOM     26  O4  IH5 d   1      10.093  17.690  33.630  0.00  0.00    -0.648 OA
ENDBRANCH  21  24
ENDBRANCH  15  21
ENDBRANCH  10  11
ENDBRANCH   1  10
BRANCH   5  27
ATOM     27  C14 IH5 d   1       0.100  24.681  31.931  0.00  0.00    -0.033 C 
ATOM     28  H8  IH5 d   1      -0.192  25.355  31.113  0.00  0.00     0.046 H 
BRANCH  27  29
ATOM     29  C16 IH5 d   1       0.708  25.497  33.090  0.00  0.00    -0.069 C 
ATOM     30  H9  IH5 d   1      -0.043  26.201  33.476  0.00  0.00     0.028 H 
ATOM     31  H10 IH5 d   1       1.582  26.057  32.725  0.00  0.00     0.028 H 
ATOM     32  H11 IH5 d   1       1.019  24.815  33.895  0.00  0.00     0.028 H 
ENDBRANCH  27  29
BRANCH  27  33
ATOM     33  C18 IH5 d   1      -1.179  23.903  32.434  0.00  0.00    -0.069 C 
ATOM     34  H12 IH5 d   1      -1.607  23.324  31.602  0.00  0.00     0.028 H 
ATOM     35  H13 IH5 d   1      -1.925  24.623  32.801  0.00  0.00     0.028 H 
ATOM     36  H14 IH5 d   1      -0.896  23.220  33.249  0.00  0.00     0.028 H 
ENDBRANCH  27  33
ENDBRANCH   5  27
BRANCH   4  37
ATOM     37  O1  IH5 d   1       1.737  25.219  29.560  0.00  0.00    -0.360 OA
ATOM     38  H6  IH5 d   1       1.477  25.030  28.666  0.00  0.00     0.217 HD
ENDBRANCH   4  37
TORSDOF 8
