REMARK  13 active torsions:
REMARK  status: ('A' for Active; 'I' for Inactive)
REMARK       I    between atoms: N1_1  and  C1_28 
REMARK    1  A    between atoms: CP_6  and  C53_3 
REMARK    2  A    between atoms: C51_5  and  O1_27 
REMARK    3  A    between atoms: CP_6  and  OP_7 
REMARK    4  A    between atoms: N_8  and  CP_6 
REMARK    5  A    between atoms: CA_9  and  N_8 
REMARK    6  A    between atoms: CA_9  and  CB_10 
REMARK    7  A    between atoms: C_31  and  CA_9 
REMARK    8  A    between atoms: CB_10  and  CG_11 
REMARK    9  A    between atoms: CG_11  and  CD_12 
REMARK   10  A    between atoms: CD_12  and  NE_13 
REMARK       I    between atoms: NE_13  and  CZ_14 
REMARK       I    between atoms: CZ_14  and  NH1_15 
REMARK       I    between atoms: CZ_14  and  NH2_16 
REMARK   11  A    between atoms: C_31  and  O_17 
REMARK   12  A    between atoms: C5_19  and  C_31 
REMARK   13  A    between atoms: C1_28  and  C2_29 
ROOT
ATOM      1  CA  ABB d   1      44.950  21.758  48.784  0.00  0.00     0.135 C 
ATOM      2  H11 ABB d   1      45.923  22.232  48.981  0.00  0.00     0.089 H 
ENDROOT
BRANCH   1   3
ATOM      3  N   ABB d   1      43.870  22.476  49.565  0.00  0.00    -0.040 N 
ATOM      4  H9  ABB d   1      43.023  22.336  49.037  0.00  0.00     0.280 HD
ATOM      5  H10 ABB d   1      43.805  21.984  50.442  0.00  0.00     0.280 HD
BRANCH   3   6
ATOM      6  CP  ABB d   1      43.873  23.947  49.932  0.00  0.00     0.206 C 
ATOM      7  H7  ABB d   1      43.748  24.502  48.991  0.00  0.00     0.131 H 
BRANCH   6   8
ATOM      8  C53 ABB d   1      42.605  24.247  50.751  0.00  0.00     0.053 A 
ATOM      9  N1  ABB d   1      42.926  24.983  51.951  0.00  0.00    -0.242 NA
ATOM     10  C54 ABB d   1      42.113  26.170  51.901  0.00  0.00     0.011 A 
ATOM     11  C1  ABB d   1      42.860  24.117  53.076  0.00  0.00     0.196 C 
ATOM     12  C51 ABB d   1      41.270  26.194  50.634  0.00  0.00     0.049 A 
ATOM     13  H1  ABB d   1      42.766  27.055  51.917  0.00  0.00     0.060 H 
ATOM     14  H2  ABB d   1      41.448  26.189  52.777  0.00  0.00     0.060 H 
ATOM     15  C52 ABB d   1      41.609  24.995  49.897  0.00  0.00    -0.021 A 
ATOM     16  H6  ABB d   1      41.486  27.093  50.038  0.00  0.00     0.084 H 
ATOM     17  H4  ABB d   1      40.711  24.382  49.732  0.00  0.00     0.039 H 
ATOM     18  H5  ABB d   1      42.058  25.257  48.928  0.00  0.00     0.039 H 
ATOM     19  O2  ABB d   1      43.183  22.906  53.006  0.00  0.00    -0.280 OA
ATOM     20  H3  ABB d   1      42.152  23.290  51.050  0.00  0.00     0.071 H 
BRANCH  12  21
ATOM     21  O1  ABB d   1      39.893  26.159  50.989  0.00  0.00    -0.394 OA
ATOM     22  H28 ABB d   1      39.365  26.111  50.201  0.00  0.00     0.210 HD
ENDBRANCH  12  21
BRANCH  11  23
ATOM     23  C2  ABB d   1      42.445  24.625  54.473  0.00  0.00    -0.007 C 
ATOM     24  H29 ABB d   1      42.463  23.789  55.188  0.00  0.00     0.039 H 
ATOM     25  H30 ABB d   1      41.429  25.043  54.424  0.00  0.00     0.039 H 
ATOM     26  H31 ABB d   1      43.147  25.405  54.803  0.00  0.00     0.039 H 
ENDBRANCH  11  23
ENDBRANCH   6   8
BRANCH   6  27
ATOM     27  OP  ABB d   1      44.935  24.318  50.361  0.00  0.00    -0.368 OA
ATOM     28  H8  ABB d   1      44.884  25.242  50.575  0.00  0.00     0.212 HD
ENDBRANCH   6  27
ENDBRANCH   3   6
ENDBRANCH   1   3
BRANCH   1  29
ATOM     29  CB  ABB d   1      44.951  20.281  49.323  0.00  0.00    -0.034 C 
ATOM     30  H12 ABB d   1      45.744  19.703  48.826  0.00  0.00     0.036 H 
ATOM     31  H13 ABB d   1      43.976  19.811  49.125  0.00  0.00     0.036 H 
BRANCH  29  32
ATOM     32  CG  ABB d   1      45.209  20.325  50.832  0.00  0.00    -0.048 C 
ATOM     33  H14 ABB d   1      44.422  20.933  51.302  0.00  0.00     0.035 H 
ATOM     34  H15 ABB d   1      46.188  20.796  51.004  0.00  0.00     0.035 H 
BRANCH  32  35
ATOM     35  CD  ABB d   1      45.213  18.973  51.478  0.00  0.00     0.009 C 
ATOM     36  H16 ABB d   1      46.003  18.349  51.035  0.00  0.00     0.064 H 
ATOM     37  H17 ABB d   1      44.237  18.486  51.335  0.00  0.00     0.064 H 
BRANCH  35  38
ATOM     38  NE  ABB d   1      45.473  19.164  52.921  0.00  0.00    -0.227 N 
ATOM     39  CZ  ABB d   1      45.630  17.997  53.833  0.00  0.00     0.665 C 
ATOM     40  NH1 ABB d   1      46.285  18.290  55.137  0.00  0.00    -0.235 N 
ATOM     41  NH2 ABB d   1      45.472  16.820  53.035  0.00  0.00    -0.235 N 
ATOM     42  H19 ABB d   1      46.429  17.535  55.822  0.00  0.00     0.174 HD
ATOM     43  H20 ABB d   1      46.594  19.248  55.354  0.00  0.00     0.174 HD
ATOM     44  H21 ABB d   1      44.962  16.868  52.141  0.00  0.00     0.174 HD
ATOM     45  H22 ABB d   1      45.868  15.924  53.354  0.00  0.00     0.174 HD
ATOM     46  H18 ABB d   1      45.547  20.118  53.301  0.00  0.00     0.177 HD
ENDBRANCH  35  38
ENDBRANCH  32  35
ENDBRANCH  29  32
ENDBRANCH   1  29
BRANCH   1  47
ATOM     47  C   ABB d   1      44.694  21.773  47.267  0.00  0.00     0.111 C 
ATOM     48  H32 ABB d   1      43.731  21.296  47.031  0.00  0.00     0.097 H 
BRANCH  47  49
ATOM     49  O   ABB d   1      45.798  21.024  46.611  0.00  0.00    -0.387 OA
ATOM     50  H23 ABB d   1      45.661  21.020  45.671  0.00  0.00     0.210 HD
ENDBRANCH  47  49
BRANCH  47  51
ATOM     51  C5  ABB d   1      44.665  23.260  46.832  0.00  0.00     0.107 A 
ATOM     52  N5  ABB d   1      43.547  24.054  46.826  0.00  0.00    -0.242 NA
ATOM     53  C61 ABB d   1      43.795  25.343  46.397  0.00  0.00     0.075 A 
ATOM     54  C62 ABB d   1      45.158  25.594  46.040  0.00  0.00     0.035 A 
ATOM     55  C66 ABB d   1      42.818  26.389  46.292  0.00  0.00    -0.054 A 
ATOM     56  S5  ABB d   1      46.050  24.125  46.289  0.00  0.00    -0.070 SA
ATOM     57  C63 ABB d   1      45.559  26.877  45.582  0.00  0.00    -0.064 A 
ATOM     58  C64 ABB d   1      44.598  27.933  45.473  0.00  0.00    -0.082 A 
ATOM     59  H24 ABB d   1      46.594  27.057  45.315  0.00  0.00     0.085 H 
ATOM     60  C65 ABB d   1      43.222  27.705  45.825  0.00  0.00    -0.081 A 
ATOM     61  H25 ABB d   1      44.909  28.910  45.123  0.00  0.00     0.083 H 
ATOM     62  H26 ABB d   1      42.495  28.505  45.743  0.00  0.00     0.083 H 
ATOM     63  H27 ABB d   1      41.785  26.199  46.559  0.00  0.00     0.087 H 
ENDBRANCH  47  51
ENDBRANCH   1  47
TORSDOF 13
