REMARK  10 active torsions:
REMARK  status: ('A' for Active; 'I' for Inactive)
REMARK    1  A    between atoms: C7_7  and  N12_12 
REMARK    2  A    between atoms: S13_13  and  C8_8 
REMARK    3  A    between atoms: N12_12  and  C15_15 
REMARK    4  A    between atoms: C16_16  and  S13_13 
REMARK    5  A    between atoms: C15_15  and  C17_17 
REMARK    6  A    between atoms: C16_16  and  C18_18 
REMARK    7  A    between atoms: C17_17  and  C19_19 
REMARK    8  A    between atoms: C18_18  and  C20_20 
REMARK    9  A    between atoms: C20_20  and  C23_23 
REMARK   10  A    between atoms: C28_28  and  O31_31 
ROOT
ATOM      1  C1  MON d   1     110.737   5.532-105.359  0.00  0.00     0.743 A 
ATOM      2  N2  MON d   1     110.921   4.557-104.453  0.00  0.00    -0.210 N 
ATOM      3  N3  MON d   1     109.606   6.262-105.499  0.00  0.00     0.130 NA
ATOM      4  N4  MON d   1     111.641   5.956-106.299  0.00  0.00    -0.035 NA
ATOM      5  C5  MON d   1     112.151   3.792-104.313  0.00  0.00     0.034 C 
ATOM      6  C6  MON d   1     109.918   4.144-103.470  0.00  0.00     0.034 C 
ATOM      7  C7  MON d   1     109.371   7.253-106.386  0.00  0.00     0.740 A 
ATOM      8  C8  MON d   1     111.433   6.941-107.202  0.00  0.00     0.225 A 
ATOM      9  C9  MON d   1     112.177   2.368-103.656  0.00  0.00     0.097 C 
ATOM     10  C10 MON d   1     109.856   2.697-102.932  0.00  0.00     0.097 C 
ATOM     11  N11 MON d   1     110.303   7.517-107.171  0.00  0.00    -0.035 NA
ATOM     12  N14 MON d   1     111.193   2.255-102.570  0.00  0.00    -0.072 N 
ATOM     13  H1  MON d   1     112.836   4.417-103.720  0.00  0.00     0.067 H 
ATOM     14  H2  MON d   1     112.554   3.669-105.329  0.00  0.00     0.067 H 
ATOM     15  H3  MON d   1     108.937   4.347-103.925  0.00  0.00     0.067 H 
ATOM     16  H4  MON d   1     110.058   4.794-102.594  0.00  0.00     0.067 H 
ATOM     17  H5  MON d   1     113.181   2.181-103.248  0.00  0.00     0.078 H 
ATOM     18  H6  MON d   1     111.948   1.616-104.425  0.00  0.00     0.078 H 
ATOM     19  H7  MON d   1     109.449   2.034-103.710  0.00  0.00     0.078 H 
ATOM     20  H8  MON d   1     109.206   2.663-102.045  0.00  0.00     0.078 H 
ATOM     21  H10 MON d   1     111.512   2.814-101.794  0.00  0.00     0.277 HD
ATOM     22  H11 MON d   1     111.141   1.288-102.289  0.00  0.00     0.277 HD
ENDROOT
BRANCH   8  23
ATOM     23  S13 MON d   1     112.239   7.705-108.444  0.00  0.00    -0.089 SA
BRANCH  23  24
ATOM     24  C16 MON d   1     113.652   7.907-109.480  0.00  0.00    -0.016 C 
ATOM     25  H14 MON d   1     114.057   7.000-109.952  0.00  0.00     0.049 H 
ATOM     26  H15 MON d   1     114.479   8.514-109.082  0.00  0.00     0.049 H 
BRANCH  24  27
ATOM     27  C18 MON d   1     112.546   8.653-110.242  0.00  0.00    -0.053 C 
ATOM     28  H18 MON d   1     112.200   9.402-109.515  0.00  0.00     0.034 H 
ATOM     29  H19 MON d   1     111.770   7.885-110.376  0.00  0.00     0.034 H 
BRANCH  27  30
ATOM     30  C20 MON d   1     112.519   9.402-111.548  0.00  0.00    -0.040 C 
ATOM     31  H20 MON d   1     112.764   8.759-112.406  0.00  0.00     0.040 H 
ATOM     32  H21 MON d   1     113.184  10.278-111.544  0.00  0.00     0.040 H 
BRANCH  30  33
ATOM     33  C23 MON d   1     110.991   9.803-111.510  0.00  0.00    -0.058 A 
ATOM     34  C26 MON d   1     110.536  11.132-111.719  0.00  0.00    -0.075 A 
ATOM     35  C29 MON d   1     109.140  11.442-111.657  0.00  0.00    -0.061 A 
ATOM     36  H26 MON d   1     111.252  11.919-111.927  0.00  0.00     0.084 H 
ATOM     37  C32 MON d   1     108.190  10.432-111.382  0.00  0.00     0.034 A 
ATOM     38  H28 MON d   1     108.808  12.461-111.822  0.00  0.00     0.086 H 
ATOM     39  C30 MON d   1     108.620   9.116-111.170  0.00  0.00    -0.061 A 
ATOM     40 CL33 MON d   1     106.519  10.807-111.306  0.00  0.00    -0.084 Cl
ATOM     41  C27 MON d   1     109.996   8.796-111.230  0.00  0.00    -0.075 A 
ATOM     42  H29 MON d   1     107.894   8.339-110.959  0.00  0.00     0.086 H 
ATOM     43  H27 MON d   1     110.310   7.772-111.062  0.00  0.00     0.084 H 
ENDBRANCH  30  33
ENDBRANCH  27  30
ENDBRANCH  24  27
ENDBRANCH  23  24
ENDBRANCH   8  23
BRANCH   7  44
ATOM     44  N12 MON d   1     108.334   8.050-106.627  0.00  0.00    -0.222 N 
ATOM     45  H9  MON d   1     108.475   8.719-107.398  0.00  0.00     0.177 HD
BRANCH  44  46
ATOM     46  C15 MON d   1     107.084   8.129-106.006  0.00  0.00     0.013 C 
ATOM     47  H12 MON d   1     107.191   8.335-104.931  0.00  0.00     0.065 H 
ATOM     48  H13 MON d   1     106.516   7.198-106.146  0.00  0.00     0.065 H 
BRANCH  46  49
ATOM     49  C17 MON d   1     106.395   9.314-106.732  0.00  0.00    -0.026 C 
ATOM     50  H16 MON d   1     106.272   9.081-107.800  0.00  0.00     0.042 H 
ATOM     51  H17 MON d   1     107.000  10.226-106.623  0.00  0.00     0.042 H 
BRANCH  49  52
ATOM     52  C19 MON d   1     105.090   9.503-106.108  0.00  0.00    -0.057 A 
ATOM     53  C21 MON d   1     103.924   9.440-106.873  0.00  0.00    -0.074 A 
ATOM     54  C24 MON d   1     102.681   9.603-106.235  0.00  0.00    -0.051 A 
ATOM     55  H22 MON d   1     103.976   9.268-107.942  0.00  0.00     0.084 H 
ATOM     56  C28 MON d   1     102.624   9.821-104.837  0.00  0.00     0.065 A 
ATOM     57  H24 MON d   1     101.766   9.562-106.814  0.00  0.00     0.087 H 
ATOM     58  C25 MON d   1     103.805   9.891-104.092  0.00  0.00    -0.051 A 
ATOM     59  C22 MON d   1     105.033   9.731-104.716  0.00  0.00    -0.074 A 
ATOM     60  H25 MON d   1     103.761  10.071-103.024  0.00  0.00     0.087 H 
ATOM     61  H23 MON d   1     105.947   9.781-104.136  0.00  0.00     0.084 H 
BRANCH  56  62
ATOM     62  O31 MON d   1     101.432   9.961-104.206  0.00  0.00    -0.361 OA
ATOM     63  H30 MON d   1     101.339   9.279-103.552  0.00  0.00     0.217 HD
ENDBRANCH  56  62
ENDBRANCH  49  52
ENDBRANCH  46  49
ENDBRANCH  44  46
ENDBRANCH   7  44
TORSDOF 10
