REMARK  5 active torsions:
REMARK  status: ('A' for Active; 'I' for Inactive)
REMARK    1  A    between atoms: C11_1  and  C10_4 
REMARK    2  A    between atoms: C10_4  and  C9_5 
REMARK    3  A    between atoms: C9_5  and  C8_6 
REMARK    4  A    between atoms: C8_6  and  C7_7 
REMARK    5  A    between atoms: C7_7  and  C2_8 
ROOT
ATOM      1  C2  BTN d   1       9.326 -13.391  23.102  0.00  0.00     0.012 C 
ATOM      2  S1  BTN d   1      10.571 -14.327  22.136  0.00  0.00    -0.160 SA
ATOM      3  C6  BTN d   1      10.908 -12.828  21.161  0.00  0.00    -0.002 C 
ATOM      4  C5  BTN d   1      10.924 -11.675  22.142  0.00  0.00     0.042 A 
ATOM      5  N1  BTN d   1      12.206 -11.460  22.797  0.00  0.00    -0.336 N 
ATOM      6  C3  BTN d   1      12.127 -11.634  24.122  0.00  0.00     0.316 A 
ATOM      7  O3  BTN d   1      13.046 -11.491  24.960  0.00  0.00    -0.247 OA
ATOM      8  N2  BTN d   1      10.862 -11.976  24.461  0.00  0.00    -0.335 N 
ATOM      9  C4  BTN d   1       9.977 -12.034  23.311  0.00  0.00     0.046 A 
ATOM     10  H9  BTN d   1       8.460 -13.227  22.444  0.00  0.00     0.059 H 
ATOM     11  H10 BTN d   1      10.119 -12.677  20.410  0.00  0.00     0.052 H 
ATOM     12  H11 BTN d   1      11.882 -12.913  20.657  0.00  0.00     0.052 H 
ATOM     13  H12 BTN d   1      10.602 -10.757  21.629  0.00  0.00     0.077 H 
ATOM     14  H13 BTN d   1      13.046 -11.212  22.314  0.00  0.00     0.164 HD
ATOM     15  H14 BTN d   1      10.570 -12.167  25.398  0.00  0.00     0.164 HD
ATOM     16  H15 BTN d   1       9.182 -11.281  23.409  0.00  0.00     0.077 H 
ENDROOT
BRANCH   1  17
ATOM     17  C7  BTN d   1       8.753 -14.110  24.305  0.00  0.00    -0.051 C 
ATOM     18  H7  BTN d   1       9.584 -14.625  24.809  0.00  0.00     0.034 H 
ATOM     19  H8  BTN d   1       8.333 -13.347  24.977  0.00  0.00     0.034 H 
BRANCH  17  20
ATOM     20  C8  BTN d   1       7.650 -15.156  24.045  0.00  0.00    -0.063 C 
ATOM     21  H5  BTN d   1       7.003 -14.778  23.239  0.00  0.00     0.033 H 
ATOM     22  H6  BTN d   1       8.133 -16.089  23.720  0.00  0.00     0.033 H 
BRANCH  20  23
ATOM     23  C9  BTN d   1       6.771 -15.472  25.250  0.00  0.00    -0.056 C 
ATOM     24  H3  BTN d   1       7.411 -15.691  26.117  0.00  0.00     0.033 H 
ATOM     25  H4  BTN d   1       6.136 -14.602  25.473  0.00  0.00     0.033 H 
BRANCH  23  26
ATOM     26  C10 BTN d   1       5.876 -16.690  24.962  0.00  0.00     0.016 C 
ATOM     27  H1  BTN d   1       6.509 -17.527  24.632  0.00  0.00     0.049 H 
ATOM     28  H2  BTN d   1       5.350 -16.971  25.886  0.00  0.00     0.049 H 
BRANCH  26  29
ATOM     29  C11 BTN d   1       4.874 -16.402  23.908  0.00  0.00     0.172 C 
ATOM     30  O11 BTN d   1       4.521 -15.198  23.809  0.00  0.00    -0.648 OA
ATOM     31  O12 BTN d   1       4.380 -17.308  23.185  0.00  0.00    -0.648 OA
ENDBRANCH  26  29
ENDBRANCH  23  26
ENDBRANCH  20  23
ENDBRANCH  17  20
ENDBRANCH   1  17
TORSDOF 5
