REMARK  14 active torsions:
REMARK  status: ('A' for Active; 'I' for Inactive)
REMARK    1  A    between atoms: C12_3  and  C16_7 
REMARK    2  A    between atoms: C13_4  and  C17_8 
REMARK    3  A    between atoms: C17_8  and  C18_9 
REMARK    4  A    between atoms: C22_12  and  C26_16 
REMARK    5  A    between atoms: C23_13  and  C27_17 
REMARK    6  A    between atoms: C27_17  and  C28_18 
REMARK    7  A    between atoms: C32_21  and  C36_25 
REMARK    8  A    between atoms: C33_22  and  C37_26 
REMARK    9  A    between atoms: C37_26  and  C38_27 
REMARK   10  A    between atoms: C38_27  and  C39_28 
REMARK   11  A    between atoms: C42_33  and  C47_38 
REMARK   12  A    between atoms: C43_34  and  C46_37 
REMARK   13  A    between atoms: C47_38  and  C48_39 
REMARK   14  A    between atoms: C48_39  and  C49_40 
ROOT
ATOM      1  N1  NON d   1     114.057  87.162  59.244  0.00  0.00    -0.361 N 
ATOM      2  C11 NON d   1     114.575  85.873  59.177  0.00  0.00     0.021 A 
ATOM      3  C12 NON d   1     114.939  85.556  57.792  0.00  0.00    -0.031 A 
ATOM      4  C13 NON d   1     114.619  86.698  57.017  0.00  0.00    -0.028 A 
ATOM      5  C14 NON d   1     114.076  87.680  57.960  0.00  0.00     0.022 A 
ATOM      6  C15 NON d   1     113.614  88.996  57.635  0.00  0.00     0.012 C 
ATOM      7  N2  NON d   1     111.646  89.115  59.145  0.00  0.00    -0.361 N 
ATOM      8  C21 NON d   1     112.342  89.538  58.014  0.00  0.00     0.021 A 
ATOM      9  C22 NON d   1     111.425  90.301  57.147  0.00  0.00    -0.031 A 
ATOM     10  C23 NON d   1     110.183  90.324  57.774  0.00  0.00    -0.028 A 
ATOM     11  C24 NON d   1     110.334  89.578  59.021  0.00  0.00     0.022 A 
ATOM     12  C25 NON d   1     109.310  89.332  60.000  0.00  0.00     0.012 C 
ATOM     13  N3  NON d   1     110.767  88.031  61.471  0.00  0.00    -0.361 N 
ATOM     14  C31 NON d   1     109.532  88.582  61.189  0.00  0.00     0.021 A 
ATOM     15  C32 NON d   1     108.754  88.671  62.436  0.00  0.00    -0.031 A 
ATOM     16  C33 NON d   1     109.560  88.163  63.463  0.00  0.00    -0.027 A 
ATOM     17  C34 NON d   1     110.824  87.766  62.818  0.00  0.00     0.022 A 
ATOM     18  C35 NON d   1     112.033  87.433  63.459  0.00  0.00     0.012 C 
ATOM     19  N4  NON d   1     113.715  86.570  61.902  0.00  0.00    -0.361 N 
ATOM     20  C41 NON d   1     112.828  86.394  62.947  0.00  0.00     0.022 A 
ATOM     21  C42 NON d   1     112.840  85.002  63.405  0.00  0.00    -0.027 A 
ATOM     22  C43 NON d   1     113.773  84.346  62.587  0.00  0.00    -0.031 A 
ATOM     23  C44 NON d   1     114.307  85.344  61.641  0.00  0.00     0.021 A 
ATOM     24  C45 NON d   1     114.713  85.005  60.317  0.00  0.00     0.012 C 
ATOM     25  H1  NON d   1     113.722  87.642  60.091  0.00  0.00     0.165 HD
ATOM     26  H2  NON d   1     113.642  89.054  56.537  0.00  0.00     0.051 H 
ATOM     27  H3  NON d   1     114.363  89.682  58.057  0.00  0.00     0.051 H 
ATOM     28  H12 NON d   1     112.028  88.564  59.927  0.00  0.00     0.165 HD
ATOM     29  H13 NON d   1     108.498  88.817  59.465  0.00  0.00     0.051 H 
ATOM     30  H14 NON d   1     108.962  90.323  60.328  0.00  0.00     0.051 H 
ATOM     31  H23 NON d   1     111.517  87.850  60.788  0.00  0.00     0.165 HD
ATOM     32  H24 NON d   1     111.781  87.161  64.495  0.00  0.00     0.051 H 
ATOM     33  H25 NON d   1     112.655  88.340  63.459  0.00  0.00     0.051 H 
ATOM     34  H33 NON d   1     113.903  87.453  61.406  0.00  0.00     0.165 HD
ATOM     35  H34 NON d   1     115.787  84.775  60.386  0.00  0.00     0.051 H 
ATOM     36  H35 NON d   1     114.158  84.090  60.062  0.00  0.00     0.051 H 
ENDROOT
BRANCH  16  37
ATOM     37  C37 NON d   1     109.180  88.037  65.008  0.00  0.00    -0.030 C 
ATOM     38  H29 NON d   1     109.791  87.234  65.447  0.00  0.00     0.041 H 
ATOM     39  H30 NON d   1     108.116  87.768  65.078  0.00  0.00     0.041 H 
BRANCH  37  40
ATOM     40  C38 NON d   1     109.412  89.349  65.854  0.00  0.00     0.019 C 
ATOM     41  H31 NON d   1     108.614  90.067  65.615  0.00  0.00     0.049 H 
ATOM     42  H32 NON d   1     110.386  89.778  65.577  0.00  0.00     0.049 H 
BRANCH  40  43
ATOM     43  C39 NON d   1     109.402  89.087  67.384  0.00  0.00     0.172 C 
ATOM     44  O31 NON d   1     108.593  88.109  67.923  0.00  0.00    -0.648 OA
ATOM     45  O32 NON d   1     110.201  89.837  68.218  0.00  0.00    -0.648 OA
ENDBRANCH  40  43
ENDBRANCH  37  40
ENDBRANCH  16  37
BRANCH  15  46
ATOM     46  C36 NON d   1     107.305  89.226  62.591  0.00  0.00    -0.049 C 
ATOM     47  H26 NON d   1     106.930  89.552  61.610  0.00  0.00     0.033 H 
ATOM     48  H27 NON d   1     107.312  90.081  63.283  0.00  0.00     0.033 H 
ATOM     49  H28 NON d   1     106.651  88.437  62.989  0.00  0.00     0.033 H 
ENDBRANCH  15  46
BRANCH  21  50
ATOM     50  C47 NON d   1     111.967  84.358  64.586  0.00  0.00    -0.030 C 
ATOM     51  H39 NON d   1     112.050  83.264  64.503  0.00  0.00     0.041 H 
ATOM     52  H40 NON d   1     110.921  84.659  64.429  0.00  0.00     0.041 H 
BRANCH  50  53
ATOM     53  C48 NON d   1     112.364  84.758  66.071  0.00  0.00     0.019 C 
ATOM     54  H41 NON d   1     112.284  85.851  66.169  0.00  0.00     0.049 H 
ATOM     55  H42 NON d   1     113.405  84.450  66.246  0.00  0.00     0.049 H 
BRANCH  53  56
ATOM     56  C49 NON d   1     111.463  84.097  67.168  0.00  0.00     0.172 C 
ATOM     57  O41 NON d   1     110.640  83.032  66.855  0.00  0.00    -0.648 OA
ATOM     58  O42 NON d   1     111.477  84.575  68.465  0.00  0.00    -0.648 OA
ENDBRANCH  53  56
ENDBRANCH  50  53
ENDBRANCH  21  50
BRANCH  10  59
ATOM     59  C27 NON d   1     108.882  91.009  57.239  0.00  0.00    -0.042 C 
ATOM     60  H18 NON d   1     108.009  90.397  57.510  0.00  0.00     0.039 H 
ATOM     61  H19 NON d   1     108.941  91.100  56.144  0.00  0.00     0.039 H 
BRANCH  59  62
ATOM     62  C28 NON d   1     108.737  92.401  57.857  0.00  0.00    -0.073 C 
ATOM     63  H20 NON d   1     107.821  92.877  57.477  0.00  0.00     0.028 H 
ATOM     64  H21 NON d   1     109.609  93.015  57.586  0.00  0.00     0.028 H 
ATOM     65  H22 NON d   1     108.677  92.312  58.952  0.00  0.00     0.028 H 
ENDBRANCH  59  62
ENDBRANCH  10  59
BRANCH  22  66
ATOM     66  C46 NON d   1     114.161  82.835  62.657  0.00  0.00    -0.049 C 
ATOM     67  H36 NON d   1     113.596  82.348  63.465  0.00  0.00     0.033 H 
ATOM     68  H37 NON d   1     115.239  82.742  62.856  0.00  0.00     0.033 H 
ATOM     69  H38 NON d   1     113.922  82.350  61.699  0.00  0.00     0.033 H 
ENDBRANCH  22  66
BRANCH   9  70
ATOM     70  C26 NON d   1     111.764  90.946  55.805  0.00  0.00    -0.049 C 
ATOM     71  H15 NON d   1     112.822  90.762  55.567  0.00  0.00     0.033 H 
ATOM     72  H16 NON d   1     111.585  92.030  55.863  0.00  0.00     0.033 H 
ATOM     73  H17 NON d   1     111.130  90.511  55.019  0.00  0.00     0.033 H 
ENDBRANCH   9  70
BRANCH   3  74
ATOM     74  C16 NON d   1     115.542  84.210  57.311  0.00  0.00    -0.049 C 
ATOM     75  H4  NON d   1     115.666  83.535  58.171  0.00  0.00     0.033 H 
ATOM     76  H5  NON d   1     116.521  84.393  56.844  0.00  0.00     0.033 H 
ATOM     77  H6  NON d   1     114.867  83.747  56.577  0.00  0.00     0.033 H 
ENDBRANCH   3  74
BRANCH   4  78
ATOM     78  C17 NON d   1     114.783  86.926  55.455  0.00  0.00    -0.042 C 
ATOM     79  H7  NON d   1     114.836  88.008  55.266  0.00  0.00     0.039 H 
ATOM     80  H8  NON d   1     113.901  86.508  54.948  0.00  0.00     0.039 H 
BRANCH  78  81
ATOM     81  C18 NON d   1     116.047  86.264  54.860  0.00  0.00    -0.073 C 
ATOM     82  H9  NON d   1     116.092  86.465  53.779  0.00  0.00     0.028 H 
ATOM     83  H10 NON d   1     116.007  85.178  55.030  0.00  0.00     0.028 H 
ATOM     84  H11 NON d   1     116.942  86.678  55.347  0.00  0.00     0.028 H 
ENDBRANCH  78  81
ENDBRANCH   4  78
TORSDOF 14
