REMARK  3 active torsions:
REMARK  status: ('A' for Active; 'I' for Inactive)
REMARK    1  A    between atoms: C6_3  and  O17_17 
REMARK    2  A    between atoms: O7_13  and  C5_4 
REMARK    3  A    between atoms: C8_10  and  O7_13 
ROOT
ATOM      1  C1  TCL d   1      49.236  95.735  33.834  0.00  0.00    -0.027 A 
ATOM      2  C2  TCL d   1      49.903  96.737  34.634  0.00  0.00     0.036 A 
ATOM      3  C6  TCL d   1      49.587  94.332  34.047  0.00  0.00     0.101 A 
ATOM      4  C5  TCL d   1      50.608  93.941  35.067  0.00  0.00     0.109 A 
ATOM      5  C4  TCL d   1      51.254  94.966  35.844  0.00  0.00    -0.046 A 
ATOM      6  C3  TCL d   1      50.903  96.366  35.629  0.00  0.00    -0.059 A 
ATOM      7 CL14 TCL d   1      49.551  98.334  34.454  0.00  0.00    -0.084 Cl
ATOM      8  H   TCL d   1      48.490  96.018  33.091  0.00  0.00     0.090 H 
ATOM      9  H   TCL d   1      52.002  94.698  36.590  0.00  0.00     0.087 H 
ATOM     10  H   TCL d   1      51.393  97.142  36.218  0.00  0.00     0.086 H 
ENDROOT
BRANCH   4  11
ATOM     11  O7  TCL d   1      50.993  92.605  35.320  0.00  0.00    -0.306 OA
BRANCH  11  12
ATOM     12  C8  TCL d   1      52.058  91.947  34.613  0.00  0.00     0.098 A 
ATOM     13  C9  TCL d   1      52.351  90.489  35.052  0.00  0.00     0.069 A 
ATOM     14  C10 TCL d   1      53.415  89.756  34.405  0.00  0.00    -0.038 A 
ATOM     15 CL16 TCL d   1      51.476  89.745  36.262  0.00  0.00    -0.081 Cl
ATOM     16  C11 TCL d   1      54.192  90.465  33.318  0.00  0.00     0.035 A 
ATOM     17  H   TCL d   1      53.649  88.730  34.690  0.00  0.00     0.088 H 
ATOM     18  C12 TCL d   1      53.875  91.787  32.962  0.00  0.00    -0.059 A 
ATOM     19 CL15 TCL d   1      55.423  89.583  32.600  0.00  0.00    -0.084 Cl
ATOM     20  C13 TCL d   1      52.892  92.532  33.528  0.00  0.00    -0.047 A 
ATOM     21  H   TCL d   1      54.464  92.250  32.170  0.00  0.00     0.086 H 
ATOM     22  H   TCL d   1      52.714  93.553  33.190  0.00  0.00     0.087 H 
ENDBRANCH  11  12
ENDBRANCH   4  11
BRANCH   3  23
ATOM     23  O17 TCL d   1      48.943  93.386  33.274  0.00  0.00    -0.358 OA
ATOM     24  H   TCL d   1      49.591  92.898  32.761  0.00  0.00     0.217 HD
ENDBRANCH   3  23
TORSDOF 3
