REMARK  8 active torsions:
REMARK  status: ('A' for Active; 'I' for Inactive)
REMARK    1  A    between atoms: N1_1  and  C2_2 
REMARK       I    between atoms: N1_1  and  C6_6 
REMARK    2  A    between atoms: N1_1  and  C23_23 
REMARK    3  A    between atoms: C2_2  and  C3_3 
REMARK    4  A    between atoms: C2_2  and  C16_16 
REMARK    5  A    between atoms: C6_6  and  C8_8 
REMARK    6  A    between atoms: C16_16  and  C17_17 
REMARK    7  A    between atoms: C23_23  and  C24_24 
REMARK    8  A    between atoms: C27_27  and  C29_29 
ROOT
ATOM      1  N1  154 d   1       6.568  34.684  75.274  0.00  0.00    -0.328 N 
ATOM      2  C6  154 d   1       6.573  36.095  75.492  0.00  0.00     0.256 C 
ATOM      3  O7  154 d   1       6.138  36.596  76.512  0.00  0.00    -0.267 OA
ENDROOT
BRANCH   1   4
ATOM      4  C2  154 d   1       6.568  34.108  73.869  0.00  0.00     0.103 C 
ATOM      5  H1  154 d   1       7.186  34.770  73.245  0.00  0.00     0.090 H 
BRANCH   4   6
ATOM      6  C3  154 d   1       5.137  34.158  73.328  0.00  0.00     0.197 C 
ATOM      7  O4  154 d   1       4.910  33.784  72.154  0.00  0.00    -0.646 OA
ATOM      8  O5  154 d   1       4.265  34.592  74.110  0.00  0.00    -0.646 OA
ENDBRANCH   4   6
BRANCH   4   9
ATOM      9  C16 154 d   1       7.198  32.659  73.753  0.00  0.00    -0.013 C 
ATOM     10  H5  154 d   1       6.854  32.232  72.799  0.00  0.00     0.043 H 
ATOM     11  H6  154 d   1       6.796  32.064  74.587  0.00  0.00     0.043 H 
BRANCH   9  12
ATOM     12  C17 154 d   1       8.738  32.511  73.789  0.00  0.00    -0.056 A 
ATOM     13  C18 154 d   1       9.327  31.243  74.118  0.00  0.00    -0.077 A 
ATOM     14  C19 154 d   1      10.748  31.069  74.165  0.00  0.00    -0.082 A 
ATOM     15  H7  154 d   1       8.682  30.399  74.335  0.00  0.00     0.084 H 
ATOM     16  C20 154 d   1      11.616  32.158  73.876  0.00  0.00    -0.083 A 
ATOM     17  H8  154 d   1      11.164  30.102  74.422  0.00  0.00     0.083 H 
ATOM     18  C21 154 d   1      11.061  33.423  73.547  0.00  0.00    -0.082 A 
ATOM     19  H9  154 d   1      12.691  32.024  73.907  0.00  0.00     0.083 H 
ATOM     20  C22 154 d   1       9.638  33.599  73.499  0.00  0.00    -0.077 A 
ATOM     21  H10 154 d   1      11.716  34.260  73.331  0.00  0.00     0.083 H 
ATOM     22  H11 154 d   1       9.231  34.570  73.239  0.00  0.00     0.084 H 
ENDBRANCH   9  12
ENDBRANCH   4   9
ENDBRANCH   1   4
BRANCH   1  23
ATOM     23  C23 154 d   1       6.479  33.673  76.417  0.00  0.00     0.029 C 
ATOM     24  H12 154 d   1       6.554  32.669  75.974  0.00  0.00     0.072 H 
ATOM     25  H13 154 d   1       5.491  33.794  76.885  0.00  0.00     0.072 H 
BRANCH  23  26
ATOM     26  C24 154 d   1       7.540  33.761  77.546  0.00  0.00     0.001 A 
ATOM     27  C25 154 d   1       8.152  34.894  78.043  0.00  0.00    -0.067 A 
ATOM     28  C26 154 d   1       9.083  34.655  79.067  0.00  0.00    -0.063 A 
ATOM     29  H14 154 d   1       7.931  35.893  77.671  0.00  0.00     0.085 H 
ATOM     30  C27 154 d   1       9.198  33.338  79.380  0.00  0.00     0.039 A 
ATOM     31  H15 154 d   1       9.653  35.442  79.558  0.00  0.00     0.085 H 
ATOM     32  S28 154 d   1       8.145  32.368  78.395  0.00  0.00    -0.090 SA
BRANCH  30  33
ATOM     33  C29 154 d   1      10.082  32.860  80.444  0.00  0.00     0.094 A 
ATOM     34  C30 154 d   1       9.883  31.774  81.279  0.00  0.00    -0.036 A 
ATOM     35  C31 154 d   1      11.041  31.738  82.169  0.00  0.00     0.000 A 
ATOM     36  H16 154 d   1       9.037  31.088  81.274  0.00  0.00     0.089 H 
ATOM     37  C32 154 d   1      11.448  30.849  83.233  0.00  0.00    -0.070 A 
ATOM     38  C36 154 d   1      11.875  32.826  81.762  0.00  0.00     0.086 A 
ATOM     39  C33 154 d   1      12.687  31.115  83.890  0.00  0.00    -0.082 A 
ATOM     40  H17 154 d   1      10.831  30.006  83.523  0.00  0.00     0.084 H 
ATOM     41  C34 154 d   1      13.526  32.228  83.482  0.00  0.00    -0.080 A 
ATOM     42  H18 154 d   1      13.007  30.477  84.706  0.00  0.00     0.083 H 
ATOM     43  C35 154 d   1      13.125  33.109  82.430  0.00  0.00    -0.049 A 
ATOM     44  H19 154 d   1      14.473  32.394  83.984  0.00  0.00     0.083 H 
ATOM     45  H20 154 d   1      13.736  33.958  82.144  0.00  0.00     0.087 H 
ATOM     46  O37 154 d   1      11.278  33.518  80.731  0.00  0.00    -0.309 OA
ENDBRANCH  30  33
ENDBRANCH  23  26
ENDBRANCH   1  23
BRANCH   2  47
ATOM     47  C8  154 d   1       7.152  37.074  74.474  0.00  0.00     0.054 A 
ATOM     48  C9  154 d   1       6.234  37.781  73.647  0.00  0.00    -0.064 A 
ATOM     49  C10 154 d   1       6.702  38.711  72.690  0.00  0.00    -0.061 A 
ATOM     50  H2  154 d   1       5.169  37.605  73.751  0.00  0.00     0.085 H 
ATOM     51  C11 154 d   1       8.101  38.941  72.553  0.00  0.00     0.035 A 
ATOM     52  H3  154 d   1       5.999  39.247  72.063  0.00  0.00     0.086 H 
ATOM     53  C12 154 d   1       9.024  38.241  73.369  0.00  0.00    -0.040 A 
ATOM     54 CL14 154 d   1       8.682  40.078  71.399  0.00  0.00    -0.084 Cl
ATOM     55  C13 154 d   1       8.554  37.307  74.328  0.00  0.00     0.051 A 
ATOM     56  H4  154 d   1      10.088  38.419  73.261  0.00  0.00     0.088 H 
ATOM     57 CL15 154 d   1       9.700  36.494  75.291  0.00  0.00    -0.083 Cl
ENDBRANCH   2  47
TORSDOF 8
