REMARK  3 active torsions:
REMARK  status: ('A' for Active; 'I' for Inactive)
REMARK    1  A    between atoms: C8_7  and  N1_8 
REMARK    2  A    between atoms: N1_8  and  C4_9 
REMARK    3  A    between atoms: C3_14  and  O1_15 
ROOT
ATOM      1  N1  TCC d   1      51.361  92.942  35.355  0.00  0.00    -0.353 N 
ATOM      2  H   TCC d   1      50.785  92.423  36.018  0.00  0.00     0.166 HD
ENDROOT
BRANCH   1   3
ATOM      3  C8  TCC d   1      52.516  92.239  34.717  0.00  0.00     0.054 A 
ATOM      4  C9  TCC d   1      52.729  90.846  35.115  0.00  0.00     0.062 A 
ATOM      5  C10 TCC d   1      53.825  90.080  34.561  0.00  0.00    -0.039 A 
ATOM      6 CL1  TCC d   1      51.667  90.050  36.288  0.00  0.00    -0.082 Cl
ATOM      7  C11 TCC d   1      54.728  90.693  33.594  0.00  0.00     0.035 A 
ATOM      8  H   TCC d   1      53.975  89.045  34.867  0.00  0.00     0.088 H 
ATOM      9  C12 TCC d   1      54.533  92.055  33.191  0.00  0.00    -0.060 A 
ATOM     10 CL2  TCC d   1      56.060  89.779  32.920  0.00  0.00    -0.084 Cl
ATOM     11  C7  TCC d   1      53.445  92.832  33.736  0.00  0.00    -0.054 A 
ATOM     12  H   TCC d   1      55.211  92.507  32.468  0.00  0.00     0.086 H 
ATOM     13  H   TCC d   1      53.309  93.866  33.420  0.00  0.00     0.087 H 
ENDBRANCH   1   3
BRANCH   1  14
ATOM     14  C4  TCC d   1      51.011  94.350  35.075  0.00  0.00     0.066 A 
ATOM     15  C5  TCC d   1      51.663  95.448  35.783  0.00  0.00    -0.054 A 
ATOM     16  C6  TCC d   1      51.306  96.827  35.496  0.00  0.00    -0.081 A 
ATOM     17  H   TCC d   1      52.424  95.231  36.533  0.00  0.00     0.087 H 
ATOM     18  C1  TCC d   1      50.296  97.125  34.506  0.00  0.00    -0.080 A 
ATOM     19  H   TCC d   1      51.801  97.639  36.029  0.00  0.00     0.083 H 
ATOM     20  C2  TCC d   1      49.644  96.045  33.801  0.00  0.00    -0.049 A 
ATOM     21  H   TCC d   1      50.027  98.159  34.292  0.00  0.00     0.083 H 
ATOM     22  C3  TCC d   1      50.000  94.659  34.083  0.00  0.00     0.092 A 
ATOM     23  H   TCC d   1      48.882  96.267  33.054  0.00  0.00     0.087 H 
BRANCH  22  24
ATOM     24  O1  TCC d   1      49.347  93.661  33.381  0.00  0.00    -0.358 OA
ATOM     25  H   TCC d   1      49.510  93.773  32.441  0.00  0.00     0.217 HD
ENDBRANCH  22  24
ENDBRANCH   1  14
TORSDOF 3
