REMARK  10 active torsions:
REMARK  status: ('A' for Active; 'I' for Inactive)
REMARK    1  A    between atoms: C32_2  and  C34_3 
REMARK       I    between atoms: C32_2  and  N31_4 
REMARK    2  A    between atoms: N31_4  and  C28_5 
REMARK    3  A    between atoms: C25_10  and  C24_11 
REMARK    4  A    between atoms: C24_11  and  C1_12 
REMARK    5  A    between atoms: N6_15  and  C12_16 
REMARK    6  A    between atoms: C12_16  and  C13_17 
REMARK    7  A    between atoms: C13_17  and  C14_18 
REMARK    8  A    between atoms: C14_18  and  C15_19 
REMARK    9  A    between atoms: N8_24  and  C16_27 
REMARK   10  A    between atoms: C16_27  and  C17_28 
ROOT
ATOM      1  C1  FTB d   1      38.831  44.840  32.887  0.00  0.00     0.110 A 
ATOM      2  N2  FTB d   1      39.155  43.900  33.803  0.00  0.00    -0.328 N 
ATOM      3  C3  FTB d   1      38.264  42.924  33.545  0.00  0.00     0.148 A 
ATOM      4  N6  FTB d   1      38.217  41.749  34.244  0.00  0.00    -0.283 N 
ATOM      5  C4  FTB d   1      37.446  43.273  32.515  0.00  0.00     0.171 A 
ATOM      6  N5  FTB d   1      37.789  44.506  32.081  0.00  0.00    -0.226 NA
ATOM      7  C9  FTB d   1      36.447  42.400  32.087  0.00  0.00     0.284 A 
ATOM      8  O10 FTB d   1      35.674  42.681  31.166  0.00  0.00    -0.265 OA
ATOM      9  N8  FTB d   1      36.380  41.186  32.778  0.00  0.00    -0.260 N 
ATOM     10  C7  FTB d   1      37.245  40.859  33.837  0.00  0.00     0.333 A 
ATOM     11  O11 FTB d   1      37.131  39.793  34.415  0.00  0.00    -0.246 OA
ATOM     12  H11 FTB d   1      39.896  43.924  34.518  0.00  0.00     0.169 HD
ENDROOT
BRANCH   1  13
ATOM     13  C24 FTB d   1      39.608  46.129  32.835  0.00  0.00     0.014 C 
ATOM     14  H9  FTB d   1      40.604  45.964  33.272  0.00  0.00     0.051 H 
ATOM     15  H10 FTB d   1      39.715  46.440  31.785  0.00  0.00     0.051 H 
BRANCH  13  16
ATOM     16  C25 FTB d   1      38.909  47.231  33.606  0.00  0.00    -0.051 A 
ATOM     17  C30 FTB d   1      39.152  47.429  34.977  0.00  0.00    -0.074 A 
ATOM     18  C29 FTB d   1      38.501  48.466  35.675  0.00  0.00    -0.057 A 
ATOM     19  H6  FTB d   1      39.845  46.780  35.500  0.00  0.00     0.084 H 
ATOM     20  C28 FTB d   1      37.602  49.319  35.008  0.00  0.00     0.034 A 
ATOM     21  H5  FTB d   1      38.694  48.608  36.732  0.00  0.00     0.086 H 
ATOM     22  C27 FTB d   1      37.376  49.121  33.630  0.00  0.00    -0.057 A 
ATOM     23  C26 FTB d   1      38.028  48.088  32.932  0.00  0.00    -0.074 A 
ATOM     24  H7  FTB d   1      36.691  49.774  33.102  0.00  0.00     0.086 H 
ATOM     25  H8  FTB d   1      37.849  47.955  31.871  0.00  0.00     0.084 H 
BRANCH  20  26
ATOM     26  N31 FTB d   1      36.939  50.387  35.739  0.00  0.00    -0.328 N 
ATOM     27  C32 FTB d   1      36.099  51.369  35.245  0.00  0.00     0.218 C 
ATOM     28  O33 FTB d   1      35.801  51.446  34.058  0.00  0.00    -0.274 OA
ATOM     29  H4  FTB d   1      37.112  50.415  36.724  0.00  0.00     0.169 HD
BRANCH  27  30
ATOM     30  C34 FTB d   1      35.520  52.391  36.180  0.00  0.00    -0.003 C 
ATOM     31  H1  FTB d   1      35.874  52.195  37.203  0.00  0.00     0.040 H 
ATOM     32  H2  FTB d   1      34.422  52.331  36.155  0.00  0.00     0.040 H 
ATOM     33  H3  FTB d   1      35.840  53.396  35.868  0.00  0.00     0.040 H 
ENDBRANCH  27  30
ENDBRANCH  20  26
ENDBRANCH  13  16
ENDBRANCH   1  13
BRANCH   4  34
ATOM     34  C12 FTB d   1      39.159  41.444  35.346  0.00  0.00     0.006 C 
ATOM     35  H12 FTB d   1      38.599  41.041  36.203  0.00  0.00     0.065 H 
ATOM     36  H13 FTB d   1      39.677  42.366  35.648  0.00  0.00     0.065 H 
BRANCH  34  37
ATOM     37  C13 FTB d   1      40.202  40.399  34.878  0.00  0.00    -0.050 C 
ATOM     38  H14 FTB d   1      40.806  40.837  34.070  0.00  0.00     0.035 H 
ATOM     39  H15 FTB d   1      39.672  39.513  34.500  0.00  0.00     0.035 H 
BRANCH  37  40
ATOM     40  C14 FTB d   1      41.137  39.968  36.018  0.00  0.00    -0.067 C 
ATOM     41  H16 FTB d   1      40.534  39.733  36.907  0.00  0.00     0.032 H 
ATOM     42  H17 FTB d   1      41.825  40.795  36.250  0.00  0.00     0.032 H 
BRANCH  40  43
ATOM     43  C15 FTB d   1      41.952  38.737  35.630  0.00  0.00    -0.076 C 
ATOM     44  H18 FTB d   1      42.610  38.455  36.465  0.00  0.00     0.027 H 
ATOM     45  H19 FTB d   1      42.562  38.966  34.744  0.00  0.00     0.027 H 
ATOM     46  H20 FTB d   1      41.271  37.904  35.401  0.00  0.00     0.027 H 
ENDBRANCH  40  43
ENDBRANCH  37  40
ENDBRANCH  34  37
ENDBRANCH   4  34
BRANCH   9  47
ATOM     47  C16 FTB d   1      35.675  40.031  32.173  0.00  0.00     0.034 C 
ATOM     48  H21 FTB d   1      36.198  39.096  32.422  0.00  0.00     0.072 H 
ATOM     49  H22 FTB d   1      35.630  40.146  31.080  0.00  0.00     0.072 H 
BRANCH  47  50
ATOM     50  C17 FTB d   1      34.281  40.017  32.752  0.00  0.00    -0.001 A 
ATOM     51  C18 FTB d   1      34.025  40.350  34.100  0.00  0.00    -0.072 A 
ATOM     52  C19 FTB d   1      32.713  40.334  34.604  0.00  0.00    -0.082 A 
ATOM     53  H23 FTB d   1      34.848  40.620  34.752  0.00  0.00     0.084 H 
ATOM     54  C20 FTB d   1      31.651  39.968  33.764  0.00  0.00    -0.080 A 
ATOM     55  H24 FTB d   1      32.523  40.603  35.637  0.00  0.00     0.083 H 
ATOM     56  C21 FTB d   1      31.899  39.634  32.421  0.00  0.00    -0.045 A 
ATOM     57  H25 FTB d   1      30.639  39.943  34.151  0.00  0.00     0.083 H 
ATOM     58  C22 FTB d   1      33.212  39.665  31.923  0.00  0.00     0.124 A 
ATOM     59  H26 FTB d   1      31.078  39.353  31.771  0.00  0.00     0.088 H 
ATOM     60  F   FTB d   1      33.437  39.332  30.635  0.00  0.00    -0.205 F 
ENDBRANCH  47  50
ENDBRANCH   9  47
TORSDOF 10
