REMARK  7 active torsions:
REMARK  status: ('A' for Active; 'I' for Inactive)
REMARK    1  A    between atoms: O2_1  and  C38_2 
REMARK    2  A    between atoms: C1_18  and  O2_1 
REMARK    3  A    between atoms: C38_2  and  C40_3 
REMARK    4  A    between atoms: C38_2  and  C12_21 
REMARK    5  A    between atoms: C13_27  and  C3_16 
REMARK    6  A    between atoms: C11_26  and  C1_18 
REMARK    7  A    between atoms: N4_22  and  C15_24 
ROOT
ATOM      1  C40 2C5 d   1      52.108  47.761   0.052  0.00  0.00    -0.024 A 
ATOM      2  C43 2C5 d   1      52.070  47.492   1.460  0.00  0.00    -0.073 A 
ATOM      3  C44 2C5 d   1      53.230  47.662   2.276  0.00  0.00    -0.062 A 
ATOM      4  C45 2C5 d   1      54.434  48.101   1.683  0.00  0.00     0.044 A 
ATOM      5  C46 2C5 d   1      54.487  48.362   0.307  0.00  0.00    -0.062 A 
ATOM      6  C47 2C5 d   1      53.344  48.198  -0.492  0.00  0.00    -0.073 A 
ATOM      7  C65 2C5 d   1      55.609  48.300   2.466  0.00  0.00     0.099 C 
ATOM      8  N1  2C5 d   1      56.554  48.514   3.097  0.00  0.00    -0.191 NA
ATOM      9  H2  2C5 d   1      51.145  47.154   1.913  0.00  0.00     0.084 H 
ATOM     10  H3  2C5 d   1      53.187  47.456   3.339  0.00  0.00     0.085 H 
ATOM     11  H4  2C5 d   1      55.416  48.693  -0.143  0.00  0.00     0.085 H 
ATOM     12  H5  2C5 d   1      53.407  48.411  -1.553  0.00  0.00     0.084 H 
ENDROOT
BRANCH   1  13
ATOM     13  C38 2C5 d   1      50.846  47.604  -0.841  0.00  0.00     0.105 C 
ATOM     14  H1  2C5 d   1      50.077  47.123  -0.220  0.00  0.00     0.101 H 
BRANCH  13  15
ATOM     15  O2  2C5 d   1      50.378  48.904  -1.238  0.00  0.00    -0.369 OA
BRANCH  15  16
ATOM     16  C1  2C5 d   1      50.105  49.944  -0.277  0.00  0.00     0.061 C 
ATOM     17  H10 2C5 d   1      50.865  49.938   0.518  0.00  0.00     0.084 H 
ATOM     18  H11 2C5 d   1      49.109  49.802   0.167  0.00  0.00     0.084 H 
BRANCH  16  19
ATOM     19  C11 2C5 d   1      50.157  51.234  -1.037  0.00  0.00     0.071 A 
ATOM     20  N2  2C5 d   1      49.119  51.410  -1.896  0.00  0.00    -0.237 NA
ATOM     21  C6  2C5 d   1      49.009  52.521  -2.667  0.00  0.00     0.147 A 
ATOM     22  C17 2C5 d   1      49.988  53.541  -2.606  0.00  0.00     0.086 A 
ATOM     23 CL2  2C5 d   1      47.638  52.646  -3.729  0.00  0.00    -0.061 Cl
ATOM     24  C14 2C5 d   1      51.064  53.374  -1.700  0.00  0.00    -0.047 A 
ATOM     25  C9  2C5 d   1      49.906  54.734  -3.413  0.00  0.00     0.102 C 
ATOM     26  C13 2C5 d   1      51.178  52.213  -0.902  0.00  0.00     0.003 A 
ATOM     27  H17 2C5 d   1      51.815  54.152  -1.617  0.00  0.00     0.087 H 
ATOM     28  N5  2C5 d   1      49.826  55.658  -4.099  0.00  0.00    -0.191 NA
BRANCH  26  29
ATOM     29  C3  2C5 d   1      52.352  52.141   0.030  0.00  0.00    -0.022 A 
ATOM     30  C7  2C5 d   1      53.644  51.849  -0.471  0.00  0.00    -0.051 A 
ATOM     31  C53 2C5 d   1      54.753  51.797   0.412  0.00  0.00     0.034 A 
ATOM     32  H7  2C5 d   1      53.786  51.665  -1.530  0.00  0.00     0.087 H 
ATOM     33  C52 2C5 d   1      54.603  52.026   1.797  0.00  0.00    -0.062 A 
ATOM     34 CL1  2C5 d   1      56.319  51.440  -0.215  0.00  0.00    -0.084 Cl
ATOM     35  C2  2C5 d   1      53.315  52.315   2.296  0.00  0.00    -0.081 A 
ATOM     36  H6  2C5 d   1      55.458  51.981   2.462  0.00  0.00     0.086 H 
ATOM     37  C4  2C5 d   1      52.202  52.370   1.415  0.00  0.00    -0.072 A 
ATOM     38  H8  2C5 d   1      53.174  52.496   3.356  0.00  0.00     0.083 H 
ATOM     39  H9  2C5 d   1      51.219  52.592   1.814  0.00  0.00     0.084 H 
ENDBRANCH  26  29
ENDBRANCH  16  19
ENDBRANCH  15  16
ENDBRANCH  13  15
BRANCH  13  40
ATOM     40  C12 2C5 d   1      50.983  46.749  -2.160  0.00  0.00     0.063 A 
ATOM     41  C10 2C5 d   1      52.048  46.074  -2.682  0.00  0.00     0.028 A 
ATOM     42  N3  2C5 d   1      51.723  45.405  -3.943  0.00  0.00    -0.254 NA
ATOM     43  H12 2C5 d   1      53.030  46.037  -2.213  0.00  0.00     0.118 H 
ATOM     44  C5  2C5 d   1      50.444  45.693  -4.133  0.00  0.00     0.065 A 
ATOM     45  N4  2C5 d   1      49.921  46.470  -3.174  0.00  0.00    -0.346 N 
ATOM     46  H13 2C5 d   1      49.872  45.333  -4.987  0.00  0.00     0.143 H 
BRANCH  45  47
ATOM     47  C15 2C5 d   1      48.525  46.928  -3.152  0.00  0.00    -0.013 C 
ATOM     48  H14 2C5 d   1      48.357  47.549  -2.260  0.00  0.00     0.057 H 
ATOM     49  H15 2C5 d   1      47.854  46.057  -3.124  0.00  0.00     0.057 H 
ATOM     50  H16 2C5 d   1      48.319  47.520  -4.056  0.00  0.00     0.057 H 
ENDBRANCH  45  47
ENDBRANCH  13  40
ENDBRANCH   1  13
TORSDOF 7
