REMARK  12 active torsions:
REMARK  status: ('A' for Active; 'I' for Inactive)
REMARK    1  A    between atoms: N_1  and  CA_2 
REMARK    2  A    between atoms: CA_2  and  CB_3 
REMARK    3  A    between atoms: CA_2  and  C_5 
REMARK    4  A    between atoms: CB_3  and  SG_4 
REMARK       I    between atoms: C_5  and  N3S_7 
REMARK    5  A    between atoms: N3S_7  and  S_8 
REMARK    6  A    between atoms: S_8  and  O5_11 
REMARK    7  A    between atoms: O5_11  and  C5_12 
REMARK    8  A    between atoms: C5_12  and  C4_13 
REMARK    9  A    between atoms: C3_15  and  O3_16 
REMARK   10  A    between atoms: C2_17  and  O2_18 
REMARK   11  A    between atoms: C1_19  and  N9_20 
REMARK   12  A    between atoms: C6_24  and  N6_25 
ROOT
ATOM      1  C4  5CA d   1     -30.327 -80.198 -36.402  0.00  0.00     0.090 C 
ATOM      2  O4  5CA d   1     -30.798 -80.442 -35.051  0.00  0.00    -0.353 OA
ATOM      3  C3  5CA d   1     -29.237 -81.223 -36.630  0.00  0.00     0.091 C 
ATOM      4  C2  5CA d   1     -28.675 -81.488 -35.242  0.00  0.00     0.105 C 
ATOM      5  C1  5CA d   1     -29.841 -81.192 -34.316  0.00  0.00     0.139 C 
ATOM      6  H11 5CA d   1     -29.883 -79.193 -36.462  0.00  0.00     0.090 H 
ATOM      7  H12 5CA d   1     -29.654 -82.151 -37.049  0.00  0.00     0.091 H 
ATOM      8  H14 5CA d   1     -28.372 -82.542 -35.155  0.00  0.00     0.093 H 
ATOM      9  H16 5CA d   1     -29.461 -80.582 -33.483  0.00  0.00     0.122 H 
ENDROOT
BRANCH   1  10
ATOM     10  C5  5CA d   1     -31.475 -80.250 -37.387  0.00  0.00     0.066 C 
ATOM     11  H9  5CA d   1     -32.257 -79.549 -37.060  0.00  0.00     0.080 H 
ATOM     12  H10 5CA d   1     -31.107 -79.951 -38.380  0.00  0.00     0.080 H 
BRANCH  10  13
ATOM     13  O5  5CA d   1     -32.040 -81.571 -37.477  0.00  0.00    -0.257 OA
BRANCH  13  14
ATOM     14  S   5CA d   1     -32.261 -82.296 -38.890  0.00  0.00     0.364 S 
ATOM     15  O1S 5CA d   1     -33.181 -83.435 -38.714  0.00  0.00    -0.175 OA
ATOM     16  O2S 5CA d   1     -30.916 -82.576 -39.492  0.00  0.00    -0.175 OA
BRANCH  14  17
ATOM     17  N3S 5CA d   1     -32.912 -81.225 -39.893  0.00  0.00    -0.230 N 
ATOM     18  C   5CA d   1     -34.146 -80.651 -39.771  0.00  0.00     0.264 C 
ATOM     19  O   5CA d   1     -34.916 -81.110 -38.964  0.00  0.00    -0.270 OA
ATOM     20  H8  5CA d   1     -32.362 -80.952 -40.682  0.00  0.00     0.183 HD
BRANCH  18  21
ATOM     21  CA  5CA d   1     -34.520 -79.919 -41.026  0.00  0.00     0.184 C 
ATOM     22  H4  5CA d   1     -34.151 -80.466 -41.906  0.00  0.00     0.100 H 
BRANCH  21  23
ATOM     23  N   5CA d   1     -35.976 -79.826 -41.089  0.00  0.00    -0.066 N 
ATOM     24  H1  5CA d   1     -36.245 -79.336 -41.928  0.00  0.00     0.275 HD
ATOM     25  H2  5CA d   1     -36.316 -79.325 -40.283  0.00  0.00     0.275 HD
ATOM     26  H3  5CA d   1     -36.372 -80.753 -41.100  0.00  0.00     0.275 HD
ENDBRANCH  21  23
BRANCH  21  27
ATOM     27  CB  5CA d   1     -33.881 -78.549 -40.980  0.00  0.00     0.009 C 
ATOM     28  H5  5CA d   1     -33.791 -78.161 -42.005  0.00  0.00     0.052 H 
ATOM     29  H6  5CA d   1     -32.880 -78.635 -40.531  0.00  0.00     0.052 H 
BRANCH  27  30
ATOM     30  SG  5CA d   1     -34.861 -77.405 -40.007  0.00  0.00    -0.180 SA
ATOM     31  H7  5CA d   1     -34.410 -76.504 -39.996  0.00  0.00     0.101 HD
ENDBRANCH  27  30
ENDBRANCH  21  27
ENDBRANCH  18  21
ENDBRANCH  14  17
ENDBRANCH  13  14
ENDBRANCH  10  13
ENDBRANCH   1  10
BRANCH   3  32
ATOM     32  O3  5CA d   1     -28.275 -80.693 -37.544  0.00  0.00    -0.390 OA
ATOM     33  H13 5CA d   1     -27.897 -79.901 -37.180  0.00  0.00     0.210 HD
ENDBRANCH   3  32
BRANCH   5  34
ATOM     34  N9  5CA d   1     -30.532 -82.374 -33.732  0.00  0.00    -0.294 N 
ATOM     35  C8  5CA d   1     -31.191 -83.411 -34.368  0.00  0.00     0.071 A 
ATOM     36  N7  5CA d   1     -31.709 -84.300 -33.538  0.00  0.00    -0.236 NA
ATOM     37  H17 5CA d   1     -31.275 -83.488 -35.451  0.00  0.00     0.144 H 
ATOM     38  C5  5CA d   1     -31.376 -83.828 -32.279  0.00  0.00     0.149 A 
ATOM     39  C6  5CA d   1     -31.632 -84.310 -30.951  0.00  0.00     0.155 A 
ATOM     40  C4  5CA d   1     -30.646 -82.640 -32.375  0.00  0.00     0.167 A 
ATOM     41  N1  5CA d   1     -31.151 -83.589 -29.888  0.00  0.00    -0.222 NA
ATOM     42  C2  5CA d   1     -30.453 -82.446 -30.130  0.00  0.00     0.091 A 
ATOM     43  N3  5CA d   1     -30.155 -81.898 -31.336  0.00  0.00    -0.222 NA
ATOM     44  H20 5CA d   1     -30.093 -81.911 -29.259  0.00  0.00     0.146 H 
BRANCH  39  45
ATOM     45  N6  5CA d   1     -32.315 -85.424 -30.689  0.00  0.00    -0.382 N 
ATOM     46  H18 5CA d   1     -32.466 -85.718 -29.713  0.00  0.00     0.157 HD
ATOM     47  H19 5CA d   1     -32.692 -85.991 -31.462  0.00  0.00     0.157 HD
ENDBRANCH  39  45
ENDBRANCH   5  34
BRANCH   4  48
ATOM     48  O2  5CA d   1     -27.565 -80.671 -34.924  0.00  0.00    -0.388 OA
ATOM     49  H15 5CA d   1     -26.868 -80.827 -35.551  0.00  0.00     0.210 HD
ENDBRANCH   4  48
TORSDOF 12
