REMARK  9 active torsions:
REMARK  status: ('A' for Active; 'I' for Inactive)
REMARK    1  A    between atoms: C_3  and  CA_7 
REMARK       I    between atoms: C_3  and  N3S_8 
REMARK    2  A    between atoms: N3S_8  and  S_9 
REMARK    3  A    between atoms: S_9  and  O5_12 
REMARK    4  A    between atoms: O5_12  and  C5_13 
REMARK    5  A    between atoms: C5_13  and  C4_14 
REMARK    6  A    between atoms: C1_16  and  N9_17 
REMARK    7  A    between atoms: C6_22  and  N6_23 
REMARK    8  A    between atoms: C2_27  and  O2_28 
REMARK    9  A    between atoms: C3_29  and  O3_30 
ROOT
ATOM      1  C4  P5A d   1     -30.365 -80.388 -36.496  0.00  0.00     0.090 C 
ATOM      2  O4  P5A d   1     -30.901 -80.647 -35.177  0.00  0.00    -0.353 OA
ATOM      3  C1  P5A d   1     -29.989 -81.402 -34.406  0.00  0.00     0.139 C 
ATOM      4  C2  P5A d   1     -28.771 -81.670 -35.295  0.00  0.00     0.105 C 
ATOM      5  C3  P5A d   1     -29.342 -81.494 -36.697  0.00  0.00     0.091 C 
ATOM      6  H13 P5A d   1     -29.850 -79.416 -36.514  0.00  0.00     0.090 H 
ATOM      7  H14 P5A d   1     -29.644 -80.783 -33.565  0.00  0.00     0.122 H 
ATOM      8  H19 P5A d   1     -28.380 -82.690 -35.167  0.00  0.00     0.093 H 
ATOM      9  H21 P5A d   1     -29.808 -82.423 -37.057  0.00  0.00     0.091 H 
ENDROOT
BRANCH   1  10
ATOM     10  C5  P5A d   1     -31.492 -80.337 -37.511  0.00  0.00     0.066 C 
ATOM     11  H11 P5A d   1     -32.181 -79.526 -37.234  0.00  0.00     0.080 H 
ATOM     12  H12 P5A d   1     -31.065 -80.132 -38.504  0.00  0.00     0.080 H 
BRANCH  10  13
ATOM     13  O5  P5A d   1     -32.231 -81.575 -37.570  0.00  0.00    -0.257 OA
BRANCH  13  14
ATOM     14  S   P5A d   1     -32.365 -82.386 -38.938  0.00  0.00     0.364 S 
ATOM     15  O1S P5A d   1     -33.281 -83.530 -38.748  0.00  0.00    -0.175 OA
ATOM     16  O2S P5A d   1     -30.978 -82.645 -39.454  0.00  0.00    -0.175 OA
BRANCH  14  17
ATOM     17  N3S P5A d   1     -32.982 -81.391 -40.011  0.00  0.00    -0.230 N 
ATOM     18  C   P5A d   1     -34.225 -80.896 -39.973  0.00  0.00     0.263 C 
ATOM     19  O   P5A d   1     -35.035 -81.179 -39.082  0.00  0.00    -0.270 OA
ATOM     20  H10 P5A d   1     -32.397 -81.113 -40.773  0.00  0.00     0.183 HD
BRANCH  18  21
ATOM     21  CA  P5A d   1     -34.619 -79.930 -41.103  0.00  0.00     0.178 C 
ATOM     22  CB  P5A d   1     -33.812 -78.633 -41.035  0.00  0.00    -0.028 C 
ATOM     23  CG  P5A d   1     -34.699 -77.756 -40.166  0.00  0.00    -0.040 C 
ATOM     24  H1  P5A d   1     -32.830 -78.797 -40.567  0.00  0.00     0.036 H 
ATOM     25  H2  P5A d   1     -33.673 -78.195 -42.035  0.00  0.00     0.036 H 
ATOM     26  CD  P5A d   1     -36.159 -78.162 -40.510  0.00  0.00     0.083 C 
ATOM     27  H3  P5A d   1     -34.532 -76.694 -40.397  0.00  0.00     0.035 H 
ATOM     28  H4  P5A d   1     -34.492 -77.937 -39.101  0.00  0.00     0.035 H 
ATOM     29  N   P5A d   1     -36.037 -79.552 -40.999  0.00  0.00    -0.062 N 
ATOM     30  H7  P5A d   1     -36.573 -77.508 -41.291  0.00  0.00     0.075 H 
ATOM     31  H8  P5A d   1     -36.799 -78.117 -39.616  0.00  0.00     0.075 H 
ATOM     32  H5  P5A d   1     -36.469 -79.625 -41.907  0.00  0.00     0.278 HD
ATOM     33  H6  P5A d   1     -36.501 -80.174 -40.355  0.00  0.00     0.278 HD
ATOM     34  H9  P5A d   1     -34.439 -80.425 -42.069  0.00  0.00     0.099 H 
ENDBRANCH  18  21
ENDBRANCH  14  17
ENDBRANCH  13  14
ENDBRANCH  10  13
ENDBRANCH   1  10
BRANCH   5  35
ATOM     35  O3  P5A d   1     -28.354 -81.054 -37.625  0.00  0.00    -0.390 OA
ATOM     36  H22 P5A d   1     -27.654 -81.695 -37.668  0.00  0.00     0.210 HD
ENDBRANCH   5  35
BRANCH   3  37
ATOM     37  N9  P5A d   1     -30.673 -82.567 -33.815  0.00  0.00    -0.294 N 
ATOM     38  C4  P5A d   1     -30.771 -82.810 -32.451  0.00  0.00     0.167 A 
ATOM     39  N3  P5A d   1     -30.267 -82.051 -31.423  0.00  0.00    -0.222 NA
ATOM     40  C5  P5A d   1     -31.506 -83.994 -32.331  0.00  0.00     0.149 A 
ATOM     41  C2  P5A d   1     -30.551 -82.582 -30.224  0.00  0.00     0.091 A 
ATOM     42  N1  P5A d   1     -31.247 -83.716 -29.955  0.00  0.00    -0.222 NA
ATOM     43  H15 P5A d   1     -30.178 -82.038 -29.363  0.00  0.00     0.146 H 
ATOM     44  C6  P5A d   1     -31.741 -84.457 -30.994  0.00  0.00     0.155 A 
ATOM     45  N7  P5A d   1     -31.850 -84.487 -33.580  0.00  0.00    -0.236 NA
ATOM     46  C8  P5A d   1     -31.340 -83.610 -34.421  0.00  0.00     0.071 A 
ATOM     47  H18 P5A d   1     -31.437 -83.701 -35.502  0.00  0.00     0.144 H 
BRANCH  44  48
ATOM     48  N6  P5A d   1     -32.422 -85.561 -30.700  0.00  0.00    -0.382 N 
ATOM     49  H16 P5A d   1     -32.809 -86.144 -31.456  0.00  0.00     0.157 HD
ATOM     50  H17 P5A d   1     -32.562 -85.833 -29.716  0.00  0.00     0.157 HD
ENDBRANCH  44  48
ENDBRANCH   3  37
BRANCH   4  51
ATOM     51  O2  P5A d   1     -27.778 -80.732 -34.919  0.00  0.00    -0.388 OA
ATOM     52  H20 P5A d   1     -27.001 -80.865 -35.450  0.00  0.00     0.210 HD
ENDBRANCH   4  51
TORSDOF 9
