REMARK  11 active torsions:
REMARK  status: ('A' for Active; 'I' for Inactive)
REMARK    1  A    between atoms: PG_1  and  S3G_4 
REMARK    2  A    between atoms: O3B_8  and  PG_1 
REMARK    3  A    between atoms: PB_5  and  O3B_8 
REMARK    4  A    between atoms: O3A_12  and  PB_5 
REMARK    5  A    between atoms: PA_9  and  O3A_12 
REMARK    6  A    between atoms: PA_9  and  O5_13 
REMARK    7  A    between atoms: O5_13  and  C5_14 
REMARK    8  A    between atoms: C5_14  and  C4_15 
REMARK    9  A    between atoms: C3_17  and  O3_18 
REMARK   10  A    between atoms: C2_19  and  O2_20 
REMARK   11  A    between atoms: C1_21  and  N9_22 
ROOT
ATOM      1  C4  AGS d   1      -1.412  26.311  44.570  0.00  0.00     0.089 C 
ATOM      2  O4  AGS d   1      -2.264  25.286  45.202  0.00  0.00    -0.353 OA
ATOM      3  C3  AGS d   1      -0.578  26.897  45.742  0.00  0.00     0.091 C 
ATOM      4  C2  AGS d   1      -1.433  26.620  46.980  0.00  0.00     0.105 C 
ATOM      5  C1  AGS d   1      -2.248  25.420  46.639  0.00  0.00     0.139 C 
ATOM      6  H4  AGS d   1      -2.010  27.105  44.098  0.00  0.00     0.090 H 
ATOM      7  H5  AGS d   1       0.361  26.330  45.828  0.00  0.00     0.091 H 
ATOM      8  H7  AGS d   1      -0.766  26.381  47.821  0.00  0.00     0.093 H 
ATOM      9  H9  AGS d   1      -3.271  25.566  47.016  0.00  0.00     0.122 H 
ENDROOT
BRANCH   1  10
ATOM     10  C5  AGS d   1      -0.586  25.585  43.506  0.00  0.00     0.058 C 
ATOM     11  H2  AGS d   1      -1.260  25.200  42.726  0.00  0.00     0.079 H 
ATOM     12  H3  AGS d   1       0.127  26.292  43.058  0.00  0.00     0.079 H 
BRANCH  10  13
ATOM     13  O5  AGS d   1       0.150  24.471  44.097  0.00  0.00    -0.287 OA
BRANCH  13  14
ATOM     14  PA  AGS d   1       1.546  24.044  43.390  0.00  0.00     0.417 P 
ATOM     15  O1A AGS d   1       2.563  23.691  44.445  0.00  0.00    -0.624 OA
ATOM     16  O2A AGS d   1       2.024  25.013  42.331  0.00  0.00    -0.624 OA
BRANCH  14  17
ATOM     17  O3A AGS d   1       1.087  22.662  42.707  0.00  0.00    -0.180 OA
BRANCH  17  18
ATOM     18  PB  AGS d   1       1.784  21.682  41.669  0.00  0.00     0.426 P 
ATOM     19  O1B AGS d   1       3.127  22.264  41.327  0.00  0.00    -0.624 OA
ATOM     20  O2B AGS d   1       1.701  20.276  42.205  0.00  0.00    -0.624 OA
BRANCH  18  21
ATOM     21  O3B AGS d   1       0.848  21.865  40.386  0.00  0.00    -0.195 OA
BRANCH  21  22
ATOM     22  PG  AGS d   1       1.039  21.960  38.737  0.00  0.00     0.322 P 
ATOM     23  O1G AGS d   1       1.940  23.163  38.310  0.00  0.00    -0.638 OA
ATOM     24  O2G AGS d   1      -0.324  22.149  38.156  0.00  0.00    -0.638 OA
BRANCH  22  25
ATOM     25  S3G AGS d   1       1.788  20.499  38.224  0.00  0.00    -0.054 SA
ATOM     26  H1  AGS d   1       2.701  20.425  38.645  0.00  0.00     0.114 HD
ENDBRANCH  22  25
ENDBRANCH  21  22
ENDBRANCH  18  21
ENDBRANCH  17  18
ENDBRANCH  14  17
ENDBRANCH  13  14
ENDBRANCH  10  13
ENDBRANCH   1  10
BRANCH   3  27
ATOM     27  O3  AGS d   1      -0.220  28.259  45.564  0.00  0.00    -0.390 OA
ATOM     28  H6  AGS d   1      -1.008  28.785  45.486  0.00  0.00     0.210 HD
ENDBRANCH   3  27
BRANCH   5  29
ATOM     29  N9  AGS d   1      -1.689  24.122  47.212  0.00  0.00    -0.294 N 
ATOM     30  C8  AGS d   1      -1.338  23.064  46.391  0.00  0.00     0.071 A 
ATOM     31  N7  AGS d   1      -0.869  21.992  47.002  0.00  0.00    -0.236 NA
ATOM     32  H10 AGS d   1      -1.442  23.113  45.308  0.00  0.00     0.144 H 
ATOM     33  C5  AGS d   1      -0.899  22.337  48.325  0.00  0.00     0.149 A 
ATOM     34  C6  AGS d   1      -0.526  21.632  49.522  0.00  0.00     0.155 A 
ATOM     35  C4  AGS d   1      -1.401  23.663  48.483  0.00  0.00     0.167 A 
ATOM     36  N6  AGS d   1      -0.039  20.371  49.519  0.00  0.00    -0.382 N 
ATOM     37  N1  AGS d   1      -0.687  22.291  50.724  0.00  0.00    -0.222 NA
ATOM     38  H11 AGS d   1       0.212  19.914  50.407  0.00  0.00     0.157 HD
ATOM     39  H12 AGS d   1       0.081  19.867  48.629  0.00  0.00     0.157 HD
ATOM     40  C2  AGS d   1      -1.184  23.573  50.741  0.00  0.00     0.091 A 
ATOM     41  N3  AGS d   1      -1.567  24.332  49.671  0.00  0.00    -0.222 NA
ATOM     42  H13 AGS d   1      -1.284  24.035  51.716  0.00  0.00     0.146 H 
ENDBRANCH   5  29
BRANCH   4  43
ATOM     43  O2  AGS d   1      -2.257  27.692  47.382  0.00  0.00    -0.388 OA
ATOM     44  H8  AGS d   1      -1.717  28.446  47.585  0.00  0.00     0.210 HD
ENDBRANCH   4  43
TORSDOF 11
