REMARK  18 active torsions:
REMARK  status: ('A' for Active; 'I' for Inactive)
REMARK    1  A    between atoms: O11_2  and  C11_1 
REMARK    2  A    between atoms: C42_19  and  O11_2 
REMARK    3  A    between atoms: C21_3  and  N21_4 
REMARK    4  A    between atoms: C31_5  and  O31_6 
REMARK    5  A    between atoms: C41_7  and  O41_8 
REMARK    6  A    between atoms: C51_9  and  C61_11 
REMARK    7  A    between atoms: C61_11  and  O61_12 
REMARK    8  A    between atoms: C61_11  and  C71_13 
REMARK    9  A    between atoms: C12_14  and  N12_15 
REMARK   10  A    between atoms: C32_17  and  N32_18 
REMARK   11  A    between atoms: C52_20  and  O52_21 
REMARK   12  A    between atoms: C62_22  and  O62_23 
REMARK   13  A    between atoms: O62_23  and  C13_24 
REMARK   14  A    between atoms: C23_25  and  O23_26 
REMARK   15  A    between atoms: C33_27  and  N33_28 
REMARK   16  A    between atoms: N33_28  and  C93_29 
REMARK   17  A    between atoms: C43_30  and  O43_31 
REMARK   18  A    between atoms: C43_30  and  C83_32 
ROOT
ATOM      1  C12 GET d   1      75.775  80.044 120.810  0.00  0.00     0.129 C 
ATOM      2  C22 GET d   1      76.151  80.558 122.234  0.00  0.00    -0.007 C 
ATOM      3  C32 GET d   1      77.088  81.790 122.197  0.00  0.00     0.129 C 
ATOM      4  C42 GET d   1      76.450  82.944 121.381  0.00  0.00     0.096 C 
ATOM      5  C52 GET d   1      76.188  82.478 119.911  0.00  0.00     0.089 C 
ATOM      6  C62 GET d   1      75.342  81.180 119.814  0.00  0.00     0.096 C 
ATOM      7  H16 GET d   1      76.656  79.539 120.387  0.00  0.00     0.088 H 
ATOM      8  H20 GET d   1      76.657  79.747 122.778  0.00  0.00     0.039 H 
ATOM      9  H21 GET d   1      75.227  80.834 122.764  0.00  0.00     0.039 H 
ATOM     10  H22 GET d   1      78.036  81.502 121.719  0.00  0.00     0.088 H 
ATOM     11  H26 GET d   1      75.490  83.221 121.842  0.00  0.00     0.090 H 
ATOM     12  H27 GET d   1      77.162  82.300 119.432  0.00  0.00     0.091 H 
ATOM     13  H29 GET d   1      74.292  81.433 120.024  0.00  0.00     0.090 H 
ENDROOT
BRANCH   4  14
ATOM     14  O11 GET d   1      77.334  84.099 121.400  0.00  0.00    -0.349 OA
BRANCH  14  15
ATOM     15  C11 GET d   1      76.654  85.365 121.589  0.00  0.00     0.162 C 
ATOM     16  C21 GET d   1      76.360  85.990 120.206  0.00  0.00     0.173 C 
ATOM     17  C31 GET d   1      75.644  87.336 120.365  0.00  0.00     0.094 C 
ATOM     18  H2  GET d   1      75.710  85.308 119.639  0.00  0.00     0.096 H 
ATOM     19  C41 GET d   1      76.442  88.317 121.237  0.00  0.00     0.089 C 
ATOM     20  H6  GET d   1      75.508  87.782 119.369  0.00  0.00     0.090 H 
ATOM     21  C51 GET d   1      77.031  87.667 122.536  0.00  0.00     0.093 C 
ATOM     22  H8  GET d   1      75.774  89.139 121.535  0.00  0.00     0.091 H 
ATOM     23  O51 GET d   1      77.460  86.254 122.428  0.00  0.00    -0.349 OA
ATOM     24  H10 GET d   1      77.936  88.241 122.786  0.00  0.00     0.091 H 
ATOM     25  H1  GET d   1      75.698  85.182 122.100  0.00  0.00     0.132 H 
BRANCH  16  26
ATOM     26  N21 GET d   1      77.622  86.175 119.466  0.00  0.00    -0.068 N 
ATOM     27  H3  GET d   1      77.427  86.583 118.565  0.00  0.00     0.275 HD
ATOM     28  H4  GET d   1      78.072  85.282 119.340  0.00  0.00     0.275 HD
ATOM     29  H5  GET d   1      78.230  86.787 119.987  0.00  0.00     0.275 HD
ENDBRANCH  16  26
BRANCH  17  30
ATOM     30  O31 GET d   1      74.361  87.116 120.963  0.00  0.00    -0.391 OA
ATOM     31  H7  GET d   1      73.847  86.544 120.406  0.00  0.00     0.210 HD
ENDBRANCH  17  30
BRANCH  19  32
ATOM     32  O41 GET d   1      77.506  88.835 120.461  0.00  0.00    -0.390 OA
ATOM     33  H9  GET d   1      78.011  89.445 120.986  0.00  0.00     0.210 HD
ENDBRANCH  19  32
BRANCH  21  34
ATOM     34  C61 GET d   1      76.027  87.853 123.701  0.00  0.00     0.059 C 
ATOM     35  H11 GET d   1      75.025  87.547 123.366  0.00  0.00     0.086 H 
BRANCH  34  36
ATOM     36  O61 GET d   1      76.432  87.027 124.846  0.00  0.00    -0.393 OA
ATOM     37  H12 GET d   1      75.812  87.146 125.556  0.00  0.00     0.210 HD
ENDBRANCH  34  36
BRANCH  34  38
ATOM     38  C71 GET d   1      75.989  89.334 124.143  0.00  0.00    -0.050 C 
ATOM     39  H13 GET d   1      75.273  89.452 124.970  0.00  0.00     0.031 H 
ATOM     40  H14 GET d   1      75.677  89.962 123.295  0.00  0.00     0.031 H 
ATOM     41  H15 GET d   1      76.990  89.642 124.478  0.00  0.00     0.031 H 
ENDBRANCH  34  38
ENDBRANCH  21  34
ENDBRANCH  14  15
ENDBRANCH   4  14
BRANCH   3  42
ATOM     42  N32 GET d   1      77.359  82.235 123.572  0.00  0.00    -0.072 N 
ATOM     43  H23 GET d   1      77.969  83.037 123.551  0.00  0.00     0.274 HD
ATOM     44  H24 GET d   1      77.802  81.489 124.085  0.00  0.00     0.274 HD
ATOM     45  H25 GET d   1      76.492  82.484 124.022  0.00  0.00     0.274 HD
ENDBRANCH   3  42
BRANCH   5  46
ATOM     46  O52 GET d   1      75.484  83.484 119.189  0.00  0.00    -0.390 OA
ATOM     47  H28 GET d   1      74.651  83.653 119.614  0.00  0.00     0.210 HD
ENDBRANCH   5  46
BRANCH   6  48
ATOM     48  O62 GET d   1      75.457  80.700 118.468  0.00  0.00    -0.349 OA
BRANCH  48  49
ATOM     49  C13 GET d   1      74.160  80.582 117.877  0.00  0.00     0.158 C 
ATOM     50  C23 GET d   1      73.888  79.161 117.314  0.00  0.00     0.113 C 
ATOM     51  C33 GET d   1      72.632  79.088 116.372  0.00  0.00     0.161 C 
ATOM     52  H31 GET d   1      73.729  78.477 118.160  0.00  0.00     0.094 H 
ATOM     53  C43 GET d   1      71.967  80.449 115.859  0.00  0.00     0.106 C 
ATOM     54  H33 GET d   1      72.951  78.546 115.470  0.00  0.00     0.093 H 
ATOM     55  C53 GET d   1      72.742  81.767 116.235  0.00  0.00     0.053 C 
ATOM     56  O53 GET d   1      74.071  81.532 116.790  0.00  0.00    -0.356 OA
ATOM     57  H43 GET d   1      72.148  82.318 116.979  0.00  0.00     0.079 H 
ATOM     58  H44 GET d   1      72.849  82.377 115.326  0.00  0.00     0.079 H 
ATOM     59  H30 GET d   1      73.399  80.815 118.637  0.00  0.00     0.133 H 
BRANCH  50  60
ATOM     60  O23 GET d   1      75.033  78.739 116.567  0.00  0.00    -0.388 OA
ATOM     61  H32 GET d   1      75.793  78.722 117.137  0.00  0.00     0.210 HD
ENDBRANCH  50  60
BRANCH  51  62
ATOM     62  N33 GET d   1      71.599  78.274 117.070  0.00  0.00    -0.069 N 
ATOM     63  H34 GET d   1      70.687  78.511 116.711  0.00  0.00     0.277 HD
ATOM     64  H35 GET d   1      71.632  78.468 118.059  0.00  0.00     0.277 HD
BRANCH  62  65
ATOM     65  C93 GET d   1      71.859  76.833 116.842  0.00  0.00     0.065 C 
ATOM     66  H36 GET d   1      71.094  76.236 117.359  0.00  0.00     0.067 H 
ATOM     67  H37 GET d   1      72.853  76.573 117.234  0.00  0.00     0.067 H 
ATOM     68  H38 GET d   1      71.823  76.620 115.763  0.00  0.00     0.067 H 
ENDBRANCH  62  65
ENDBRANCH  51  62
BRANCH  53  69
ATOM     69  O43 GET d   1      70.663  80.535 116.393  0.00  0.00    -0.386 OA
ATOM     70  H39 GET d   1      70.253  81.340 116.097  0.00  0.00     0.210 HD
ENDBRANCH  53  69
BRANCH  53  71
ATOM     71  C83 GET d   1      71.854  80.378 114.323  0.00  0.00    -0.044 C 
ATOM     72  H40 GET d   1      71.398  81.305 113.946  0.00  0.00     0.031 H 
ATOM     73  H41 GET d   1      71.226  79.520 114.041  0.00  0.00     0.031 H 
ATOM     74  H42 GET d   1      72.857  80.258 113.887  0.00  0.00     0.031 H 
ENDBRANCH  53  71
ENDBRANCH  48  49
ENDBRANCH   6  48
BRANCH   1  75
ATOM     75  N12 GET d   1      74.674  79.071 120.931  0.00  0.00    -0.072 N 
ATOM     76  H17 GET d   1      74.942  78.338 121.568  0.00  0.00     0.274 HD
ATOM     77  H18 GET d   1      74.476  78.674 120.026  0.00  0.00     0.274 HD
ATOM     78  H19 GET d   1      73.851  79.536 121.281  0.00  0.00     0.274 HD
ENDBRANCH   1  75
TORSDOF 18
