REMARK  22 active torsions:
REMARK  status: ('A' for Active; 'I' for Inactive)
REMARK    1  A    between atoms: C_1  and  CH3_3 
REMARK       I    between atoms: C_1  and  N_4 
REMARK    2  A    between atoms: N_4  and  CA_5 
REMARK    3  A    between atoms: CA_5  and  C_6 
REMARK    4  A    between atoms: CA_5  and  CB_8 
REMARK       I    between atoms: C_6  and  N_11 
REMARK    5  A    between atoms: CB_8  and  CG1_9 
REMARK    6  A    between atoms: CB_8  and  CG2_10 
REMARK    7  A    between atoms: N_11  and  CA_12 
REMARK    8  A    between atoms: CA_12  and  CB_13 
REMARK    9  A    between atoms: CA_12  and  C_19 
REMARK   10  A    between atoms: CB_13  and  CG1_14 
REMARK   11  A    between atoms: CB_13  and  CG2_15 
REMARK   12  A    between atoms: CB_13  and  CG3_16 
REMARK       I    between atoms: C_19  and  N_21 
REMARK   13  A    between atoms: N_21  and  CA_22 
REMARK   14  A    between atoms: CA_22  and  CB_23 
REMARK   15  A    between atoms: CA_22  and  C_29 
REMARK   16  A    between atoms: CB_23  and  CG_24 
REMARK       I    between atoms: CG_24  and  ND2_26 
REMARK   17  A    between atoms: ND2_26  and  CE1_27 
REMARK   18  A    between atoms: ND2_26  and  CE2_28 
REMARK       I    between atoms: C_29  and  N_31 
REMARK   19  A    between atoms: N_31  and  CA_32 
REMARK   20  A    between atoms: CA_32  and  C_33 
REMARK   21  A    between atoms: CA_32  and  CB_35 
REMARK   22  A    between atoms: C_33  and  O_34 
ROOT
ATOM      1  CA  DMK d   1      49.488  69.750  13.917  0.00  0.00     0.105 C 
ATOM      2  H14 DMK d   1      49.040  70.710  13.620  0.00  0.00     0.089 H 
ENDROOT
BRANCH   1   3
ATOM      3  N   DMK d   1      49.687  69.747  15.360  0.00  0.00    -0.345 N 
ATOM      4  C   VAL d   1      49.347  70.795  16.100  0.00  0.00     0.241 C 
ATOM      5  O   VAL d   1      48.888  71.832  15.619  0.00  0.00    -0.271 OA
ATOM      6  H13 DMK d   1      50.086  68.943  15.800  0.00  0.00     0.163 HD
BRANCH   4   7
ATOM      7  CA  VAL d   1      49.576  70.660  17.602  0.00  0.00     0.092 C 
ATOM      8  H5  VAL d   1      50.384  69.932  17.770  0.00  0.00     0.088 H 
BRANCH   7   9
ATOM      9  N   VAL d   1      49.974  71.928  18.200  0.00  0.00    -0.348 N 
ATOM     10  C   ACE d   1      50.919  71.988  19.132  0.00  0.00     0.214 C 
ATOM     11  O   ACE d   1      51.514  70.990  19.547  0.00  0.00    -0.274 OA
ATOM     12  H4  VAL d   1      49.526  72.771  17.902  0.00  0.00     0.163 HD
BRANCH  10  13
ATOM     13  CH3 ACE d   1      51.253  73.394  19.689  0.00  0.00    -0.003 C 
ATOM     14  H1  ACE d   1      50.618  74.144  19.195  0.00  0.00     0.040 H 
ATOM     15  H2  ACE d   1      52.311  73.624  19.495  0.00  0.00     0.040 H 
ATOM     16  H3  ACE d   1      51.066  73.413  20.773  0.00  0.00     0.040 H 
ENDBRANCH  10  13
ENDBRANCH   7   9
BRANCH   7  17
ATOM     17  CB  VAL d   1      48.286  70.128  18.257  0.00  0.00    -0.033 C 
ATOM     18  H6  VAL d   1      47.486  70.873  18.131  0.00  0.00     0.042 H 
BRANCH  17  19
ATOM     19  CG1 VAL d   1      47.860  68.831  17.597  0.00  0.00    -0.071 C 
ATOM     20  H7  VAL d   1      46.939  68.463  18.073  0.00  0.00     0.028 H 
ATOM     21  H8  VAL d   1      48.657  68.082  17.712  0.00  0.00     0.028 H 
ATOM     22  H9  VAL d   1      47.674  69.008  16.527  0.00  0.00     0.028 H 
ENDBRANCH  17  19
BRANCH  17  23
ATOM     23  CG2 VAL d   1      48.525  69.902  19.744  0.00  0.00    -0.071 C 
ATOM     24  H10 VAL d   1      48.833  70.848  20.214  0.00  0.00     0.028 H 
ATOM     25  H11 VAL d   1      49.317  69.151  19.878  0.00  0.00     0.028 H 
ATOM     26  H12 VAL d   1      47.597  69.544  20.214  0.00  0.00     0.028 H 
ENDBRANCH  17  23
ENDBRANCH   7  17
ENDBRANCH   4   7
ENDBRANCH   1   3
BRANCH   1  27
ATOM     27  CB  DMK d   1      50.829  69.593  13.189  0.00  0.00     0.070 C 
BRANCH  27  28
ATOM     28  CG1 DMK d   1      51.562  70.963  13.176  0.00  0.00     0.183 C 
ATOM     29  OD1 DMK d   1      51.777  71.618  12.152  0.00  0.00    -0.647 OA
ATOM     30  OD2 DMK d   1      51.950  71.577  14.175  0.00  0.00    -0.647 OA
ENDBRANCH  27  28
BRANCH  27  31
ATOM     31  CG2 DMK d   1      51.711  68.543  13.914  0.00  0.00    -0.058 C 
ATOM     32  H15 DMK d   1      52.669  68.439  13.383  0.00  0.00     0.029 H 
ATOM     33  H16 DMK d   1      51.192  67.573  13.926  0.00  0.00     0.029 H 
ATOM     34  H17 DMK d   1      51.898  68.872  14.947  0.00  0.00     0.029 H 
ENDBRANCH  27  31
BRANCH  27  35
ATOM     35  CG3 DMK d   1      50.589  69.148  11.723  0.00  0.00    -0.058 C 
ATOM     36  H18 DMK d   1      49.963  69.894  11.211  0.00  0.00     0.029 H 
ATOM     37  H19 DMK d   1      50.079  68.174  11.714  0.00  0.00     0.029 H 
ATOM     38  H20 DMK d   1      51.555  69.061  11.204  0.00  0.00     0.029 H 
ENDBRANCH  27  35
ENDBRANCH   1  27
BRANCH   1  39
ATOM     39  C   DMK d   1      48.524  68.622  13.551  0.00  0.00     0.242 C 
ATOM     40  O   DMK d   1      48.701  67.466  13.962  0.00  0.00    -0.271 OA
ATOM     41  N   DMH d   1      47.491  68.978  12.796  0.00  0.00    -0.346 N 
ATOM     42  H21 DMH d   1      47.403  69.932  12.510  0.00  0.00     0.163 HD
BRANCH  41  43
ATOM     43  CA  DMH d   1      46.485  68.017  12.375  0.00  0.00     0.097 C 
ATOM     44  H22 DMH d   1      46.632  67.087  12.944  0.00  0.00     0.088 H 
BRANCH  43  45
ATOM     45  CB  DMH d   1      45.089  68.562  12.674  0.00  0.00     0.036 C 
ATOM     46  H23 DMH d   1      44.343  67.858  12.277  0.00  0.00     0.051 H 
ATOM     47  H24 DMH d   1      44.976  69.536  12.175  0.00  0.00     0.051 H 
BRANCH  45  48
ATOM     48  CG  DMH d   1      44.840  68.747  14.168  0.00  0.00     0.221 C 
ATOM     49  OD1 DMH d   1      45.528  68.148  14.998  0.00  0.00    -0.273 OA
ATOM     50  ND2 DMH d   1      43.846  69.571  14.515  0.00  0.00    -0.361 N 
BRANCH  50  51
ATOM     51  CE1 DMH d   1      43.064  70.292  13.542  0.00  0.00    -0.017 C 
ATOM     52  H25 DMH d   1      42.309  70.903  14.058  0.00  0.00     0.056 H 
ATOM     53  H26 DMH d   1      42.562  69.578  12.873  0.00  0.00     0.056 H 
ATOM     54  H27 DMH d   1      43.724  70.945  12.953  0.00  0.00     0.056 H 
ENDBRANCH  50  51
BRANCH  50  55
ATOM     55  CE2 DMH d   1      43.497  69.754  15.902  0.00  0.00    -0.017 C 
ATOM     56  H28 DMH d   1      44.168  69.151  16.532  0.00  0.00     0.056 H 
ATOM     57  H29 DMH d   1      42.457  69.434  16.064  0.00  0.00     0.056 H 
ATOM     58  H30 DMH d   1      43.600  70.816  16.169  0.00  0.00     0.056 H 
ENDBRANCH  50  55
ENDBRANCH  45  48
ENDBRANCH  43  45
BRANCH  43  59
ATOM     59  C   DMH d   1      46.606  67.700  10.889  0.00  0.00     0.241 C 
ATOM     60  O   DMH d   1      46.600  68.605  10.052  0.00  0.00    -0.271 OA
ATOM     61  N   ALA d   1      46.716  66.412  10.565  0.00  0.00    -0.353 N 
ATOM     62  H31 ALA d   1      46.718  65.724  11.290  0.00  0.00     0.163 HD
BRANCH  61  63
ATOM     63  CA  ALA d   1      46.834  65.983   9.173  0.00  0.00     0.029 C 
ATOM     64  H32 ALA d   1      47.025  66.871   8.552  0.00  0.00     0.075 H 
BRANCH  63  65
ATOM     65  C   ALA d   1      45.532  65.309   8.674  0.00  0.00     0.035 C 
ATOM     66  H33 ALA d   1      44.813  66.079   8.357  0.00  0.00     0.077 H 
ATOM     67  H34 ALA d   1      45.092  64.707   9.482  0.00  0.00     0.077 H 
BRANCH  65  68
ATOM     68  O   ALA d   1      45.847  64.490   7.597  0.00  0.00    -0.399 OA
ATOM     69  H35 ALA d   1      46.470  63.829   7.875  0.00  0.00     0.209 HD
ENDBRANCH  65  68
ENDBRANCH  63  65
BRANCH  63  70
ATOM     70  CB  ALA d   1      47.992  65.030   9.021  0.00  0.00    -0.055 C 
ATOM     71  H36 ALA d   1      48.071  64.714   7.970  0.00  0.00     0.030 H 
ATOM     72  H37 ALA d   1      47.827  64.148   9.658  0.00  0.00     0.030 H 
ATOM     73  H38 ALA d   1      48.922  65.532   9.324  0.00  0.00     0.030 H 
ENDBRANCH  63  70
ENDBRANCH  61  63
ENDBRANCH  43  59
ENDBRANCH  41  43
ENDBRANCH   1  39
TORSDOF 22
