REMARK WARNING: 32 MAX_TORS EXCEEDED!!!
REMARK  33 active torsions:
REMARK  status: ('A' for Active; 'I' for Inactive)
REMARK    1  A    between atoms: CA_1  and  C_2 
REMARK    2  A    between atoms: CA_1  and  CB_4 
REMARK       I    between atoms: C_2  and  N_9 
REMARK    3  A    between atoms: CB_4  and  CG_5 
REMARK    4  A    between atoms: CG_5  and  CD_6 
REMARK    5  A    between atoms: CD_6  and  CE_7 
REMARK    6  A    between atoms: CE_7  and  NZ_8 
REMARK    7  A    between atoms: N_9  and  CA_10 
REMARK    8  A    between atoms: CA_10  and  CB_11 
REMARK    9  A    between atoms: CA_10  and  C_15 
REMARK   10  A    between atoms: CB_11  and  CG1_12 
REMARK   11  A    between atoms: CB_11  and  CG2_13 
REMARK   12  A    between atoms: CB_11  and  CG3_14 
REMARK       I    between atoms: C_15  and  N_17 
REMARK   13  A    between atoms: N_17  and  CA_18 
REMARK   14  A    between atoms: CA_18  and  CB_19 
REMARK   15  A    between atoms: CA_18  and  C_23 
REMARK   16  A    between atoms: CB_19  and  CG1_20 
REMARK   17  A    between atoms: CB_19  and  CG2_21 
REMARK   18  A    between atoms: CB_19  and  CG3_22 
REMARK       I    between atoms: C_23  and  N_25 
REMARK   19  A    between atoms: N_25  and  CA_26 
REMARK   20  A    between atoms: CA_26  and  CB_27 
REMARK   21  A    between atoms: CA_26  and  C_33 
REMARK   22  A    between atoms: CB_27  and  CG_28 
REMARK       I    between atoms: CG_28  and  ND2_30 
REMARK   23  A    between atoms: ND2_30  and  CE1_31 
REMARK   24  A    between atoms: ND2_30  and  CE2_32 
REMARK       I    between atoms: C_33  and  N_35 
REMARK   25  A    between atoms: N_35  and  CA_36 
REMARK   26  A    between atoms: CA_36  and  C_37 
REMARK   27  A    between atoms: CA_36  and  CB_39 
REMARK   28  A    between atoms: C_37  and  O_38 
REMARK   29  A    between atoms: C_37  and  C1_40 
REMARK       I    between atoms: C1_40  and  N2_42 
REMARK   30  A    between atoms: N2_42  and  C3_43 
REMARK   31  A    between atoms: C3_43  and  C31_44 
REMARK   32  A    between atoms: C3_43  and  C4_46 
REMARK   33  A    between atoms: C31_44  and  C32_45 
ROOT
ATOM      1  C   0FP d   1       4.176  68.645 -13.168  0.00  0.00     0.241 C 
ATOM      2  O   0FP d   1       3.993  67.481 -13.527  0.00  0.00    -0.271 OA
ATOM      3  N   0FP d   1       5.200  69.012 -12.407  0.00  0.00    -0.346 N 
ATOM      4  H36 0FP d   1       5.291  69.972 -12.143  0.00  0.00     0.163 HD
ENDROOT
BRANCH   1   5
ATOM      5  CA  0FP d   1       3.220  69.755 -13.586  0.00  0.00     0.095 C 
ATOM      6  H26 0FP d   1       3.619  70.720 -13.241  0.00  0.00     0.088 H 
BRANCH   5   7
ATOM      7  N   0FP d   1       3.096  69.799 -15.041  0.00  0.00    -0.345 N 
ATOM      8  C   0FP d   1       3.422  70.886 -15.738  0.00  0.00     0.241 C 
ATOM      9  O   0FP d   1       3.826  71.922 -15.212  0.00  0.00    -0.271 OA
ATOM     10  H25 0FP d   1       2.758  68.993 -15.526  0.00  0.00     0.163 HD
BRANCH   8  11
ATOM     11  CA  0FP d   1       3.258  70.793 -17.252  0.00  0.00     0.095 C 
ATOM     12  H15 0FP d   1       2.517  70.008 -17.464  0.00  0.00     0.088 H 
BRANCH  11  13
ATOM     13  N   0FP d   1       2.769  72.035 -17.836  0.00  0.00    -0.347 N 
ATOM     14  C   0FP d   1       1.651  72.056 -18.552  0.00  0.00     0.218 C 
ATOM     15  O   0FP d   1       0.967  71.046 -18.751  0.00  0.00    -0.274 OA
ATOM     16  H14 0FP d   1       3.282  72.882 -17.696  0.00  0.00     0.163 HD
BRANCH  14  17
ATOM     17  CA  0FP d   1       1.237  73.400 -19.138  0.00  0.00     0.009 C 
ATOM     18  H1  0FP d   1       0.260  73.285 -19.630  0.00  0.00     0.047 H 
ATOM     19  H2  0FP d   1       1.988  73.709 -19.880  0.00  0.00     0.047 H 
BRANCH  17  20
ATOM     20  CB  0FP d   1       1.125  74.487 -18.071  0.00  0.00    -0.057 C 
ATOM     21  H3  0FP d   1       2.133  74.745 -17.714  0.00  0.00     0.033 H 
ATOM     22  H4  0FP d   1       0.525  74.106 -17.232  0.00  0.00     0.033 H 
BRANCH  20  23
ATOM     23  CG  0FP d   1       0.454  75.749 -18.637  0.00  0.00    -0.063 C 
ATOM     24  H5  0FP d   1       0.770  76.623 -18.049  0.00  0.00     0.033 H 
ATOM     25  H6  0FP d   1      -0.639  75.639 -18.573  0.00  0.00     0.033 H 
BRANCH  23  26
ATOM     26  CD  0FP d   1       0.857  75.954 -20.105  0.00  0.00    -0.043 C 
ATOM     27  H7  0FP d   1       0.713  75.006 -20.644  0.00  0.00     0.035 H 
ATOM     28  H8  0FP d   1       1.919  76.238 -20.140  0.00  0.00     0.035 H 
BRANCH  26  29
ATOM     29  CE  0FP d   1       0.044  77.034 -20.800  0.00  0.00     0.080 C 
ATOM     30  H9  0FP d   1       0.212  77.996 -20.293  0.00  0.00     0.075 H 
ATOM     31  H10 0FP d   1      -1.023  76.774 -20.747  0.00  0.00     0.075 H 
BRANCH  29  32
ATOM     32  NZ  0FP d   1       0.451  77.157 -22.241  0.00  0.00    -0.079 N 
ATOM     33  H11 0FP d   1      -0.098  77.877 -22.685  0.00  0.00     0.274 HD
ATOM     34  H12 0FP d   1       0.296  76.278 -22.710  0.00  0.00     0.274 HD
ATOM     35  H13 0FP d   1       1.428  77.398 -22.295  0.00  0.00     0.274 HD
ENDBRANCH  29  32
ENDBRANCH  26  29
ENDBRANCH  23  26
ENDBRANCH  20  23
ENDBRANCH  17  20
ENDBRANCH  14  17
ENDBRANCH  11  13
BRANCH  11  36
ATOM     36  CB  0FP d   1       4.611  70.377 -17.906  0.00  0.00    -0.022 C 
BRANCH  36  37
ATOM     37  CG1 0FP d   1       5.585  71.545 -17.874  0.00  0.00    -0.067 C 
ATOM     38  H16 0FP d   1       6.536  71.242 -18.337  0.00  0.00     0.028 H 
ATOM     39  H17 0FP d   1       5.764  71.844 -16.831  0.00  0.00     0.028 H 
ATOM     40  H18 0FP d   1       5.159  72.393 -18.431  0.00  0.00     0.028 H 
ENDBRANCH  36  37
BRANCH  36  41
ATOM     41  CG2 0FP d   1       5.212  69.193 -17.149  0.00  0.00    -0.067 C 
ATOM     42  H19 0FP d   1       4.508  68.348 -17.172  0.00  0.00     0.028 H 
ATOM     43  H20 0FP d   1       5.402  69.484 -16.105  0.00  0.00     0.028 H 
ATOM     44  H21 0FP d   1       6.158  68.895 -17.625  0.00  0.00     0.028 H 
ENDBRANCH  36  41
BRANCH  36  45
ATOM     45  CG3 0FP d   1       4.376  69.976 -19.356  0.00  0.00    -0.067 C 
ATOM     46  H22 0FP d   1       3.943  70.825 -19.906  0.00  0.00     0.028 H 
ATOM     47  H23 0FP d   1       3.682  69.123 -19.393  0.00  0.00     0.028 H 
ATOM     48  H24 0FP d   1       5.333  69.690 -19.817  0.00  0.00     0.028 H 
ENDBRANCH  36  45
ENDBRANCH  11  36
ENDBRANCH   8  11
ENDBRANCH   5   7
BRANCH   5  49
ATOM     49  CB  0FP d   1       1.862  69.513 -12.913  0.00  0.00    -0.022 C 
BRANCH  49  50
ATOM     50  CG1 0FP d   1       1.357  68.128 -13.252  0.00  0.00    -0.067 C 
ATOM     51  H27 0FP d   1       0.384  67.963 -12.766  0.00  0.00     0.028 H 
ATOM     52  H28 0FP d   1       2.077  67.377 -12.894  0.00  0.00     0.028 H 
ATOM     53  H29 0FP d   1       1.242  68.036 -14.342  0.00  0.00     0.028 H 
ENDBRANCH  49  50
BRANCH  49  54
ATOM     54  CG2 0FP d   1       2.011  69.651 -11.417  0.00  0.00    -0.067 C 
ATOM     55  H30 0FP d   1       2.378  70.660 -11.177  0.00  0.00     0.028 H 
ATOM     56  H31 0FP d   1       2.728  68.902 -11.049  0.00  0.00     0.028 H 
ATOM     57  H32 0FP d   1       1.035  69.492 -10.935  0.00  0.00     0.028 H 
ENDBRANCH  49  54
BRANCH  49  58
ATOM     58  CG3 0FP d   1       0.870  70.534 -13.396  0.00  0.00    -0.067 C 
ATOM     59  H33 0FP d   1       0.752  70.444 -14.486  0.00  0.00     0.028 H 
ATOM     60  H34 0FP d   1       1.232  71.543 -13.149  0.00  0.00     0.028 H 
ATOM     61  H35 0FP d   1      -0.100  70.362 -12.907  0.00  0.00     0.028 H 
ENDBRANCH  49  58
ENDBRANCH   5  49
ENDBRANCH   1   5
BRANCH   3  62
ATOM     62  CA  0FP d   1       6.194  68.053 -11.946  0.00  0.00     0.097 C 
ATOM     63  H37 0FP d   1       6.019  67.104 -12.475  0.00  0.00     0.088 H 
BRANCH  62  64
ATOM     64  CB  0FP d   1       7.600  68.553 -12.288  0.00  0.00     0.036 C 
ATOM     65  H38 0FP d   1       8.336  67.840 -11.888  0.00  0.00     0.051 H 
ATOM     66  H39 0FP d   1       7.750  69.536 -11.818  0.00  0.00     0.051 H 
BRANCH  64  67
ATOM     67  CG  0FP d   1       7.816  68.689 -13.781  0.00  0.00     0.221 C 
ATOM     68  OD1 0FP d   1       7.019  68.177 -14.576  0.00  0.00    -0.273 OA
ATOM     69  ND2 0FP d   1       8.906  69.367 -14.178  0.00  0.00    -0.361 N 
BRANCH  69  70
ATOM     70  CE1 0FP d   1       9.879  69.972 -13.312  0.00  0.00    -0.017 C 
ATOM     71  H40 0FP d   1      10.658  70.457 -13.918  0.00  0.00     0.056 H 
ATOM     72  H41 0FP d   1      10.336  69.199 -12.677  0.00  0.00     0.056 H 
ATOM     73  H42 0FP d   1       9.388  70.724 -12.677  0.00  0.00     0.056 H 
ENDBRANCH  69  70
BRANCH  69  74
ATOM     74  CE2 0FP d   1       9.179  69.537 -15.562  0.00  0.00    -0.017 C 
ATOM     75  H43 0FP d   1       8.392  69.047 -16.154  0.00  0.00     0.056 H 
ATOM     76  H44 0FP d   1      10.153  69.085 -15.802  0.00  0.00     0.056 H 
ATOM     77  H45 0FP d   1       9.204  70.610 -15.802  0.00  0.00     0.056 H 
ENDBRANCH  69  74
ENDBRANCH  64  67
ENDBRANCH  62  64
BRANCH  62  78
ATOM     78  C   0FP d   1       6.110  67.782 -10.450  0.00  0.00     0.241 C 
ATOM     79  O   0FP d   1       6.001  68.707  -9.642  0.00  0.00    -0.271 OA
ATOM     80  N   0FP d   1       6.164  66.501 -10.089  0.00  0.00    -0.352 N 
ATOM     81  H46 0FP d   1       6.239  65.801 -10.799  0.00  0.00     0.163 HD
BRANCH  80  82
ATOM     82  CA  0FP d   1       6.117  66.086  -8.691  0.00  0.00     0.042 C 
ATOM     83  H47 0FP d   1       6.025  66.980  -8.056  0.00  0.00     0.076 H 
BRANCH  82  84
ATOM     84  C   0FP d   1       7.416  65.331  -8.307  0.00  0.00     0.131 C 
ATOM     85  H48 0FP d   1       7.734  64.706  -9.154  0.00  0.00     0.101 H 
BRANCH  84  86
ATOM     86  O   0FP d   1       7.133  64.517  -7.212  0.00  0.00    -0.384 OA
ATOM     87  H49 0FP d   1       6.451  63.899  -7.446  0.00  0.00     0.210 HD
ENDBRANCH  84  86
BRANCH  84  88
ATOM     88  C1  0FP d   1       8.572  66.330  -7.956  0.00  0.00     0.249 C 
ATOM     89  O1  0FP d   1       8.861  67.268  -8.722  0.00  0.00    -0.271 OA
ATOM     90  N2  0FP d   1       9.230  66.120  -6.809  0.00  0.00    -0.350 N 
ATOM     91  H53 0FP d   1       8.951  65.340  -6.249  0.00  0.00     0.163 HD
BRANCH  90  92
ATOM     92  C3  0FP d   1      10.334  66.955  -6.315  0.00  0.00     0.037 C 
ATOM     93  H54 0FP d   1      10.630  67.649  -7.115  0.00  0.00     0.080 H 
BRANCH  92  94
ATOM     94  C31 0FP d   1      11.555  66.104  -5.921  0.00  0.00    -0.046 C 
ATOM     95  H55 0FP d   1      12.123  65.855  -6.830  0.00  0.00     0.035 H 
ATOM     96  H56 0FP d   1      11.203  65.178  -5.443  0.00  0.00     0.035 H 
BRANCH  94  97
ATOM     97  C32 0FP d   1      12.480  66.845  -4.946  0.00  0.00    -0.074 C 
ATOM     98  H57 0FP d   1      13.336  66.202  -4.692  0.00  0.00     0.027 H 
ATOM     99  H58 0FP d   1      11.924  67.093  -4.030  0.00  0.00     0.027 H 
ATOM    100  H59 0FP d   1      12.843  67.770  -5.417  0.00  0.00     0.027 H 
ENDBRANCH  94  97
ENDBRANCH  92  94
BRANCH  92 101
ATOM    101  C4  0FP d   1       9.892  67.753  -5.110  0.00  0.00    -0.035 A 
ATOM    102  C5  0FP d   1       9.886  69.139  -5.145  0.00  0.00    -0.075 A 
ATOM    103  C6  0FP d   1       9.500  69.883  -4.027  0.00  0.00    -0.082 A 
ATOM    104  H60 0FP d   1      10.185  69.652  -6.052  0.00  0.00     0.084 H 
ATOM    105  C7  0FP d   1       9.114  69.234  -2.860  0.00  0.00    -0.083 A 
ATOM    106  H61 0FP d   1       9.502  70.966  -4.070  0.00  0.00     0.083 H 
ATOM    107  C8  0FP d   1       9.115  67.853  -2.813  0.00  0.00    -0.082 A 
ATOM    108  H62 0FP d   1       8.814  69.808  -1.991  0.00  0.00     0.083 H 
ATOM    109  C9  0FP d   1       9.502  67.118  -3.935  0.00  0.00    -0.075 A 
ATOM    110  H63 0FP d   1       8.816  67.341  -1.906  0.00  0.00     0.083 H 
ATOM    111  H64 0FP d   1       9.499  66.035  -3.890  0.00  0.00     0.084 H 
ENDBRANCH  92 101
ENDBRANCH  90  92
ENDBRANCH  84  88
ENDBRANCH  82  84
BRANCH  82 112
ATOM    112  CB  0FP d   1       4.912  65.193  -8.465  0.00  0.00    -0.054 C 
ATOM    113  H50 0FP d   1       4.879  64.882  -7.410  0.00  0.00     0.030 H 
ATOM    114  H51 0FP d   1       4.989  64.304  -9.108  0.00  0.00     0.030 H 
ATOM    115  H52 0FP d   1       3.994  65.746  -8.713  0.00  0.00     0.030 H 
ENDBRANCH  82 112
ENDBRANCH  80  82
ENDBRANCH  62  78
ENDBRANCH   3  62
TORSDOF 33
