REMARK WARNING: 32 MAX_TORS EXCEEDED!!!
REMARK  33 active torsions:
REMARK  status: ('A' for Active; 'I' for Inactive)
REMARK    1  A    between atoms: CA_1  and  C_2 
REMARK    2  A    between atoms: CA_1  and  CB_4 
REMARK       I    between atoms: C_2  and  N_9 
REMARK    3  A    between atoms: CB_4  and  CG_5 
REMARK    4  A    between atoms: CG_5  and  CD_6 
REMARK    5  A    between atoms: CD_6  and  CE_7 
REMARK    6  A    between atoms: CE_7  and  NZ_8 
REMARK    7  A    between atoms: N_9  and  CA_10 
REMARK    8  A    between atoms: CA_10  and  CB_11 
REMARK    9  A    between atoms: CA_10  and  C_15 
REMARK   10  A    between atoms: CB_11  and  CG1_12 
REMARK   11  A    between atoms: CB_11  and  CG2_13 
REMARK   12  A    between atoms: CB_11  and  CG3_14 
REMARK       I    between atoms: C_15  and  N_17 
REMARK   13  A    between atoms: N_17  and  CA_18 
REMARK   14  A    between atoms: CA_18  and  CB_19 
REMARK   15  A    between atoms: CA_18  and  C_23 
REMARK   16  A    between atoms: CB_19  and  CG1_20 
REMARK   17  A    between atoms: CB_19  and  CG2_21 
REMARK   18  A    between atoms: CB_19  and  CG3_22 
REMARK       I    between atoms: C_23  and  N_25 
REMARK   19  A    between atoms: N_25  and  CA_26 
REMARK   20  A    between atoms: CA_26  and  CB_27 
REMARK   21  A    between atoms: CA_26  and  C_33 
REMARK   22  A    between atoms: CB_27  and  CG_28 
REMARK       I    between atoms: CG_28  and  ND2_30 
REMARK   23  A    between atoms: ND2_30  and  CE1_31 
REMARK   24  A    between atoms: ND2_30  and  CE2_32 
REMARK       I    between atoms: C_33  and  N_35 
REMARK   25  A    between atoms: N_35  and  CA_36 
REMARK   26  A    between atoms: CA_36  and  C_37 
REMARK   27  A    between atoms: CA_36  and  CB_39 
REMARK   28  A    between atoms: C_37  and  O_38 
REMARK   29  A    between atoms: C_37  and  C1_40 
REMARK       I    between atoms: C1_40  and  N2_42 
REMARK   30  A    between atoms: N2_42  and  C3_43 
REMARK   31  A    between atoms: C3_43  and  C31_44 
REMARK   32  A    between atoms: C3_43  and  C4_46 
REMARK   33  A    between atoms: C31_44  and  C32_45 
ROOT
ATOM      1  C   0FP d   1      57.876   6.073  28.743  0.00  0.00     0.241 C 
ATOM      2  O   0FP d   1      58.203   5.736  27.598  0.00  0.00    -0.271 OA
ATOM      3  N   0FP d   1      56.649   5.908  29.230  0.00  0.00    -0.346 N 
ATOM      4  H36 0FP d   1      56.455   6.194  30.168  0.00  0.00     0.163 HD
ENDROOT
BRANCH   1   5
ATOM      5  CA  0FP d   1      58.894   6.699  29.704  0.00  0.00     0.095 C 
ATOM      6  H26 0FP d   1      58.444   6.731  30.707  0.00  0.00     0.088 H 
BRANCH   5   7
ATOM      7  N   0FP d   1      60.098   5.879  29.775  0.00  0.00    -0.345 N 
ATOM      8  C   0FP d   1      60.669   5.596  30.939  0.00  0.00     0.241 C 
ATOM      9  O   0FP d   1      60.249   6.017  32.020  0.00  0.00    -0.271 OA
ATOM     10  H25 0FP d   1      60.501   5.524  28.931  0.00  0.00     0.163 HD
BRANCH   8  11
ATOM     11  CA  0FP d   1      61.904   4.718  30.879  0.00  0.00     0.095 C 
ATOM     12  H15 0FP d   1      62.456   4.918  29.949  0.00  0.00     0.088 H 
BRANCH  11  13
ATOM     13  N   0FP d   1      62.752   5.034  32.015  0.00  0.00    -0.347 N 
ATOM     14  C   0FP d   1      64.058   5.207  31.872  0.00  0.00     0.218 C 
ATOM     15  O   0FP d   1      64.636   5.107  30.783  0.00  0.00    -0.274 OA
ATOM     16  H14 0FP d   1      62.342   5.123  32.923  0.00  0.00     0.163 HD
BRANCH  14  17
ATOM     17  CA  0FP d   1      64.823   5.539  33.151  0.00  0.00     0.009 C 
ATOM     18  H1  0FP d   1      65.027   6.620  33.181  0.00  0.00     0.047 H 
ATOM     19  H2  0FP d   1      65.774   4.986  33.158  0.00  0.00     0.047 H 
BRANCH  17  20
ATOM     20  CB  0FP d   1      63.998   5.145  34.388  0.00  0.00    -0.057 C 
ATOM     21  H3  0FP d   1      63.783   4.068  34.335  0.00  0.00     0.033 H 
ATOM     22  H4  0FP d   1      63.054   5.709  34.371  0.00  0.00     0.033 H 
BRANCH  20  23
ATOM     23  CG  0FP d   1      64.713   5.433  35.716  0.00  0.00    -0.063 C 
ATOM     24  H5  0FP d   1      64.816   6.522  35.828  0.00  0.00     0.033 H 
ATOM     25  H6  0FP d   1      65.711   4.972  35.683  0.00  0.00     0.033 H 
BRANCH  23  26
ATOM     26  CD  0FP d   1      63.969   4.889  36.930  0.00  0.00    -0.043 C 
ATOM     27  H7  0FP d   1      63.686   3.843  36.742  0.00  0.00     0.035 H 
ATOM     28  H8  0FP d   1      63.063   5.490  37.099  0.00  0.00     0.035 H 
BRANCH  26  29
ATOM     29  CE  0FP d   1      64.855   4.955  38.173  0.00  0.00     0.080 C 
ATOM     30  H9  0FP d   1      64.320   4.490  39.015  0.00  0.00     0.075 H 
ATOM     31  H10 0FP d   1      65.060   6.010  38.407  0.00  0.00     0.075 H 
BRANCH  29  32
ATOM     32  NZ  0FP d   1      66.158   4.242  37.976  0.00  0.00    -0.079 N 
ATOM     33  H11 0FP d   1      66.709   4.310  38.817  0.00  0.00     0.274 HD
ATOM     34  H12 0FP d   1      66.660   4.664  37.211  0.00  0.00     0.274 HD
ATOM     35  H13 0FP d   1      65.982   3.272  37.768  0.00  0.00     0.274 HD
ENDBRANCH  29  32
ENDBRANCH  26  29
ENDBRANCH  23  26
ENDBRANCH  20  23
ENDBRANCH  17  20
ENDBRANCH  14  17
ENDBRANCH  11  13
BRANCH  11  36
ATOM     36  CB  0FP d   1      61.461   3.227  30.897  0.00  0.00    -0.022 C 
BRANCH  36  37
ATOM     37  CG1 0FP d   1      60.449   2.993  32.026  0.00  0.00    -0.067 C 
ATOM     38  H16 0FP d   1      60.142   1.937  32.030  0.00  0.00     0.028 H 
ATOM     39  H17 0FP d   1      59.567   3.630  31.866  0.00  0.00     0.028 H 
ATOM     40  H18 0FP d   1      60.912   3.244  32.992  0.00  0.00     0.028 H 
ENDBRANCH  36  37
BRANCH  36  41
ATOM     41  CG2 0FP d   1      60.830   2.864  29.548  0.00  0.00    -0.067 C 
ATOM     42  H19 0FP d   1      61.561   3.034  28.744  0.00  0.00     0.028 H 
ATOM     43  H20 0FP d   1      59.944   3.492  29.377  0.00  0.00     0.028 H 
ATOM     44  H21 0FP d   1      60.533   1.805  29.555  0.00  0.00     0.028 H 
ENDBRANCH  36  41
BRANCH  36  45
ATOM     45  CG3 0FP d   1      62.679   2.338  31.144  0.00  0.00    -0.067 C 
ATOM     46  H22 0FP d   1      63.132   2.598  32.112  0.00  0.00     0.028 H 
ATOM     47  H23 0FP d   1      63.415   2.493  30.341  0.00  0.00     0.028 H 
ATOM     48  H24 0FP d   1      62.367   1.283  31.157  0.00  0.00     0.028 H 
ENDBRANCH  36  45
ENDBRANCH  11  36
ENDBRANCH   8  11
ENDBRANCH   5   7
BRANCH   5  49
ATOM     49  CB  0FP d   1      59.228   8.172  29.276  0.00  0.00    -0.022 C 
BRANCH  49  50
ATOM     50  CG1 0FP d   1      60.106   8.166  28.013  0.00  0.00    -0.067 C 
ATOM     51  H27 0FP d   1      60.335   9.201  27.721  0.00  0.00     0.028 H 
ATOM     52  H28 0FP d   1      59.568   7.664  27.195  0.00  0.00     0.028 H 
ATOM     53  H29 0FP d   1      61.043   7.628  28.220  0.00  0.00     0.028 H 
ENDBRANCH  49  50
BRANCH  49  54
ATOM     54  CG2 0FP d   1      57.931   8.938  28.993  0.00  0.00    -0.067 C 
ATOM     55  H30 0FP d   1      57.303   8.942  29.896  0.00  0.00     0.028 H 
ATOM     56  H31 0FP d   1      57.388   8.448  28.171  0.00  0.00     0.028 H 
ATOM     57  H32 0FP d   1      58.171   9.973  28.709  0.00  0.00     0.028 H 
ENDBRANCH  49  54
BRANCH  49  58
ATOM     58  CG3 0FP d   1      59.967   8.879  30.413  0.00  0.00    -0.067 C 
ATOM     59  H33 0FP d   1      60.903   8.343  30.631  0.00  0.00     0.028 H 
ATOM     60  H34 0FP d   1      59.333   8.890  31.312  0.00  0.00     0.028 H 
ATOM     61  H35 0FP d   1      60.197   9.912  30.114  0.00  0.00     0.028 H 
ENDBRANCH  49  58
ENDBRANCH   5  49
ENDBRANCH   1   5
BRANCH   3  62
ATOM     62  CA  0FP d   1      55.582   5.322  28.432  0.00  0.00     0.097 C 
ATOM     63  H37 0FP d   1      56.020   4.994  27.478  0.00  0.00     0.088 H 
BRANCH  62  64
ATOM     64  CB  0FP d   1      54.976   4.106  29.141  0.00  0.00     0.036 C 
ATOM     65  H38 0FP d   1      54.116   3.752  28.554  0.00  0.00     0.051 H 
ATOM     66  H39 0FP d   1      54.635   4.418  30.139  0.00  0.00     0.051 H 
BRANCH  64  67
ATOM     67  CG  0FP d   1      55.955   2.957  29.303  0.00  0.00     0.221 C 
ATOM     68  OD1 0FP d   1      56.939   2.841  28.562  0.00  0.00    -0.273 OA
ATOM     69  ND2 0FP d   1      55.669   2.074  30.266  0.00  0.00    -0.361 N 
BRANCH  69  70
ATOM     70  CE1 0FP d   1      54.505   2.191  31.122  0.00  0.00    -0.017 C 
ATOM     71  H40 0FP d   1      54.486   1.351  31.831  0.00  0.00     0.056 H 
ATOM     72  H41 0FP d   1      53.594   2.172  30.506  0.00  0.00     0.056 H 
ATOM     73  H42 0FP d   1      54.552   3.139  31.678  0.00  0.00     0.056 H 
ENDBRANCH  69  70
BRANCH  69  74
ATOM     74  CE2 0FP d   1      56.536   0.931  30.458  0.00  0.00    -0.017 C 
ATOM     75  H43 0FP d   1      57.370   0.979  29.742  0.00  0.00     0.056 H 
ATOM     76  H44 0FP d   1      55.964   0.006  30.294  0.00  0.00     0.056 H 
ATOM     77  H45 0FP d   1      56.933   0.940  31.484  0.00  0.00     0.056 H 
ENDBRANCH  69  74
ENDBRANCH  64  67
ENDBRANCH  62  64
BRANCH  62  78
ATOM     78  C   0FP d   1      54.448   6.296  28.127  0.00  0.00     0.241 C 
ATOM     79  O   0FP d   1      53.858   6.888  29.031  0.00  0.00    -0.271 OA
ATOM     80  N   0FP d   1      54.141   6.447  26.844  0.00  0.00    -0.352 N 
ATOM     81  H46 0FP d   1      54.672   5.953  26.156  0.00  0.00     0.163 HD
BRANCH  80  82
ATOM     82  CA  0FP d   1      53.049   7.314  26.410  0.00  0.00     0.042 C 
ATOM     83  H47 0FP d   1      52.652   7.861  27.278  0.00  0.00     0.076 H 
BRANCH  82  84
ATOM     84  C   0FP d   1      51.951   6.465  25.800  0.00  0.00     0.131 C 
ATOM     85  H48 0FP d   1      52.397   5.672  25.181  0.00  0.00     0.101 H 
BRANCH  84  86
ATOM     86  O   0FP d   1      51.162   7.277  25.006  0.00  0.00    -0.384 OA
ATOM     87  H49 0FP d   1      51.695   7.662  24.320  0.00  0.00     0.210 HD
ENDBRANCH  84  86
BRANCH  84  88
ATOM     88  C1  0FP d   1      51.116   5.818  26.930  0.00  0.00     0.249 C 
ATOM     89  O1  0FP d   1      51.663   5.409  27.964  0.00  0.00    -0.271 OA
ATOM     90  N2  0FP d   1      49.801   5.732  26.742  0.00  0.00    -0.350 N 
ATOM     91  H53 0FP d   1      49.422   6.091  25.889  0.00  0.00     0.163 HD
BRANCH  90  92
ATOM     92  C3  0FP d   1      48.876   5.140  27.716  0.00  0.00     0.037 C 
ATOM     93  H54 0FP d   1      49.466   4.538  28.423  0.00  0.00     0.080 H 
BRANCH  92  94
ATOM     94  C31 0FP d   1      47.841   4.232  27.049  0.00  0.00    -0.046 C 
ATOM     95  H55 0FP d   1      48.357   3.524  26.383  0.00  0.00     0.035 H 
ATOM     96  H56 0FP d   1      47.145   4.848  26.461  0.00  0.00     0.035 H 
BRANCH  94  97
ATOM     97  C32 0FP d   1      47.054   3.450  28.100  0.00  0.00    -0.074 C 
ATOM     98  H57 0FP d   1      46.316   2.804  27.601  0.00  0.00     0.027 H 
ATOM     99  H58 0FP d   1      46.534   4.153  28.767  0.00  0.00     0.027 H 
ATOM    100  H59 0FP d   1      47.745   2.829  28.689  0.00  0.00     0.027 H 
ENDBRANCH  94  97
ENDBRANCH  92  94
BRANCH  92 101
ATOM    101  C4  0FP d   1      48.140   6.209  28.486  0.00  0.00    -0.035 A 
ATOM    102  C5  0FP d   1      48.520   6.528  29.793  0.00  0.00    -0.075 A 
ATOM    103  C6  0FP d   1      47.810   7.479  30.543  0.00  0.00    -0.082 A 
ATOM    104  H60 0FP d   1      49.377   6.033  30.235  0.00  0.00     0.084 H 
ATOM    105  C7  0FP d   1      46.709   8.120  29.978  0.00  0.00    -0.083 A 
ATOM    106  H61 0FP d   1      48.117   7.713  31.556  0.00  0.00     0.083 H 
ATOM    107  C8  0FP d   1      46.322   7.810  28.668  0.00  0.00    -0.082 A 
ATOM    108  H62 0FP d   1      46.155   8.855  30.550  0.00  0.00     0.083 H 
ATOM    109  C9  0FP d   1      47.039   6.860  27.932  0.00  0.00    -0.075 A 
ATOM    110  H63 0FP d   1      45.467   8.306  28.224  0.00  0.00     0.083 H 
ATOM    111  H64 0FP d   1      46.734   6.627  26.918  0.00  0.00     0.084 H 
ENDBRANCH  92 101
ENDBRANCH  90  92
ENDBRANCH  84  88
ENDBRANCH  82  84
BRANCH  82 112
ATOM    112  CB  0FP d   1      53.543   8.307  25.376  0.00  0.00    -0.054 C 
ATOM    113  H50 0FP d   1      52.710   8.952  25.060  0.00  0.00     0.030 H 
ATOM    114  H51 0FP d   1      53.937   7.763  24.505  0.00  0.00     0.030 H 
ATOM    115  H52 0FP d   1      54.340   8.926  25.814  0.00  0.00     0.030 H 
ENDBRANCH  82 112
ENDBRANCH  80  82
ENDBRANCH  62  78
ENDBRANCH   3  62
TORSDOF 33
