REMARK  7 active torsions:
REMARK  status: ('A' for Active; 'I' for Inactive)
REMARK    1  A    between atoms: N2_2  and  C8_1 
REMARK    2  A    between atoms: C8_1  and  C11_28 
REMARK    3  A    between atoms: N2_2  and  C40_3 
REMARK    4  A    between atoms: C18_35  and  N2_2 
REMARK    5  A    between atoms: C46_7  and  C51_9 
REMARK    6  A    between atoms: C12_23  and  C18_35 
REMARK    7  A    between atoms: N4_24  and  C15_26 
ROOT
ATOM      1  C40 FTL d   1      50.698  48.023  -0.774  0.00  0.00     0.031 A 
ATOM      2  C43 FTL d   1      50.769  46.801  -0.058  0.00  0.00    -0.056 A 
ATOM      3  C44 FTL d   1      51.868  46.522   0.779  0.00  0.00    -0.060 A 
ATOM      4  C45 FTL d   1      52.902  47.474   0.909  0.00  0.00     0.055 A 
ATOM      5  C46 FTL d   1      52.851  48.690   0.213  0.00  0.00    -0.002 A 
ATOM      6  C47 FTL d   1      51.745  48.956  -0.625  0.00  0.00    -0.045 A 
ATOM      7  C65 FTL d   1      53.997  47.162   1.802  0.00  0.00     0.100 C 
ATOM      8  N1  FTL d   1      54.876  46.923   2.521  0.00  0.00    -0.191 NA
ATOM      9  H3  FTL d   1      49.970  46.075  -0.155  0.00  0.00     0.087 H 
ATOM     10  H4  FTL d   1      51.919  45.583   1.319  0.00  0.00     0.086 H 
ATOM     11  H5  FTL d   1      51.700  49.895  -1.164  0.00  0.00     0.088 H 
ENDROOT
BRANCH   5  12
ATOM     12  C51 FTL d   1      53.908  49.751   0.300  0.00  0.00    -0.013 A 
ATOM     13  C52 FTL d   1      53.617  51.063   0.768  0.00  0.00    -0.015 A 
ATOM     14  C53 FTL d   1      54.671  52.069   0.768  0.00  0.00    -0.025 A 
ATOM     15  C2  FTL d   1      52.330  51.426   1.238  0.00  0.00    -0.071 A 
ATOM     16  C54 FTL d   1      55.961  51.733   0.314  0.00  0.00    -0.072 A 
ATOM     17  C7  FTL d   1      54.400  53.377   1.220  0.00  0.00    -0.072 A 
ATOM     18  C55 FTL d   1      56.232  50.426  -0.137  0.00  0.00    -0.081 A 
ATOM     19  H6  FTL d   1      56.746  52.480   0.311  0.00  0.00     0.084 H 
ATOM     20  C56 FTL d   1      55.217  49.448  -0.143  0.00  0.00    -0.071 A 
ATOM     21  H7  FTL d   1      57.228  50.171  -0.482  0.00  0.00     0.083 H 
ATOM     22  H8  FTL d   1      55.443  48.447  -0.493  0.00  0.00     0.084 H 
ATOM     23  C3  FTL d   1      53.106  53.705   1.677  0.00  0.00    -0.082 A 
ATOM     24  H9  FTL d   1      55.182  54.127   1.216  0.00  0.00     0.084 H 
ATOM     25  C4  FTL d   1      52.080  52.737   1.690  0.00  0.00    -0.082 A 
ATOM     26  H11 FTL d   1      52.898  54.712   2.022  0.00  0.00     0.083 H 
ATOM     27  H12 FTL d   1      51.093  53.003   2.050  0.00  0.00     0.083 H 
ATOM     28  H10 FTL d   1      51.533  50.691   1.250  0.00  0.00     0.084 H 
ENDBRANCH   5  12
BRANCH   1  29
ATOM     29  N2  FTL d   1      49.655  48.288  -1.652  0.00  0.00    -0.371 N 
BRANCH  29  30
ATOM     30  C8  FTL d   1      49.632  49.505  -2.505  0.00  0.00     0.019 C 
ATOM     31  H1  FTL d   1      48.918  49.283  -3.312  0.00  0.00     0.071 H 
ATOM     32  H2  FTL d   1      50.646  49.588  -2.924  0.00  0.00     0.071 H 
BRANCH  30  33
ATOM     33  C11 FTL d   1      49.275  50.912  -2.021  0.00  0.00    -0.039 A 
ATOM     34  C16 FTL d   1      48.675  51.211  -0.777  0.00  0.00    -0.075 A 
ATOM     35  C6  FTL d   1      48.354  52.543  -0.433  0.00  0.00    -0.081 A 
ATOM     36  H18 FTL d   1      48.459  50.410  -0.079  0.00  0.00     0.084 H 
ATOM     37  C17 FTL d   1      48.638  53.575  -1.349  0.00  0.00    -0.063 A 
ATOM     38  H21 FTL d   1      47.895  52.768   0.523  0.00  0.00     0.083 H 
ATOM     39  C14 FTL d   1      49.233  53.286  -2.591  0.00  0.00     0.045 A 
ATOM     40  H20 FTL d   1      48.396  54.601  -1.095  0.00  0.00     0.085 H 
ATOM     41  C13 FTL d   1      49.556  51.958  -2.925  0.00  0.00    -0.055 A 
ATOM     42  C9  FTL d   1      49.486  54.349  -3.529  0.00  0.00     0.099 C 
ATOM     43  H19 FTL d   1      50.022  51.738  -3.879  0.00  0.00     0.086 H 
ATOM     44  N5  FTL d   1      49.681  55.204  -4.289  0.00  0.00    -0.191 NA
ENDBRANCH  30  33
ENDBRANCH  29  30
BRANCH  29  45
ATOM     45  C18 FTL d   1      48.608  47.277  -1.909  0.00  0.00     0.035 C 
ATOM     46  H22 FTL d   1      47.648  47.802  -2.020  0.00  0.00     0.073 H 
ATOM     47  H23 FTL d   1      48.561  46.607  -1.038  0.00  0.00     0.073 H 
BRANCH  45  48
ATOM     48  C12 FTL d   1      48.824  46.416  -3.157  0.00  0.00     0.047 A 
ATOM     49  C10 FTL d   1      49.999  46.381  -3.961  0.00  0.00     0.027 A 
ATOM     50  N3  FTL d   1      49.699  45.488  -4.958  0.00  0.00    -0.254 NA
ATOM     51  H13 FTL d   1      50.925  46.937  -3.817  0.00  0.00     0.117 H 
ATOM     52  C5  FTL d   1      48.421  44.985  -4.799  0.00  0.00     0.065 A 
ATOM     53  N4  FTL d   1      47.912  45.577  -3.679  0.00  0.00    -0.347 N 
ATOM     54  H14 FTL d   1      47.920  44.261  -5.440  0.00  0.00     0.143 H 
BRANCH  53  55
ATOM     55  C15 FTL d   1      46.575  45.317  -3.128  0.00  0.00    -0.013 C 
ATOM     56  H15 FTL d   1      46.426  45.927  -2.225  0.00  0.00     0.057 H 
ATOM     57  H16 FTL d   1      46.486  44.252  -2.870  0.00  0.00     0.057 H 
ATOM     58  H17 FTL d   1      45.813  45.578  -3.877  0.00  0.00     0.057 H 
ENDBRANCH  53  55
ENDBRANCH  45  48
ENDBRANCH  29  45
ENDBRANCH   1  29
TORSDOF 7
