REMARK  16 active torsions:
REMARK  status: ('A' for Active; 'I' for Inactive)
REMARK    1  A    between atoms: C7_7  and  N5_5 
REMARK    2  A    between atoms: C8_8  and  C7_7 
REMARK    3  A    between atoms: O9_9  and  C8_8 
REMARK    4  A    between atoms: C10_10  and  O9_9 
REMARK    5  A    between atoms: C19_19  and  C17_17 
REMARK       I    between atoms: N21_21  and  C19_19 
REMARK    6  A    between atoms: C22_22  and  N21_21 
REMARK    7  A    between atoms: C22_22  and  C23_23 
REMARK    8  A    between atoms: C27_27  and  C22_22 
REMARK    9  A    between atoms: C23_23  and  C24_24 
REMARK   10  A    between atoms: C24_24  and  C25_25 
REMARK   11  A    between atoms: C24_24  and  C26_26 
REMARK       I    between atoms: N29_29  and  C27_27 
REMARK   12  A    between atoms: C30_30  and  N29_29 
REMARK   13  A    between atoms: C31_52  and  O32_31 
REMARK       I    between atoms: N34_33  and  C38_37 
REMARK   14  A    between atoms: C38_37  and  C40_39 
REMARK   15  A    between atoms: C40_39  and  C41_40 
REMARK   16  A    between atoms: C45_44  and  C47_46 
ROOT
ATOM      1  C22 750 d   1     -23.762  -7.103  34.535  0.00  0.00     0.090 C 
ATOM      2  H19 750 d   1     -22.713  -7.376  34.723  0.00  0.00     0.087 H 
ENDROOT
BRANCH   1   3
ATOM      3  N21 750 d   1     -24.545  -7.183  35.819  0.00  0.00    -0.342 N 
ATOM      4  C19 750 d   1     -24.184  -6.486  36.940  0.00  0.00     0.276 C 
ATOM      5  O20 750 d   1     -23.173  -5.789  36.964  0.00  0.00    -0.265 OA
ATOM      6  H18 750 d   1     -25.357  -7.766  35.854  0.00  0.00     0.163 HD
BRANCH   4   7
ATOM      7  C17 750 d   1     -25.059  -6.508  38.183  0.00  0.00     0.144 A 
ATOM      8  C16 750 d   1     -26.270  -7.204  38.391  0.00  0.00    -0.032 A 
ATOM      9  C12 750 d   1     -26.703  -6.872  39.665  0.00  0.00     0.003 A 
ATOM     10  H17 750 d   1     -26.767  -7.871  37.688  0.00  0.00     0.089 H 
ATOM     11  C11 750 d   1     -27.869  -7.283  40.384  0.00  0.00    -0.038 A 
ATOM     12  C13 750 d   1     -25.757  -5.959  40.268  0.00  0.00     0.086 A 
ATOM     13  C10 750 d   1     -28.088  -6.777  41.710  0.00  0.00     0.069 A 
ATOM     14  H14 750 d   1     -28.578  -7.968  39.934  0.00  0.00     0.089 H 
ATOM     15  C15 750 d   1     -27.146  -5.862  42.307  0.00  0.00    -0.048 A 
ATOM     16  C14 750 d   1     -25.983  -5.447  41.594  0.00  0.00    -0.047 A 
ATOM     17  H16 750 d   1     -27.324  -5.486  43.308  0.00  0.00     0.087 H 
ATOM     18  H15 750 d   1     -25.279  -4.756  42.044  0.00  0.00     0.087 H 
ATOM     19  O18 750 d   1     -24.763  -5.760  39.342  0.00  0.00    -0.304 OA
BRANCH  13  20
ATOM     20  O9  750 d   1     -29.197  -7.152  42.512  0.00  0.00    -0.349 OA
BRANCH  20  21
ATOM     21  C8  750 d   1     -30.236  -6.325  43.162  0.00  0.00     0.049 C 
ATOM     22  H12 750 d   1     -29.776  -5.632  43.882  0.00  0.00     0.077 H 
ATOM     23  H13 750 d   1     -30.794  -5.752  42.407  0.00  0.00     0.077 H 
BRANCH  21  24
ATOM     24  C7  750 d   1     -31.187  -7.318  43.899  0.00  0.00     0.103 C 
ATOM     25  H10 750 d   1     -31.589  -8.009  43.144  0.00  0.00     0.079 H 
ATOM     26  H11 750 d   1     -30.579  -7.880  44.623  0.00  0.00     0.079 H 
BRANCH  24  27
ATOM     27  N5  750 d   1     -32.375  -6.730  44.659  0.00  0.00    -0.065 N 
ATOM     28  C4  750 d   1     -32.485  -5.202  44.551  0.00  0.00     0.103 C 
ATOM     29  C3  750 d   1     -33.755  -4.688  45.342  0.00  0.00     0.042 C 
ATOM     30  H5  750 d   1     -31.581  -4.742  44.977  0.00  0.00     0.079 H 
ATOM     31  H6  750 d   1     -32.577  -4.918  43.492  0.00  0.00     0.079 H 
ATOM     32  O2  750 d   1     -34.984  -5.427  44.947  0.00  0.00    -0.388 OA
ATOM     33  H3  750 d   1     -33.585  -4.829  46.420  0.00  0.00     0.076 H 
ATOM     34  H4  750 d   1     -33.898  -3.618  45.130  0.00  0.00     0.076 H 
ATOM     35  C1  750 d   1     -34.884  -6.894  45.101  0.00  0.00     0.042 C 
ATOM     36  C6  750 d   1     -33.652  -7.496  44.325  0.00  0.00     0.103 C 
ATOM     37  H1  750 d   1     -35.805  -7.354  44.713  0.00  0.00     0.076 H 
ATOM     38  H2  750 d   1     -34.778  -7.131  46.170  0.00  0.00     0.076 H 
ATOM     39  H8  750 d   1     -33.840  -7.430  43.243  0.00  0.00     0.079 H 
ATOM     40  H9  750 d   1     -33.526  -8.550  44.611  0.00  0.00     0.079 H 
ATOM     41  H7  750 d   1     -32.196  -6.911  45.634  0.00  0.00     0.280 HD
ENDBRANCH  24  27
ENDBRANCH  21  24
ENDBRANCH  20  21
ENDBRANCH  13  20
ENDBRANCH   4   7
ENDBRANCH   1   3
BRANCH   1  42
ATOM     42  C23 750 d   1     -24.331  -8.040  33.431  0.00  0.00    -0.035 C 
ATOM     43  H20 750 d   1     -23.623  -7.984  32.591  0.00  0.00     0.037 H 
ATOM     44  H21 750 d   1     -25.294  -7.603  33.129  0.00  0.00     0.037 H 
BRANCH  42  45
ATOM     45  C24 750 d   1     -24.600  -9.545  33.663  0.00  0.00    -0.059 C 
ATOM     46  H22 750 d   1     -25.156  -9.670  34.604  0.00  0.00     0.038 H 
BRANCH  45  47
ATOM     47  C25 750 d   1     -25.443 -10.068  32.474  0.00  0.00    -0.073 C 
ATOM     48  H23 750 d   1     -25.649 -11.139  32.614  0.00  0.00     0.028 H 
ATOM     49  H24 750 d   1     -24.886  -9.921  31.537  0.00  0.00     0.028 H 
ATOM     50  H25 750 d   1     -26.393  -9.515  32.426  0.00  0.00     0.028 H 
ENDBRANCH  45  47
BRANCH  45  51
ATOM     51  C26 750 d   1     -23.300 -10.383  33.727  0.00  0.00    -0.073 C 
ATOM     52  H26 750 d   1     -22.679 -10.033  34.565  0.00  0.00     0.028 H 
ATOM     53  H27 750 d   1     -22.743 -10.269  32.785  0.00  0.00     0.028 H 
ATOM     54  H28 750 d   1     -23.554 -11.443  33.877  0.00  0.00     0.028 H 
ENDBRANCH  45  51
ENDBRANCH  42  45
ENDBRANCH   1  42
BRANCH   1  55
ATOM     55  C27 750 d   1     -23.857  -5.604  34.083  0.00  0.00     0.240 C 
ATOM     56  O28 750 d   1     -24.923  -4.960  34.274  0.00  0.00    -0.271 OA
ATOM     57  N29 750 d   1     -22.801  -5.005  33.496  0.00  0.00    -0.352 N 
ATOM     58  H29 750 d   1     -21.953  -5.516  33.355  0.00  0.00     0.163 HD
BRANCH  57  59
ATOM     59  C30 750 d   1     -22.893  -3.584  33.057  0.00  0.00     0.038 C 
ATOM     60  C37 750 d   1     -21.747  -2.780  33.787  0.00  0.00    -0.042 C 
ATOM     61  C36 750 d   1     -20.291  -3.383  33.788  0.00  0.00    -0.048 C 
ATOM     62  H38 750 d   1     -22.051  -2.663  34.838  0.00  0.00     0.036 H 
ATOM     63  H39 750 d   1     -21.689  -1.791  33.309  0.00  0.00     0.036 H 
ATOM     64  C35 750 d   1     -19.517  -3.441  32.441  0.00  0.00    -0.002 C 
ATOM     65  H36 750 d   1     -19.689  -2.780  34.484  0.00  0.00     0.035 H 
ATOM     66  H37 750 d   1     -20.366  -4.413  34.166  0.00  0.00     0.035 H 
ATOM     67  N34 750 d   1     -20.298  -3.152  31.194  0.00  0.00    -0.349 N 
ATOM     68  H34 750 d   1     -18.698  -2.708  32.497  0.00  0.00     0.064 H 
ATOM     69  H35 750 d   1     -19.098  -4.453  32.343  0.00  0.00     0.064 H 
ATOM     70  C33 750 d   1     -21.506  -3.999  30.881  0.00  0.00     0.023 C 
ATOM     71  C38 750 d   1     -19.955  -2.112  30.357  0.00  0.00     0.224 C 
ATOM     72  C31 750 d   1     -22.826  -3.476  31.530  0.00  0.00     0.070 C 
ATOM     73  H32 750 d   1     -21.319  -5.019  31.248  0.00  0.00     0.068 H 
ATOM     74  H33 750 d   1     -21.641  -4.021  29.790  0.00  0.00     0.068 H 
ATOM     75  H50 750 d   1     -23.667  -4.049  31.112  0.00  0.00     0.088 H 
ATOM     76  O39 750 d   1     -20.410  -2.113  29.195  0.00  0.00    -0.273 OA
ATOM     77  H30 750 d   1     -23.862  -3.175  33.379  0.00  0.00     0.076 H 
BRANCH  72  78
ATOM     78  O32 750 d   1     -22.953  -2.111  31.169  0.00  0.00    -0.392 OA
ATOM     79  H31 750 d   1     -23.786  -1.778  31.482  0.00  0.00     0.210 HD
ENDBRANCH  72  78
BRANCH  71  80
ATOM     80  C40 750 d   1     -19.058  -0.885  30.734  0.00  0.00     0.033 C 
ATOM     81  H40 750 d   1     -18.027  -1.249  30.858  0.00  0.00     0.054 H 
ATOM     82  H41 750 d   1     -19.424  -0.484  31.691  0.00  0.00     0.054 H 
BRANCH  80  83
ATOM     83  C41 750 d   1     -19.026   0.288  29.710  0.00  0.00    -0.049 A 
ATOM     84  C42 750 d   1     -19.789   1.468  29.945  0.00  0.00    -0.076 A 
ATOM     85  C43 750 d   1     -19.776   2.547  29.014  0.00  0.00    -0.082 A 
ATOM     86  H42 750 d   1     -20.388   1.546  30.845  0.00  0.00     0.084 H 
ATOM     87  C44 750 d   1     -18.986   2.457  27.824  0.00  0.00    -0.071 A 
ATOM     88  H43 750 d   1     -20.365   3.436  29.207  0.00  0.00     0.083 H 
ATOM     89  C45 750 d   1     -18.175   1.279  27.527  0.00  0.00    -0.007 A 
ATOM     90  H44 750 d   1     -18.990   3.285  27.125  0.00  0.00     0.084 H 
ATOM     91  C46 750 d   1     -18.239   0.202  28.526  0.00  0.00    -0.064 A 
ATOM     92  H45 750 d   1     -17.661  -0.699  28.354  0.00  0.00     0.085 H 
BRANCH  89  93
ATOM     93  C47 750 d   1     -17.353   1.183  26.328  0.00  0.00     0.066 A 
ATOM     94  C48 750 d   1     -16.357   0.106  26.136  0.00  0.00    -0.054 A 
ATOM     95  C49 750 d   1     -15.582   0.062  24.943  0.00  0.00    -0.079 A 
ATOM     96  H46 750 d   1     -16.218  -0.648  26.902  0.00  0.00     0.087 H 
ATOM     97  C50 750 d   1     -15.780   1.074  23.937  0.00  0.00    -0.066 A 
ATOM     98  H47 750 d   1     -14.851  -0.724  24.793  0.00  0.00     0.083 H 
ATOM     99  C51 750 d   1     -16.752   2.102  24.165  0.00  0.00     0.003 A 
ATOM    100  H48 750 d   1     -15.202   1.058  23.020  0.00  0.00     0.085 H 
ATOM    101  N52 750 d   1     -17.473   2.114  25.312  0.00  0.00    -0.260 NA
ATOM    102  H49 750 d   1     -16.911   2.872  23.418  0.00  0.00     0.114 H 
ENDBRANCH  89  93
ENDBRANCH  80  83
ENDBRANCH  71  80
ENDBRANCH  57  59
ENDBRANCH   1  55
TORSDOF 16
