REMARK  11 active torsions:
REMARK  status: ('A' for Active; 'I' for Inactive)
REMARK    1  A    between atoms: S1_1  and  C23_25 
REMARK    2  A    between atoms: N05_34  and  S1_1 
REMARK       I    between atoms: N2_7  and  C8_10 
REMARK    3  A    between atoms: C01_30  and  N2_7 
REMARK    4  A    between atoms: C9_11  and  N3_8 
REMARK       I    between atoms: N3_8  and  C14_16 
REMARK    5  A    between atoms: C8_10  and  C9_11 
REMARK    6  A    between atoms: C9_11  and  C10_12 
REMARK    7  A    between atoms: C10_12  and  C11_13 
REMARK    8  A    between atoms: C11_13  and  C12_14 
REMARK    9  A    between atoms: C11_13  and  C13_15 
REMARK   10  A    between atoms: C14_16  and  C15_17 
REMARK   11  A    between atoms: C07_37  and  O08_36 
ROOT
ATOM      1  O4  2CA d   1      34.961 -38.091  -2.046  0.00  0.00    -0.271 OA
ATOM      2  N2  2CA d   1      34.185 -36.014  -2.472  0.00  0.00    -0.352 N 
ATOM      3  C8  2CA d   1      35.062 -36.993  -2.644  0.00  0.00     0.240 C 
ATOM      4  H1  2CA d   1      34.295 -35.139  -2.944  0.00  0.00     0.163 HD
ENDROOT
BRANCH   3   5
ATOM      5  C9  2CA d   1      36.238 -36.668  -3.623  0.00  0.00     0.090 C 
ATOM      6  H3  2CA d   1      36.368 -35.584  -3.758  0.00  0.00     0.087 H 
BRANCH   5   7
ATOM      7  N3  2CA d   1      37.419 -37.268  -2.983  0.00  0.00    -0.342 N 
ATOM      8  C14 2CA d   1      37.826 -37.048  -1.690  0.00  0.00     0.276 C 
ATOM      9  O5  2CA d   1      37.443 -36.114  -0.968  0.00  0.00    -0.265 OA
ATOM     10  H2  2CA d   1      37.973 -37.889  -3.537  0.00  0.00     0.163 HD
BRANCH   8  11
ATOM     11  C15 2CA d   1      38.785 -38.040  -1.180  0.00  0.00     0.144 C 
ATOM     12  O6  2CA d   1      39.013 -38.021   0.177  0.00  0.00    -0.304 OA
ATOM     13  C21 2CA d   1      39.794 -39.082   0.442  0.00  0.00     0.086 A 
ATOM     14  C20 2CA d   1      40.258 -39.504   1.761  0.00  0.00    -0.049 A 
ATOM     15  C22 2CA d   1      40.129 -39.752  -0.752  0.00  0.00     0.001 A 
ATOM     16  C19 2CA d   1      41.142 -40.611   1.767  0.00  0.00    -0.080 A 
ATOM     17  H17 2CA d   1      39.948 -39.005   2.672  0.00  0.00     0.087 H 
ATOM     18  C18 2CA d   1      41.438 -41.350   0.573  0.00  0.00    -0.082 A 
ATOM     19  H16 2CA d   1      41.608 -40.908   2.700  0.00  0.00     0.083 H 
ATOM     20  C17 2CA d   1      40.930 -40.930  -0.693  0.00  0.00    -0.070 A 
ATOM     21  H15 2CA d   1      42.056 -42.239   0.633  0.00  0.00     0.083 H 
ATOM     22  H14 2CA d   1      41.149 -41.495  -1.592  0.00  0.00     0.084 H 
ATOM     23  C16 2CA d   1      39.508 -38.973  -1.796  0.00  0.00    -0.032 C 
ATOM     24  H13 2CA d   1      39.610 -39.119  -2.870  0.00  0.00     0.089 H 
ENDBRANCH   8  11
ENDBRANCH   5   7
BRANCH   5  25
ATOM     25  C10 2CA d   1      35.939 -37.345  -4.976  0.00  0.00    -0.035 C 
ATOM     26  H4  2CA d   1      34.851 -37.272  -5.122  0.00  0.00     0.037 H 
ATOM     27  H5  2CA d   1      36.224 -38.401  -4.860  0.00  0.00     0.037 H 
BRANCH  25  28
ATOM     28  C11 2CA d   1      36.590 -36.863  -6.311  0.00  0.00    -0.059 C 
ATOM     29  H6  2CA d   1      35.801 -36.473  -6.971  0.00  0.00     0.038 H 
BRANCH  28  30
ATOM     30  C12 2CA d   1      37.316 -37.999  -6.981  0.00  0.00    -0.073 C 
ATOM     31  H7  2CA d   1      37.768 -37.643  -7.918  0.00  0.00     0.028 H 
ATOM     32  H8  2CA d   1      36.605 -38.809  -7.201  0.00  0.00     0.028 H 
ATOM     33  H9  2CA d   1      38.105 -38.375  -6.313  0.00  0.00     0.028 H 
ENDBRANCH  28  30
BRANCH  28  34
ATOM     34  C13 2CA d   1      37.638 -35.803  -6.082  0.00  0.00    -0.073 C 
ATOM     35  H10 2CA d   1      37.178 -34.933  -5.591  0.00  0.00     0.028 H 
ATOM     36  H11 2CA d   1      38.066 -35.495  -7.048  0.00  0.00     0.028 H 
ATOM     37  H12 2CA d   1      38.435 -36.208  -5.440  0.00  0.00     0.028 H 
ENDBRANCH  28  34
ENDBRANCH  25  28
ENDBRANCH   5  25
ENDBRANCH   3   5
BRANCH   2  38
ATOM     38  C01 2CA d   1      32.965 -36.261  -1.507  0.00  0.00     0.038 C 
ATOM     39  C02 2CA d   1      33.095 -35.375  -0.208  0.00  0.00    -0.043 C 
ATOM     40  C03 2CA d   1      33.227 -33.850  -0.402  0.00  0.00    -0.051 C 
ATOM     41  H23 2CA d   1      33.987 -35.717   0.337  0.00  0.00     0.036 H 
ATOM     42  H24 2CA d   1      32.199 -35.554   0.405  0.00  0.00     0.036 H 
ATOM     43  C04 2CA d   1      32.029 -33.097  -1.034  0.00  0.00    -0.006 C 
ATOM     44  H25 2CA d   1      34.101 -33.675  -1.046  0.00  0.00     0.034 H 
ATOM     45  H26 2CA d   1      33.407 -33.407   0.589  0.00  0.00     0.034 H 
ATOM     46  N05 2CA d   1      30.916 -33.859  -1.696  0.00  0.00    -0.203 NA
ATOM     47  H27 2CA d   1      32.447 -32.422  -1.796  0.00  0.00     0.057 H 
ATOM     48  H28 2CA d   1      31.570 -32.503  -0.230  0.00  0.00     0.057 H 
ATOM     49  C06 2CA d   1      31.336 -34.680  -2.871  0.00  0.00     0.019 C 
ATOM     50  C07 2CA d   1      31.663 -36.107  -2.350  0.00  0.00     0.067 C 
ATOM     51  H29 2CA d   1      32.228 -34.237  -3.339  0.00  0.00     0.061 H 
ATOM     52  H30 2CA d   1      30.520 -34.727  -3.607  0.00  0.00     0.061 H 
ATOM     53  H32 2CA d   1      31.780 -36.748  -3.236  0.00  0.00     0.087 H 
ATOM     54  H22 2CA d   1      33.002 -37.307  -1.169  0.00  0.00     0.076 H 
BRANCH  46  55
ATOM     55  S1  2CA d   1      29.630 -32.915  -2.018  0.00  0.00     0.261 S 
ATOM     56  O1  2CA d   1      28.817 -33.609  -2.991  0.00  0.00    -0.204 OA
ATOM     57  O2  2CA d   1      29.009 -32.654  -0.744  0.00  0.00    -0.204 OA
BRANCH  55  58
ATOM     58  C23 2CA d   1      30.236 -31.339  -2.746  0.00  0.00     0.166 C 
ATOM     59  N4  2CA d   1      30.740 -31.451  -4.011  0.00  0.00    -0.248 NA
ATOM     60  C27 2CA d   1      31.427 -30.347  -4.549  0.00  0.00     0.004 C 
ATOM     61  C26 2CA d   1      31.597 -29.132  -3.839  0.00  0.00    -0.066 C 
ATOM     62  H21 2CA d   1      31.843 -30.429  -5.547  0.00  0.00     0.114 H 
ATOM     63  C25 2CA d   1      31.053 -29.039  -2.531  0.00  0.00    -0.079 C 
ATOM     64  H20 2CA d   1      32.128 -28.297  -4.282  0.00  0.00     0.085 H 
ATOM     65  C24 2CA d   1      30.222 -30.090  -2.031  0.00  0.00    -0.043 C 
ATOM     66  H19 2CA d   1      31.267 -28.174  -1.913  0.00  0.00     0.083 H 
ATOM     67  H18 2CA d   1      29.607 -29.952  -1.149  0.00  0.00     0.088 H 
ENDBRANCH  55  58
ENDBRANCH  46  55
BRANCH  50  68
ATOM     68  O08 2CA d   1      30.564 -36.596  -1.588  0.00  0.00    -0.392 OA
ATOM     69  H31 2CA d   1      30.764 -37.468  -1.270  0.00  0.00     0.210 HD
ENDBRANCH  50  68
ENDBRANCH   2  38
TORSDOF 11
