REMARK  32 active torsions:
REMARK  status: ('A' for Active; 'I' for Inactive)
REMARK    1  A    between atoms: C_1  and  CH3_3 
REMARK       I    between atoms: N8_16  and  C_1 
REMARK    2  A    between atoms: C_8  and  C1_7 
REMARK       I    between atoms: N8_43  and  C_8 
REMARK    3  A    between atoms: C4_12  and  C7_15 
REMARK    4  A    between atoms: C7_15  and  N8_16 
REMARK    5  A    between atoms: N8_16  and  C9_17 
REMARK    6  A    between atoms: C9_17  and  C10_18 
REMARK    7  A    between atoms: C10_18  and  C11_19 
REMARK    8  A    between atoms: C10_18  and  C12_20 
REMARK    9  A    between atoms: C7_42  and  C1_36 
REMARK   10  A    between atoms: C4_39  and  C11_48 
REMARK   11  A    between atoms: C7_42  and  N8_43 
REMARK   12  A    between atoms: N8_43  and  C9_44 
REMARK   13  A    between atoms: C9_44  and  C10_45 
REMARK   14  A    between atoms: C10_45  and  C_46 
REMARK       I    between atoms: C_46  and  N1_65 
REMARK   15  A    between atoms: C11_48  and  N12_49 
REMARK   16  A    between atoms: C4_68  and  C_69 
REMARK       I    between atoms: C_69  and  N_82 
REMARK   17  A    between atoms: CA_83  and  C_84 
REMARK       I    between atoms: C_84  and  N_96 
REMARK   18  A    between atoms: N_96  and  CA_97 
REMARK   19  A    between atoms: CA_97  and  C_98 
REMARK   20  A    between atoms: CA_97  and  CB_100 
REMARK       I    between atoms: C_98  and  N_115 
REMARK   21  A    between atoms: CB_100  and  CG_101 
REMARK   22  A    between atoms: CG_101  and  CD1_102 
REMARK   23  A    between atoms: CG_101  and  CD2_103 
REMARK   24  A    between atoms: CA_116  and  C_117 
REMARK       I    between atoms: C_117  and  N_129 
REMARK   25  A    between atoms: CA_130  and  C_131 
REMARK       I    between atoms: C_131  and  N_143 
REMARK   26  A    between atoms: N_143  and  CA_144 
REMARK   27  A    between atoms: CA_144  and  C_145 
REMARK   28  A    between atoms: CA_144  and  CB_147 
REMARK       I    between atoms: C_145  and  N_162 
REMARK   29  A    between atoms: CB_147  and  CG_148 
REMARK   30  A    between atoms: CG_148  and  CD1_149 
REMARK   31  A    between atoms: CG_148  and  CD2_150 
REMARK   32  A    between atoms: CA_163  and  C_164 
REMARK       I    between atoms: C_164  and  N_176 
ROOT
ATOM      1  C   MN1 d   1      64.770   0.716   3.041  0.00  0.00     0.224 C 
ATOM      2  O1  MN1 d   1      64.024   1.182   3.879  0.00  0.00    -0.273 OA
ATOM      3  N   PRO d   1      65.513   1.440   2.241  0.00  0.00    -0.338 N 
ATOM      4  CA  PRO d   1      65.522   2.913   2.282  0.00  0.00     0.091 C 
ATOM      5  CB  PRO d   1      66.779   3.286   1.490  0.00  0.00    -0.036 C 
ATOM      6  CG  PRO d   1      67.097   2.075   0.581  0.00  0.00    -0.048 C 
ATOM      7  CD  PRO d   1      66.408   0.855   1.220  0.00  0.00    -0.001 C 
ATOM      8  H43 PRO d   1      65.587   3.279   3.317  0.00  0.00     0.087 H 
ATOM      9  H44 PRO d   1      67.618   3.478   2.175  0.00  0.00     0.036 H 
ATOM     10  H45 PRO d   1      66.592   4.182   0.879  0.00  0.00     0.036 H 
ATOM     11  H46 PRO d   1      68.184   1.914   0.529  0.00  0.00     0.035 H 
ATOM     12  H47 PRO d   1      66.703   2.246  -0.432  0.00  0.00     0.035 H 
ATOM     13  H48 PRO d   1      65.831   0.295   0.469  0.00  0.00     0.064 H 
ATOM     14  H49 PRO d   1      67.148   0.188   1.686  0.00  0.00     0.064 H 
ENDROOT
BRANCH   4  15
ATOM     15  C   PRO d   1      64.264   3.480   1.616  0.00  0.00     0.241 C 
ATOM     16  O   PRO d   1      64.190   3.603   0.410  0.00  0.00    -0.271 OA
ATOM     17  N   LEU d   1      63.279   3.834   2.396  0.00  0.00    -0.346 N 
ATOM     18  H50 LEU d   1      63.362   3.725   3.387  0.00  0.00     0.163 HD
BRANCH  17  19
ATOM     19  CA  LEU d   1      62.031   4.400   1.812  0.00  0.00     0.090 C 
ATOM     20  H51 LEU d   1      61.452   3.599   1.329  0.00  0.00     0.087 H 
BRANCH  19  21
ATOM     21  C   LEU d   1      62.399   5.464   0.775  0.00  0.00     0.243 C 
ATOM     22  O   LEU d   1      63.501   5.975   0.782  0.00  0.00    -0.271 OA
ATOM     23  N   PRO d   1      61.464   5.767  -0.088  0.00  0.00    -0.337 N 
ATOM     24  CA  PRO d   1      61.662   6.770  -1.146  0.00  0.00     0.092 C 
ATOM     25  CD  PRO d   1      60.124   5.141  -0.091  0.00  0.00    -0.001 C 
ATOM     26  CB  PRO d   1      60.535   6.470  -2.140  0.00  0.00    -0.036 C 
ATOM     27  H61 PRO d   1      62.647   6.657  -1.622  0.00  0.00     0.087 H 
ATOM     28  CG  PRO d   1      59.442   5.716  -1.347  0.00  0.00    -0.048 C 
ATOM     29  H62 PRO d   1      60.910   5.842  -2.962  0.00  0.00     0.036 H 
ATOM     30  H63 PRO d   1      60.130   7.407  -2.550  0.00  0.00     0.036 H 
ATOM     31  H64 PRO d   1      59.024   4.902  -1.958  0.00  0.00     0.035 H 
ATOM     32  H65 PRO d   1      58.637   6.408  -1.058  0.00  0.00     0.035 H 
ATOM     33  H66 PRO d   1      59.564   5.413   0.816  0.00  0.00     0.064 H 
ATOM     34  H67 PRO d   1      60.205   4.046  -0.158  0.00  0.00     0.064 H 
BRANCH  24  35
ATOM     35  C   PRO d   1      61.528   8.182  -0.568  0.00  0.00     0.243 C 
ATOM     36  O   PRO d   1      61.167   8.347   0.581  0.00  0.00    -0.271 OA
ATOM     37  N   PRO d   1      61.821   9.157  -1.386  0.00  0.00    -0.337 N 
ATOM     38  CA  PRO d   1      61.742  10.574  -0.990  0.00  0.00     0.091 C 
ATOM     39  CD  PRO d   1      62.252   8.938  -2.781  0.00  0.00    -0.001 C 
ATOM     40  CB  PRO d   1      62.506  11.300  -2.101  0.00  0.00    -0.036 C 
ATOM     41  H68 PRO d   1      62.216  10.742  -0.012  0.00  0.00     0.087 H 
ATOM     42  CG  PRO d   1      62.491  10.357  -3.327  0.00  0.00    -0.048 C 
ATOM     43  H69 PRO d   1      63.541  11.497  -1.785  0.00  0.00     0.036 H 
ATOM     44  H70 PRO d   1      62.010  12.251  -2.346  0.00  0.00     0.036 H 
ATOM     45  H71 PRO d   1      63.455  10.404  -3.855  0.00  0.00     0.035 H 
ATOM     46  H72 PRO d   1      61.681  10.641  -4.016  0.00  0.00     0.035 H 
ATOM     47  H73 PRO d   1      61.467   8.425  -3.356  0.00  0.00     0.064 H 
ATOM     48  H74 PRO d   1      63.178   8.345  -2.815  0.00  0.00     0.064 H 
BRANCH  38  49
ATOM     49  C   PRO d   1      60.281  11.021  -0.938  0.00  0.00     0.241 C 
ATOM     50  O   PRO d   1      59.597  11.055  -1.941  0.00  0.00    -0.271 OA
ATOM     51  N   LEU d   1      59.791  11.352   0.226  0.00  0.00    -0.346 N 
ATOM     52  H75 LEU d   1      60.368  11.319   1.042  0.00  0.00     0.163 HD
BRANCH  51  53
ATOM     53  CA  LEU d   1      58.369  11.779   0.332  0.00  0.00     0.090 C 
ATOM     54  H76 LEU d   1      57.721  10.957  -0.006  0.00  0.00     0.087 H 
BRANCH  53  55
ATOM     55  C   LEU d   1      58.126  13.009  -0.546  0.00  0.00     0.243 C 
ATOM     56  O   LEU d   1      59.031  13.773  -0.818  0.00  0.00    -0.271 OA
ATOM     57  N   PRO d   1      56.891  13.158  -0.950  0.00  0.00    -0.337 N 
ATOM     58  CA  PRO d   1      56.448  14.281  -1.793  0.00  0.00     0.091 C 
ATOM     59  CD  PRO d   1      55.817  12.207  -0.601  0.00  0.00    -0.001 C 
ATOM     60  CB  PRO d   1      55.102  13.800  -2.345  0.00  0.00    -0.036 C 
ATOM     61  H86 PRO d   1      57.163  14.475  -2.606  0.00  0.00     0.087 H 
ATOM     62  CG  PRO d   1      54.597  12.713  -1.382  0.00  0.00    -0.048 C 
ATOM     63  H87 PRO d   1      55.233  13.382  -3.354  0.00  0.00     0.036 H 
ATOM     64  H88 PRO d   1      54.387  14.635  -2.384  0.00  0.00     0.036 H 
ATOM     65  H89 PRO d   1      54.142  11.887  -1.949  0.00  0.00     0.035 H 
ATOM     66  H90 PRO d   1      53.854  13.136  -0.690  0.00  0.00     0.035 H 
ATOM     67  H91 PRO d   1      55.620  12.221   0.481  0.00  0.00     0.064 H 
ATOM     68  H92 PRO d   1      56.084  11.186  -0.912  0.00  0.00     0.064 H 
BRANCH  58  69
ATOM     69  C   PRO d   1      56.272  15.546  -0.948  0.00  0.00     0.238 C 
ATOM     70  O   PRO d   1      55.599  15.531   0.064  0.00  0.00    -0.271 OA
ATOM     71  N   NH2 d   1      56.854  16.652  -1.324  0.00  0.00    -0.368 N 
ATOM     72  H93 NH2 d   1      56.746  17.484  -0.780  0.00  0.00     0.159 HD
ATOM     73  H94 NH2 d   1      57.408  16.668  -2.156  0.00  0.00     0.159 HD
ENDBRANCH  58  69
ENDBRANCH  53  55
BRANCH  53  74
ATOM     74  CB  LEU d   1      58.023  12.132   1.787  0.00  0.00    -0.035 C 
ATOM     75  H77 LEU d   1      57.082  12.701   1.802  0.00  0.00     0.037 H 
ATOM     76  H78 LEU d   1      58.831  12.748   2.207  0.00  0.00     0.037 H 
BRANCH  74  77
ATOM     77  CG  LEU d   1      57.857  10.869   2.651  0.00  0.00    -0.059 C 
ATOM     78  H79 LEU d   1      58.839  10.568   3.044  0.00  0.00     0.038 H 
BRANCH  77  79
ATOM     79  CD1 LEU d   1      56.911  11.173   3.804  0.00  0.00    -0.073 C 
ATOM     80  H80 LEU d   1      56.789  10.273   4.425  0.00  0.00     0.028 H 
ATOM     81  H81 LEU d   1      55.933  11.479   3.405  0.00  0.00     0.028 H 
ATOM     82  H82 LEU d   1      57.328  11.987   4.416  0.00  0.00     0.028 H 
ENDBRANCH  77  79
BRANCH  77  83
ATOM     83  CD2 LEU d   1      57.262   9.720   1.839  0.00  0.00    -0.073 C 
ATOM     84  H83 LEU d   1      57.929   9.481   0.998  0.00  0.00     0.028 H 
ATOM     85  H84 LEU d   1      56.276  10.017   1.452  0.00  0.00     0.028 H 
ATOM     86  H85 LEU d   1      57.152   8.835   2.482  0.00  0.00     0.028 H 
ENDBRANCH  77  83
ENDBRANCH  74  77
ENDBRANCH  53  74
ENDBRANCH  51  53
ENDBRANCH  38  49
ENDBRANCH  24  35
ENDBRANCH  19  21
BRANCH  19  87
ATOM     87  CB  LEU d   1      61.195   5.037   2.926  0.00  0.00    -0.035 C 
ATOM     88  H52 LEU d   1      60.263   5.438   2.501  0.00  0.00     0.037 H 
ATOM     89  H53 LEU d   1      61.767   5.853   3.392  0.00  0.00     0.037 H 
BRANCH  87  90
ATOM     90  CG  LEU d   1      60.861   3.982   3.982  0.00  0.00    -0.059 C 
ATOM     91  H54 LEU d   1      61.616   3.183   3.953  0.00  0.00     0.038 H 
BRANCH  90  92
ATOM     92  CD1 LEU d   1      60.856   4.627   5.369  0.00  0.00    -0.073 C 
ATOM     93  H55 LEU d   1      60.616   3.866   6.126  0.00  0.00     0.028 H 
ATOM     94  H56 LEU d   1      60.100   5.426   5.399  0.00  0.00     0.028 H 
ATOM     95  H57 LEU d   1      61.848   5.053   5.579  0.00  0.00     0.028 H 
ENDBRANCH  90  92
BRANCH  90  96
ATOM     96  CD2 LEU d   1      59.481   3.391   3.691  0.00  0.00    -0.073 C 
ATOM     97  H58 LEU d   1      59.484   2.927   2.694  0.00  0.00     0.028 H 
ATOM     98  H59 LEU d   1      58.726   4.190   3.721  0.00  0.00     0.028 H 
ATOM     99  H60 LEU d   1      59.241   2.631   4.449  0.00  0.00     0.028 H 
ENDBRANCH  90  96
ENDBRANCH  87  90
ENDBRANCH  19  87
ENDBRANCH  17  19
ENDBRANCH   4  15
BRANCH   1 100
ATOM    100  C4  MN1 d   1      64.895  -0.801   2.866  0.00  0.00     0.027 C 
ATOM    101  C3  MN1 d   1      63.980  -1.268   1.730  0.00  0.00    -0.039 C 
ATOM    102  C2  MN1 d   1      64.199  -2.765   1.504  0.00  0.00    -0.002 C 
ATOM    103  H36 MN1 d   1      62.930  -1.085   2.002  0.00  0.00     0.036 H 
ATOM    104  H37 MN1 d   1      64.222  -0.716   0.810  0.00  0.00     0.036 H 
ATOM    105  N1  MN1 d   1      63.967  -3.475   2.800  0.00  0.00    -0.352 N 
ATOM    106  H34 MN1 d   1      63.492  -3.134   0.746  0.00  0.00     0.064 H 
ATOM    107  H35 MN1 d   1      65.229  -2.943   1.162  0.00  0.00     0.064 H 
ATOM    108  C   MN2 d   1      63.140  -4.492   2.897  0.00  0.00     0.221 C 
ATOM    109  C6  MN1 d   1      64.700  -3.004   4.006  0.00  0.00    -0.002 C 
ATOM    110  O1  MN2 d   1      62.932  -5.087   3.935  0.00  0.00    -0.273 OA
ATOM    111  C5  MN1 d   1      64.466  -1.500   4.158  0.00  0.00    -0.039 C 
ATOM    112  H41 MN1 d   1      65.775  -3.202   3.888  0.00  0.00     0.064 H 
ATOM    113  H42 MN1 d   1      64.326  -3.530   4.897  0.00  0.00     0.064 H 
ATOM    114  H39 MN1 d   1      63.399  -1.309   4.345  0.00  0.00     0.036 H 
ATOM    115  H40 MN1 d   1      65.060  -1.117   5.001  0.00  0.00     0.036 H 
ATOM    116  H38 MN1 d   1      65.938  -1.060   2.632  0.00  0.00     0.054 H 
BRANCH 108 117
ATOM    117  C10 MN2 d   1      62.424  -4.915   1.611  0.00  0.00     0.024 C 
ATOM    118  H27 MN2 d   1      63.139  -4.909   0.775  0.00  0.00     0.049 H 
ATOM    119  H28 MN2 d   1      62.015  -5.928   1.736  0.00  0.00     0.049 H 
BRANCH 117 120
ATOM    120  C9  MN2 d   1      61.283  -3.939   1.312  0.00  0.00     0.006 C 
ATOM    121  H25 MN2 d   1      60.725  -3.731   2.237  0.00  0.00     0.065 H 
ATOM    122  H26 MN2 d   1      61.697  -3.001   0.914  0.00  0.00     0.065 H 
BRANCH 120 123
ATOM    123  N8  MN2 d   1      60.367  -4.546   0.304  0.00  0.00    -0.343 N 
ATOM    124  C   MN7 d   1      60.639  -4.457  -0.974  0.00  0.00     0.254 C 
ATOM    125  O1  MN7 d   1      59.952  -4.931  -1.856  0.00  0.00    -0.267 OA
BRANCH 124 126
ATOM    126  C1  MN7 d   1      61.785  -3.776  -1.409  0.00  0.00     0.032 A 
ATOM    127  C2  MN7 d   1      62.966  -4.480  -1.669  0.00  0.00    -0.067 A 
ATOM    128  C3  MN7 d   1      64.111  -3.794  -2.095  0.00  0.00    -0.074 A 
ATOM    129  H4  MN7 d   1      62.995  -5.556  -1.541  0.00  0.00     0.085 H 
ATOM    130  C4  MN7 d   1      64.072  -2.404  -2.260  0.00  0.00    -0.040 A 
ATOM    131  H5  MN7 d   1      65.026  -4.339  -2.297  0.00  0.00     0.084 H 
ATOM    132  C5  MN7 d   1      62.891  -1.700  -2.001  0.00  0.00    -0.074 A 
ATOM    133  C6  MN7 d   1      61.748  -2.386  -1.575  0.00  0.00    -0.067 A 
ATOM    134  H6  MN7 d   1      62.861  -0.624  -2.130  0.00  0.00     0.084 H 
ATOM    135  H7  MN7 d   1      60.833  -1.841  -1.373  0.00  0.00     0.085 H 
BRANCH 130 136
ATOM    136  C7  MN7 d   1      65.306  -1.659  -2.713  0.00  0.00     0.021 C 
ATOM    137  H8  MN7 d   1      66.038  -1.631  -1.892  0.00  0.00     0.071 H 
ATOM    138  H9  MN7 d   1      65.030  -0.632  -2.994  0.00  0.00     0.071 H 
BRANCH 136 139
ATOM    139  N8  MN7 d   1      65.906  -2.349  -3.888  0.00  0.00    -0.348 N 
ATOM    140  C   ACE d   1      66.805  -3.289  -3.689  0.00  0.00     0.216 C 
ATOM    141  O   ACE d   1      67.180  -3.633  -2.586  0.00  0.00    -0.274 OA
BRANCH 140 142
ATOM    142  CH3 ACE d   1      67.383  -3.956  -4.942  0.00  0.00    -0.003 C 
ATOM    143  H1  ACE d   1      66.924  -3.513  -5.838  0.00  0.00     0.040 H 
ATOM    144  H2  ACE d   1      67.169  -5.035  -4.915  0.00  0.00     0.040 H 
ATOM    145  H3  ACE d   1      68.471  -3.799  -4.972  0.00  0.00     0.040 H 
ENDBRANCH 140 142
BRANCH 139 146
ATOM    146  C9  MN7 d   1      65.477  -1.959  -5.270  0.00  0.00     0.001 C 
ATOM    147  H10 MN7 d   1      64.379  -1.904  -5.307  0.00  0.00     0.065 H 
ATOM    148  H11 MN7 d   1      65.830  -2.715  -5.986  0.00  0.00     0.065 H 
BRANCH 146 149
ATOM    149  C10 MN7 d   1      66.066  -0.590  -5.647  0.00  0.00    -0.045 C 
ATOM    150  H12 MN7 d   1      66.582  -0.672  -6.615  0.00  0.00     0.041 H 
BRANCH 149 151
ATOM    151  C11 MN7 d   1      64.935   0.434  -5.756  0.00  0.00    -0.072 C 
ATOM    152  H13 MN7 d   1      65.353   1.415  -6.026  0.00  0.00     0.028 H 
ATOM    153  H14 MN7 d   1      64.415   0.510  -4.790  0.00  0.00     0.028 H 
ATOM    154  H15 MN7 d   1      64.223   0.113  -6.531  0.00  0.00     0.028 H 
ENDBRANCH 149 151
BRANCH 149 155
ATOM    155  C12 MN7 d   1      67.063  -0.124  -4.579  0.00  0.00    -0.072 C 
ATOM    156  H16 MN7 d   1      67.880  -0.856  -4.495  0.00  0.00     0.028 H 
ATOM    157  H17 MN7 d   1      66.549  -0.036  -3.611  0.00  0.00     0.028 H 
ATOM    158  H18 MN7 d   1      67.476   0.855  -4.865  0.00  0.00     0.028 H 
ENDBRANCH 149 155
ENDBRANCH 146 149
ENDBRANCH 139 146
ENDBRANCH 136 139
ENDBRANCH 130 136
ENDBRANCH 124 126
BRANCH 123 159
ATOM    159  C7  MN2 d   1      59.142  -5.264   0.751  0.00  0.00     0.022 C 
ATOM    160  H23 MN2 d   1      58.613  -4.655   1.499  0.00  0.00     0.071 H 
ATOM    161  H24 MN2 d   1      58.484  -5.437  -0.113  0.00  0.00     0.071 H 
BRANCH 159 162
ATOM    162  C1  MN2 d   1      59.525  -6.588   1.363  0.00  0.00    -0.040 A 
ATOM    163  C2  MN2 d   1      59.851  -7.669   0.538  0.00  0.00    -0.075 A 
ATOM    164  C3  MN2 d   1      60.203  -8.899   1.104  0.00  0.00    -0.075 A 
ATOM    165  H19 MN2 d   1      59.831  -7.554  -0.540  0.00  0.00     0.084 H 
ATOM    166  C4  MN2 d   1      60.228  -9.048   2.495  0.00  0.00    -0.033 A 
ATOM    167  H20 MN2 d   1      60.456  -9.737   0.465  0.00  0.00     0.084 H 
ATOM    168  C5  MN2 d   1      59.901  -7.966   3.321  0.00  0.00    -0.075 A 
ATOM    169  C6  MN2 d   1      59.550  -6.735   2.754  0.00  0.00    -0.075 A 
ATOM    170  H21 MN2 d   1      59.920  -8.081   4.399  0.00  0.00     0.084 H 
ATOM    171  H22 MN2 d   1      59.298  -5.896   3.393  0.00  0.00     0.084 H 
BRANCH 166 172
ATOM    172  C11 MN2 d   1      60.610 -10.375   3.106  0.00  0.00     0.103 C 
ATOM    173  H29 MN2 d   1      61.333 -10.210   3.919  0.00  0.00     0.082 H 
ATOM    174  H30 MN2 d   1      61.064 -11.016   2.336  0.00  0.00     0.082 H 
BRANCH 172 175
ATOM    175  N12 MN2 d   1      59.393 -11.040   3.651  0.00  0.00    -0.075 N 
ATOM    176  H31 MN2 d   1      59.648 -11.926   4.059  0.00  0.00     0.274 HD
ATOM    177  H32 MN2 d   1      58.731 -11.191   2.906  0.00  0.00     0.274 HD
ATOM    178  H33 MN2 d   1      58.977 -10.453   4.357  0.00  0.00     0.274 HD
ENDBRANCH 172 175
ENDBRANCH 166 172
ENDBRANCH 159 162
ENDBRANCH 123 159
ENDBRANCH 120 123
ENDBRANCH 117 120
ENDBRANCH 108 117
ENDBRANCH   1 100
TORSDOF 32
