REMARK  23 active torsions:
REMARK  status: ('A' for Active; 'I' for Inactive)
REMARK    1  A    between atoms: C_1  and  CH3_3 
REMARK       I    between atoms: N11_18  and  C_1 
REMARK    2  A    between atoms: C2_9  and  C1_7 
REMARK       I    between atoms: C1_7  and  N1_43 
REMARK    3  A    between atoms: C3_10  and  C4_11 
REMARK    4  A    between atoms: C4_11  and  C5_12 
REMARK    5  A    between atoms: C4_11  and  C6_13 
REMARK    6  A    between atoms: C10_17  and  C8_15 
REMARK    7  A    between atoms: C4_46  and  C_47 
REMARK       I    between atoms: C_47  and  N_60 
REMARK    8  A    between atoms: CA_61  and  C_62 
REMARK       I    between atoms: C_62  and  N_74 
REMARK    9  A    between atoms: N_74  and  CA_75 
REMARK   10  A    between atoms: CA_75  and  C_76 
REMARK   11  A    between atoms: CA_75  and  CB_78 
REMARK       I    between atoms: C_76  and  N_93 
REMARK   12  A    between atoms: CB_78  and  CG_79 
REMARK   13  A    between atoms: CG_79  and  CD1_80 
REMARK   14  A    between atoms: CG_79  and  CD2_81 
REMARK   15  A    between atoms: CA_94  and  C_95 
REMARK       I    between atoms: C_95  and  N_107 
REMARK   16  A    between atoms: CA_108  and  C_109 
REMARK       I    between atoms: C_109  and  N_121 
REMARK   17  A    between atoms: N_121  and  CA_122 
REMARK   18  A    between atoms: CA_122  and  C_123 
REMARK   19  A    between atoms: CA_122  and  CB_125 
REMARK       I    between atoms: C_123  and  N_140 
REMARK   20  A    between atoms: CB_125  and  CG_126 
REMARK   21  A    between atoms: CG_126  and  CD1_127 
REMARK   22  A    between atoms: CG_126  and  CD2_128 
REMARK   23  A    between atoms: CA_141  and  C_142 
REMARK       I    between atoms: C_142  and  N_154 
ROOT
ATOM      1  CA  LEU d   1      56.249  -8.039   4.508  0.00  0.00     0.090 C 
ATOM      2  H37 LEU d   1      55.719  -7.098   4.717  0.00  0.00     0.087 H 
ENDROOT
BRANCH   1   3
ATOM      3  N   LEU d   1      57.261  -8.286   5.573  0.00  0.00    -0.346 N 
ATOM      4  C   PRO d   1      56.931  -8.155   6.828  0.00  0.00     0.241 C 
ATOM      5  O   PRO d   1      55.806  -7.832   7.153  0.00  0.00    -0.271 OA
ATOM      6  H36 LEU d   1      58.193  -8.552   5.326  0.00  0.00     0.163 HD
BRANCH   4   7
ATOM      7  CA  PRO d   1      58.014  -8.423   7.877  0.00  0.00     0.091 C 
ATOM      8  N   PRO d   1      57.917  -7.448   8.976  0.00  0.00    -0.338 N 
ATOM      9  C   MN1 d   1      58.373  -6.224   8.876  0.00  0.00     0.224 C 
ATOM     10  CD  PRO d   1      57.261  -7.972  10.192  0.00  0.00    -0.001 C 
ATOM     11  O1  MN1 d   1      58.910  -5.783   7.879  0.00  0.00    -0.273 OA
ATOM     12  CG  PRO d   1      57.010  -9.458   9.875  0.00  0.00    -0.048 C 
ATOM     13  H34 PRO d   1      56.312  -7.448  10.380  0.00  0.00     0.064 H 
ATOM     14  H35 PRO d   1      57.919  -7.865  11.067  0.00  0.00     0.064 H 
ATOM     15  CB  PRO d   1      57.780  -9.768   8.569  0.00  0.00    -0.036 C 
ATOM     16  H32 PRO d   1      57.384 -10.089  10.695  0.00  0.00     0.035 H 
ATOM     17  H33 PRO d   1      55.934  -9.639   9.733  0.00  0.00     0.035 H 
ATOM     18  H30 PRO d   1      58.742 -10.250   8.799  0.00  0.00     0.036 H 
ATOM     19  H31 PRO d   1      57.184 -10.430   7.923  0.00  0.00     0.036 H 
ATOM     20  H29 PRO d   1      59.006  -8.389   7.403  0.00  0.00     0.087 H 
BRANCH   9  21
ATOM     21  C4  MN1 d   1      58.190  -5.342  10.117  0.00  0.00     0.027 C 
ATOM     22  C3  MN1 d   1      58.297  -3.868   9.715  0.00  0.00    -0.039 C 
ATOM     23  C2  MN1 d   1      58.010  -2.997  10.940  0.00  0.00    -0.001 C 
ATOM     24  H22 MN1 d   1      59.311  -3.660   9.343  0.00  0.00     0.036 H 
ATOM     25  H23 MN1 d   1      57.564  -3.647   8.925  0.00  0.00     0.036 H 
ATOM     26  N1  MN1 d   1      58.949  -3.399  12.036  0.00  0.00    -0.347 N 
ATOM     27  H20 MN1 d   1      58.165  -1.938  10.687  0.00  0.00     0.064 H 
ATOM     28  H21 MN1 d   1      56.971  -3.147  11.267  0.00  0.00     0.064 H 
ATOM     29  C1  MN8 d   1      59.697  -2.522  12.676  0.00  0.00     0.273 C 
ATOM     30  C6  MN1 d   1      59.029  -4.838  12.405  0.00  0.00    -0.001 C 
ATOM     31  O1  MN8 d   1      60.463  -2.826  13.568  0.00  0.00    -0.266 OA
ATOM     32  C5  MN1 d   1      59.293  -5.648  11.134  0.00  0.00    -0.039 C 
ATOM     33  H27 MN1 d   1      58.080  -5.159  12.859  0.00  0.00     0.064 H 
ATOM     34  H28 MN1 d   1      59.849  -4.993  13.121  0.00  0.00     0.064 H 
ATOM     35  H25 MN1 d   1      60.271  -5.369  10.714  0.00  0.00     0.036 H 
ATOM     36  H26 MN1 d   1      59.289  -6.722  11.372  0.00  0.00     0.036 H 
ATOM     37  H24 MN1 d   1      57.205  -5.536  10.566  0.00  0.00     0.054 H 
BRANCH  29  38
ATOM     38  C2  MN8 d   1      59.581  -1.181  12.275  0.00  0.00     0.139 A 
ATOM     39  C3  MN8 d   1      60.416  -0.519  11.435  0.00  0.00     0.022 A 
ATOM     40  S7  MN8 d   1      59.864   1.112  11.251  0.00  0.00    -0.074 SA
ATOM     41  C8  MN8 d   1      58.549   0.749  12.331  0.00  0.00     0.099 A 
ATOM     42  N9  MN8 d   1      58.521  -0.485  12.793  0.00  0.00    -0.237 NA
BRANCH  39  43
ATOM     43  C4  MN8 d   1      61.643  -1.011  10.726  0.00  0.00    -0.027 C 
ATOM     44  H4  MN8 d   1      61.936  -1.989  11.136  0.00  0.00     0.047 H 
BRANCH  43  45
ATOM     45  C5  MN8 d   1      61.348  -1.152   9.232  0.00  0.00    -0.069 C 
ATOM     46  H5  MN8 d   1      62.248  -1.513   8.713  0.00  0.00     0.028 H 
ATOM     47  H6  MN8 d   1      61.056  -0.174   8.822  0.00  0.00     0.028 H 
ATOM     48  H7  MN8 d   1      60.528  -1.871   9.086  0.00  0.00     0.028 H 
ENDBRANCH  43  45
BRANCH  43  49
ATOM     49  C6  MN8 d   1      62.783  -0.011  10.929  0.00  0.00    -0.069 C 
ATOM     50  H8  MN8 d   1      62.995   0.090  12.004  0.00  0.00     0.028 H 
ATOM     51  H9  MN8 d   1      62.490   0.967  10.519  0.00  0.00     0.028 H 
ATOM     52  H10 MN8 d   1      63.684  -0.371  10.410  0.00  0.00     0.028 H 
ENDBRANCH  43  49
ENDBRANCH  39  43
BRANCH  41  53
ATOM     53  C10 MN8 d   1      57.564   1.831  12.663  0.00  0.00     0.067 C 
ATOM     54  N11 MN8 d   1      57.416   2.741  11.496  0.00  0.00    -0.337 N 
ATOM     55  C   ACE d   1      57.985   3.924  11.537  0.00  0.00     0.216 C 
ATOM     56  C12 MN8 d   1      56.634   2.322  10.285  0.00  0.00     0.023 C 
ATOM     57  O   ACE d   1      58.632   4.326  12.483  0.00  0.00    -0.274 OA
ATOM     58  C13 MN8 d   1      55.911   1.003  10.500  0.00  0.00    -0.034 A 
ATOM     59  H12 MN8 d   1      57.325   2.213   9.436  0.00  0.00     0.071 H 
ATOM     60  H13 MN8 d   1      55.891   3.100  10.056  0.00  0.00     0.071 H 
ATOM     61  C14 MN8 d   1      55.702   0.484  11.789  0.00  0.00    -0.048 A 
ATOM     62  C19 MN8 d   1      55.433   0.300   9.386  0.00  0.00    -0.075 A 
ATOM     63  C15 MN8 d   1      56.211   1.219  12.995  0.00  0.00    -0.016 C 
ATOM     64  C16 MN8 d   1      55.020  -0.728  11.954  0.00  0.00    -0.076 A 
ATOM     65  H14 MN8 d   1      55.503   2.015  13.269  0.00  0.00     0.043 H 
ATOM     66  H15 MN8 d   1      56.319   0.519  13.836  0.00  0.00     0.043 H 
ATOM     67  C17 MN8 d   1      54.546  -1.424  10.839  0.00  0.00    -0.082 A 
ATOM     68  H16 MN8 d   1      54.859  -1.127  12.949  0.00  0.00     0.084 H 
ATOM     69  C18 MN8 d   1      54.753  -0.911   9.555  0.00  0.00    -0.082 A 
ATOM     70  H17 MN8 d   1      54.018  -2.362  10.970  0.00  0.00     0.083 H 
ATOM     71  H18 MN8 d   1      54.386  -1.452   8.690  0.00  0.00     0.083 H 
ATOM     72  H19 MN8 d   1      55.591   0.696   8.389  0.00  0.00     0.084 H 
ATOM     73  H11 MN8 d   1      57.929   2.402  13.530  0.00  0.00     0.084 H 
BRANCH  55  74
ATOM     74  CH3 ACE d   1      57.792   4.807  10.297  0.00  0.00    -0.003 C 
ATOM     75  H1  ACE d   1      57.182   4.270   9.556  0.00  0.00     0.040 H 
ATOM     76  H2  ACE d   1      58.773   5.046   9.861  0.00  0.00     0.040 H 
ATOM     77  H3  ACE d   1      57.283   5.738  10.586  0.00  0.00     0.040 H 
ENDBRANCH  55  74
ENDBRANCH  41  53
ENDBRANCH  29  38
ENDBRANCH   9  21
ENDBRANCH   4   7
ENDBRANCH   1   3
BRANCH   1  78
ATOM     78  C   LEU d   1      55.245  -9.196   4.479  0.00  0.00     0.243 C 
ATOM     79  O   LEU d   1      55.526 -10.269   4.975  0.00  0.00    -0.271 OA
ATOM     80  N   PRO d   1      54.102  -8.938   3.897  0.00  0.00    -0.337 N 
ATOM     81  CA  PRO d   1      53.027  -9.939   3.782  0.00  0.00     0.092 C 
ATOM     82  CD  PRO d   1      53.776  -7.627   3.298  0.00  0.00    -0.001 C 
ATOM     83  CB  PRO d   1      51.792  -9.102   3.439  0.00  0.00    -0.036 C 
ATOM     84  H47 PRO d   1      52.886 -10.479   4.730  0.00  0.00     0.087 H 
ATOM     85  CG  PRO d   1      52.317  -7.781   2.828  0.00  0.00    -0.048 C 
ATOM     86  H48 PRO d   1      51.208  -8.895   4.348  0.00  0.00     0.036 H 
ATOM     87  H49 PRO d   1      51.162  -9.634   2.711  0.00  0.00     0.036 H 
ATOM     88  H50 PRO d   1      51.713  -6.933   3.182  0.00  0.00     0.035 H 
ATOM     89  H51 PRO d   1      52.275  -7.828   1.730  0.00  0.00     0.035 H 
ATOM     90  H52 PRO d   1      54.439  -7.410   2.448  0.00  0.00     0.064 H 
ATOM     91  H53 PRO d   1      53.863  -6.824   4.045  0.00  0.00     0.064 H 
BRANCH  81  92
ATOM     92  C   PRO d   1      53.344 -10.938   2.663  0.00  0.00     0.243 C 
ATOM     93  O   PRO d   1      54.234 -10.713   1.867  0.00  0.00    -0.271 OA
ATOM     94  N   PRO d   1      52.602 -12.015   2.642  0.00  0.00    -0.337 N 
ATOM     95  CA  PRO d   1      52.775 -13.078   1.637  0.00  0.00     0.091 C 
ATOM     96  CD  PRO d   1      51.524 -12.274   3.618  0.00  0.00    -0.001 C 
ATOM     97  CB  PRO d   1      52.036 -14.272   2.250  0.00  0.00    -0.036 C 
ATOM     98  H54 PRO d   1      53.840 -13.309   1.484  0.00  0.00     0.087 H 
ATOM     99  CG  PRO d   1      51.023 -13.686   3.263  0.00  0.00    -0.048 C 
ATOM    100  H55 PRO d   1      52.747 -14.936   2.764  0.00  0.00     0.036 H 
ATOM    101  H56 PRO d   1      51.508 -14.835   1.467  0.00  0.00     0.036 H 
ATOM    102  H57 PRO d   1      50.983 -14.313   4.166  0.00  0.00     0.035 H 
ATOM    103  H58 PRO d   1      50.022 -13.631   2.810  0.00  0.00     0.035 H 
ATOM    104  H59 PRO d   1      50.716 -11.535   3.512  0.00  0.00     0.064 H 
ATOM    105  H60 PRO d   1      51.914 -12.246   4.646  0.00  0.00     0.064 H 
BRANCH  95 106
ATOM    106  C   PRO d   1      52.140 -12.670   0.303  0.00  0.00     0.241 C 
ATOM    107  O   PRO d   1      50.951 -12.816   0.101  0.00  0.00    -0.271 OA
ATOM    108  N   LEU d   1      52.927 -12.165  -0.611  0.00  0.00    -0.346 N 
ATOM    109  H61 LEU d   1      53.903 -12.053  -0.423  0.00  0.00     0.163 HD
BRANCH 108 110
ATOM    110  CA  LEU d   1      52.373 -11.756  -1.933  0.00  0.00     0.090 C 
ATOM    111  H62 LEU d   1      51.843 -10.798  -1.827  0.00  0.00     0.087 H 
BRANCH 110 112
ATOM    112  C   LEU d   1      51.391 -12.826  -2.426  0.00  0.00     0.243 C 
ATOM    113  O   LEU d   1      51.523 -13.986  -2.092  0.00  0.00    -0.271 OA
ATOM    114  N   PRO d   1      50.425 -12.393  -3.195  0.00  0.00    -0.337 N 
ATOM    115  CA  PRO d   1      49.383 -13.279  -3.744  0.00  0.00     0.091 C 
ATOM    116  CD  PRO d   1      50.287 -10.981  -3.595  0.00  0.00    -0.001 C 
ATOM    117  CB  PRO d   1      48.297 -12.302  -4.211  0.00  0.00    -0.036 C 
ATOM    118  H72 PRO d   1      48.995 -13.961  -2.973  0.00  0.00     0.087 H 
ATOM    119  CG  PRO d   1      49.000 -10.948  -4.432  0.00  0.00    -0.048 C 
ATOM    120  H73 PRO d   1      47.516 -12.205  -3.442  0.00  0.00     0.036 H 
ATOM    121  H74 PRO d   1      47.846 -12.655  -5.150  0.00  0.00     0.036 H 
ATOM    122  H75 PRO d   1      48.351 -10.124  -4.099  0.00  0.00     0.035 H 
ATOM    123  H76 PRO d   1      49.243 -10.816  -5.497  0.00  0.00     0.035 H 
ATOM    124  H77 PRO d   1      51.151 -10.660  -4.196  0.00  0.00     0.064 H 
ATOM    125  H78 PRO d   1      50.194 -10.333  -2.711  0.00  0.00     0.064 H 
BRANCH 115 126
ATOM    126  C   PRO d   1      49.934 -14.091  -4.920  0.00  0.00     0.238 C 
ATOM    127  O   PRO d   1      49.729 -15.286  -5.003  0.00  0.00    -0.271 OA
ATOM    128  N   NH2 d   1      50.632 -13.487  -5.842  0.00  0.00    -0.368 N 
ATOM    129  H79 NH2 d   1      50.997 -14.007  -6.614  0.00  0.00     0.159 HD
ATOM    130  H80 NH2 d   1      50.802 -12.504  -5.776  0.00  0.00     0.159 HD
ENDBRANCH 115 126
ENDBRANCH 110 112
BRANCH 110 131
ATOM    131  CB  LEU d   1      53.520 -11.590  -2.931  0.00  0.00    -0.035 C 
ATOM    132  H63 LEU d   1      53.182 -11.890  -3.934  0.00  0.00     0.037 H 
ATOM    133  H64 LEU d   1      54.368 -12.221  -2.626  0.00  0.00     0.037 H 
BRANCH 131 134
ATOM    134  CG  LEU d   1      53.956 -10.120  -2.955  0.00  0.00    -0.059 C 
ATOM    135  H65 LEU d   1      54.226  -9.799  -1.938  0.00  0.00     0.038 H 
BRANCH 134 136
ATOM    136  CD1 LEU d   1      55.153  -9.952  -3.884  0.00  0.00    -0.073 C 
ATOM    137  H66 LEU d   1      55.461  -8.896  -3.897  0.00  0.00     0.028 H 
ATOM    138  H67 LEU d   1      54.875 -10.266  -4.901  0.00  0.00     0.028 H 
ATOM    139  H68 LEU d   1      55.987 -10.573  -3.524  0.00  0.00     0.028 H 
ENDBRANCH 134 136
BRANCH 134 140
ATOM    140  CD2 LEU d   1      52.816  -9.260  -3.482  0.00  0.00    -0.073 C 
ATOM    141  H69 LEU d   1      51.941  -9.368  -2.824  0.00  0.00     0.028 H 
ATOM    142  H70 LEU d   1      52.552  -9.585  -4.499  0.00  0.00     0.028 H 
ATOM    143  H71 LEU d   1      53.131  -8.206  -3.503  0.00  0.00     0.028 H 
ENDBRANCH 134 140
ENDBRANCH 131 134
ENDBRANCH 110 131
ENDBRANCH 108 110
ENDBRANCH  95 106
ENDBRANCH  81  92
ENDBRANCH   1  78
BRANCH   1 144
ATOM    144  CB  LEU d   1      56.949  -7.939   3.151  0.00  0.00    -0.035 C 
ATOM    145  H38 LEU d   1      56.196  -7.949   2.349  0.00  0.00     0.037 H 
ATOM    146  H39 LEU d   1      57.630  -8.794   3.026  0.00  0.00     0.037 H 
BRANCH 144 147
ATOM    147  CG  LEU d   1      57.748  -6.637   3.083  0.00  0.00    -0.059 C 
ATOM    148  H40 LEU d   1      57.968  -6.288   4.103  0.00  0.00     0.038 H 
BRANCH 147 149
ATOM    149  CD1 LEU d   1      59.058  -6.881   2.333  0.00  0.00    -0.073 C 
ATOM    150  H41 LEU d   1      59.633  -5.944   2.284  0.00  0.00     0.028 H 
ATOM    151  H42 LEU d   1      58.837  -7.229   1.313  0.00  0.00     0.028 H 
ATOM    152  H43 LEU d   1      59.647  -7.645   2.862  0.00  0.00     0.028 H 
ENDBRANCH 147 149
BRANCH 147 153
ATOM    153  CD2 LEU d   1      56.929  -5.575   2.346  0.00  0.00    -0.073 C 
ATOM    154  H44 LEU d   1      55.986  -5.399   2.885  0.00  0.00     0.028 H 
ATOM    155  H45 LEU d   1      56.708  -5.924   1.327  0.00  0.00     0.028 H 
ATOM    156  H46 LEU d   1      57.503  -4.638   2.296  0.00  0.00     0.028 H 
ENDBRANCH 147 153
ENDBRANCH 144 147
ENDBRANCH   1 144
TORSDOF 23
