REMARK  32 active torsions:
REMARK  status: ('A' for Active; 'I' for Inactive)
REMARK    1  A    between atoms: N_1  and  CA_2 
REMARK    2  A    between atoms: CA_2  and  C_3 
REMARK       I    between atoms: C_3  and  N_5 
REMARK    3  A    between atoms: N_5  and  CA_6 
REMARK    4  A    between atoms: CA_6  and  C_7 
REMARK    5  A    between atoms: CA_6  and  CB_9 
REMARK       I    between atoms: C_7  and  N_19 
REMARK    6  A    between atoms: CB_9  and  CG_10 
REMARK    7  A    between atoms: N_19  and  CA_20 
REMARK    8  A    between atoms: CA_20  and  C_21 
REMARK    9  A    between atoms: CA_20  and  CB_23 
REMARK       I    between atoms: C_21  and  N_27 
REMARK   10  A    between atoms: CB_23  and  CG_24 
REMARK   11  A    between atoms: CG_24  and  CD1_25 
REMARK   12  A    between atoms: CG_24  and  CD2_26 
REMARK   13  A    between atoms: N_27  and  CA_28 
REMARK   14  A    between atoms: CA_28  and  C_29 
REMARK   15  A    between atoms: CA_28  and  CB_31 
REMARK       I    between atoms: C_29  and  N_39 
REMARK   16  A    between atoms: CB_31  and  CG_32 
REMARK   17  A    between atoms: CZ_37  and  OH_38 
REMARK   18  A    between atoms: N_39  and  CA_40 
REMARK   19  A    between atoms: CA_40  and  C_41 
REMARK   20  A    between atoms: CA_40  and  CB_43 
REMARK       I    between atoms: C_41  and  N_48 
REMARK   21  A    between atoms: CB_43  and  CG_44 
REMARK   22  A    between atoms: CG_44  and  CD_45 
REMARK   23  A    between atoms: N_48  and  CA_49 
REMARK   24  A    between atoms: CA_49  and  C_50 
REMARK   25  A    between atoms: CA_49  and  CB_52 
REMARK       I    between atoms: C_50  and  N_56 
REMARK   26  A    between atoms: CB_52  and  CG1_53 
REMARK   27  A    between atoms: CB_52  and  CG2_54 
REMARK   28  A    between atoms: CG1_53  and  CD1_55 
REMARK   29  A    between atoms: N_56  and  CA_57 
REMARK   30  A    between atoms: CA_57  and  C_58 
REMARK   31  A    between atoms: CA_57  and  CB_60 
REMARK   32  A    between atoms: CB_60  and  OG_61 
ROOT
ATOM      1  CA  TYR d   1      16.755  29.838  69.554  0.00  0.00     0.093 C 
ATOM      2  H28 TYR d   1      17.476  30.573  69.166  0.00  0.00     0.088 H 
ENDROOT
BRANCH   1   3
ATOM      3  N   TYR d   1      15.559  30.532  70.010  0.00  0.00    -0.346 N 
ATOM      4  C   LEU d   1      15.589  31.693  70.658  0.00  0.00     0.241 C 
ATOM      5  O   LEU d   1      16.623  32.278  70.953  0.00  0.00    -0.271 OA
ATOM      6  H27 TYR d   1      14.669  30.114  69.826  0.00  0.00     0.163 HD
BRANCH   4   7
ATOM      7  CA  LEU d   1      14.229  32.281  70.993  0.00  0.00     0.089 C 
ATOM      8  H17 LEU d   1      13.642  31.487  71.478  0.00  0.00     0.087 H 
BRANCH   7   9
ATOM      9  N   LEU d   1      14.217  33.425  71.893  0.00  0.00    -0.346 N 
ATOM     10  C   TRP d   1      13.324  33.481  72.883  0.00  0.00     0.241 C 
ATOM     11  O   TRP d   1      12.527  32.566  73.123  0.00  0.00    -0.271 OA
ATOM     12  H16 LEU d   1      14.876  34.167  71.770  0.00  0.00     0.163 HD
BRANCH  10  13
ATOM     13  CA  TRP d   1      13.340  34.729  73.746  0.00  0.00     0.093 C 
ATOM     14  H7  TRP d   1      13.512  35.602  73.099  0.00  0.00     0.088 H 
BRANCH  13  15
ATOM     15  N   TRP d   1      12.072  34.918  74.443  0.00  0.00    -0.346 N 
ATOM     16  C   GLY d   1      11.582  36.131  74.698  0.00  0.00     0.243 C 
ATOM     17  O   GLY d   1      12.150  37.155  74.355  0.00  0.00    -0.272 OA
ATOM     18  H6  TRP d   1      11.556  34.114  74.738  0.00  0.00     0.163 HD
BRANCH  16  19
ATOM     19  CA  GLY d   1      10.241  36.199  75.407  0.00  0.00     0.152 C 
ATOM     20  H4  GLY d   1       9.468  36.437  74.662  0.00  0.00     0.090 H 
ATOM     21  H5  GLY d   1      10.033  35.213  75.849  0.00  0.00     0.090 H 
BRANCH  19  22
ATOM     22  N   GLY d   1      10.180  37.192  76.460  0.00  0.00    -0.071 N 
ATOM     23  H1  GLY d   1       9.265  37.178  76.882  0.00  0.00     0.274 HD
ATOM     24  H2  GLY d   1      10.357  38.105  76.072  0.00  0.00     0.274 HD
ATOM     25  H3  GLY d   1      10.876  36.983  77.159  0.00  0.00     0.274 HD
ENDBRANCH  19  22
ENDBRANCH  16  19
ENDBRANCH  13  15
BRANCH  13  26
ATOM     26  CB  TRP d   1      14.475  34.623  74.736  0.00  0.00    -0.012 C 
ATOM     27  H8  TRP d   1      14.502  35.547  75.332  0.00  0.00     0.044 H 
ATOM     28  H9  TRP d   1      15.415  34.521  74.174  0.00  0.00     0.044 H 
BRANCH  26  29
ATOM     29  CG  TRP d   1      14.360  33.478  75.661  0.00  0.00    -0.028 A 
ATOM     30  CD1 TRP d   1      13.497  33.357  76.705  0.00  0.00    -0.015 A 
ATOM     31  NE1 TRP d   1      13.704  32.156  77.343  0.00  0.00    -0.365 N 
ATOM     32  H10 TRP d   1      12.754  34.099  76.993  0.00  0.00     0.112 H 
ATOM     33  CE2 TRP d   1      14.709  31.474  76.706  0.00  0.00     0.042 A 
ATOM     34  H11 TRP d   1      13.186  31.822  78.168  0.00  0.00     0.165 HD
ATOM     35  CD2 TRP d   1      15.154  32.283  75.643  0.00  0.00    -0.002 A 
ATOM     36  CZ2 TRP d   1      15.269  30.217  76.983  0.00  0.00    -0.056 A 
ATOM     37  CE3 TRP d   1      16.191  31.813  74.820  0.00  0.00    -0.070 A 
ATOM     38  CZ3 TRP d   1      16.750  30.562  75.094  0.00  0.00    -0.082 A 
ATOM     39  H12 TRP d   1      16.550  32.409  73.989  0.00  0.00     0.084 H 
ATOM     40  CH2 TRP d   1      16.280  29.778  76.166  0.00  0.00    -0.081 A 
ATOM     41  H14 TRP d   1      17.557  30.189  74.473  0.00  0.00     0.083 H 
ATOM     42  H15 TRP d   1      16.727  28.807  76.349  0.00  0.00     0.083 H 
ATOM     43  H13 TRP d   1      14.915  29.615  77.812  0.00  0.00     0.086 H 
ENDBRANCH  26  29
ENDBRANCH  13  26
ENDBRANCH  10  13
ENDBRANCH   7   9
BRANCH   7  44
ATOM     44  CB  LEU d   1      13.543  32.663  69.677  0.00  0.00    -0.035 C 
ATOM     45  H18 LEU d   1      13.285  31.728  69.159  0.00  0.00     0.037 H 
ATOM     46  H19 LEU d   1      14.274  33.225  69.077  0.00  0.00     0.037 H 
BRANCH  44  47
ATOM     47  CG  LEU d   1      12.275  33.505  69.753  0.00  0.00    -0.059 C 
ATOM     48  H20 LEU d   1      11.945  33.577  70.800  0.00  0.00     0.038 H 
BRANCH  47  49
ATOM     49  CD1 LEU d   1      12.555  34.884  69.218  0.00  0.00    -0.073 C 
ATOM     50  H21 LEU d   1      11.640  35.492  69.273  0.00  0.00     0.028 H 
ATOM     51  H22 LEU d   1      12.884  34.811  68.171  0.00  0.00     0.028 H 
ATOM     52  H23 LEU d   1      13.345  35.357  69.819  0.00  0.00     0.028 H 
ENDBRANCH  47  49
BRANCH  47  53
ATOM     53  CD2 LEU d   1      11.176  32.848  68.915  0.00  0.00    -0.073 C 
ATOM     54  H24 LEU d   1      10.970  31.840  69.305  0.00  0.00     0.028 H 
ATOM     55  H25 LEU d   1      11.507  32.776  67.868  0.00  0.00     0.028 H 
ATOM     56  H26 LEU d   1      10.261  33.456  68.969  0.00  0.00     0.028 H 
ENDBRANCH  47  53
ENDBRANCH  44  47
ENDBRANCH   7  44
ENDBRANCH   4   7
ENDBRANCH   1   3
BRANCH   1  57
ATOM     57  C   TYR d   1      16.336  28.895  68.421  0.00  0.00     0.241 C 
ATOM     58  O   TYR d   1      15.178  28.471  68.360  0.00  0.00    -0.271 OA
ATOM     59  N   GLU d   1      17.269  28.581  67.526  0.00  0.00    -0.346 N 
ATOM     60  H36 GLU d   1      18.188  28.963  67.628  0.00  0.00     0.163 HD
BRANCH  59  61
ATOM     61  CA  GLU d   1      16.991  27.693  66.396  0.00  0.00     0.090 C 
ATOM     62  H37 GLU d   1      15.969  27.910  66.051  0.00  0.00     0.087 H 
BRANCH  61  63
ATOM     63  C   GLU d   1      17.062  26.211  66.737  0.00  0.00     0.241 C 
ATOM     64  O   GLU d   1      17.933  25.765  67.483  0.00  0.00    -0.271 OA
ATOM     65  N   ILE d   1      16.152  25.440  66.166  0.00  0.00    -0.346 N 
ATOM     66  H42 ILE d   1      15.477  25.842  65.548  0.00  0.00     0.163 HD
BRANCH  65  67
ATOM     67  CA  ILE d   1      16.128  24.010  66.432  0.00  0.00     0.092 C 
ATOM     68  H43 ILE d   1      16.470  23.853  67.466  0.00  0.00     0.088 H 
BRANCH  67  69
ATOM     69  C   ILE d   1      17.048  23.235  65.501  0.00  0.00     0.241 C 
ATOM     70  O   ILE d   1      16.989  23.387  64.277  0.00  0.00    -0.271 OA
ATOM     71  N   SER d   1      17.904  22.409  66.095  0.00  0.00    -0.346 N 
ATOM     72  H53 SER d   1      17.903  22.346  67.093  0.00  0.00     0.163 HD
BRANCH  71  73
ATOM     73  CA  SER d   1      18.843  21.594  65.338  0.00  0.00     0.083 C 
ATOM     74  H54 SER d   1      19.153  20.758  65.983  0.00  0.00     0.086 H 
BRANCH  73  75
ATOM     75  C   SER d   1      20.088  22.360  64.944  0.00  0.00     0.112 C 
ATOM     76  O   SER d   1      20.112  22.895  63.818  0.00  0.00    -0.305 OA
ATOM     77  H55 SER d   1      20.936  22.441  65.623  0.00  0.00     0.146 H 
ENDBRANCH  73  75
BRANCH  73  78
ATOM     78  CB  SER d   1      18.171  21.008  64.086  0.00  0.00     0.041 C 
ATOM     79  H56 SER d   1      17.777  21.829  63.470  0.00  0.00     0.077 H 
ATOM     80  H57 SER d   1      17.344  20.351  64.394  0.00  0.00     0.077 H 
BRANCH  78  81
ATOM     81  OG  SER d   1      19.102  20.259  63.323  0.00  0.00    -0.398 OA
ATOM     82  H58 SER d   1      19.443  19.547  63.852  0.00  0.00     0.209 HD
ENDBRANCH  78  81
ENDBRANCH  73  78
ENDBRANCH  71  73
ENDBRANCH  67  69
BRANCH  67  83
ATOM     83  CB  ILE d   1      14.706  23.449  66.296  0.00  0.00    -0.030 C 
ATOM     84  H44 ILE d   1      14.273  23.815  65.353  0.00  0.00     0.043 H 
BRANCH  83  85
ATOM     85  CG1 ILE d   1      13.838  23.945  67.451  0.00  0.00    -0.063 C 
ATOM     86  H45 ILE d   1      12.810  23.589  67.291  0.00  0.00     0.033 H 
ATOM     87  H46 ILE d   1      13.850  25.045  67.448  0.00  0.00     0.033 H 
BRANCH  85  88
ATOM     88  CD1 ILE d   1      14.303  23.468  68.801  0.00  0.00    -0.076 C 
ATOM     89  H50 ILE d   1      13.634  23.863  69.580  0.00  0.00     0.027 H 
ATOM     90  H51 ILE d   1      15.328  23.825  68.983  0.00  0.00     0.027 H 
ATOM     91  H52 ILE d   1      14.287  22.368  68.827  0.00  0.00     0.027 H 
ENDBRANCH  85  88
ENDBRANCH  83  85
BRANCH  83  92
ATOM     92  CG2 ILE d   1      14.743  21.928  66.248  0.00  0.00    -0.071 C 
ATOM     93  H47 ILE d   1      15.374  21.603  65.408  0.00  0.00     0.028 H 
ATOM     94  H48 ILE d   1      13.723  21.541  66.111  0.00  0.00     0.028 H 
ATOM     95  H49 ILE d   1      15.159  21.541  67.190  0.00  0.00     0.028 H 
ENDBRANCH  83  92
ENDBRANCH  67  83
ENDBRANCH  65  67
ENDBRANCH  61  63
BRANCH  61  96
ATOM     96  CB  GLU d   1      17.958  27.973  65.253  0.00  0.00    -0.029 C 
ATOM     97  H38 GLU d   1      17.799  27.216  64.471  0.00  0.00     0.037 H 
ATOM     98  H39 GLU d   1      18.985  27.891  65.639  0.00  0.00     0.037 H 
BRANCH  96  99
ATOM     99  CG  GLU d   1      17.791  29.337  64.635  0.00  0.00     0.018 C 
ATOM    100  H40 GLU d   1      18.037  30.098  65.390  0.00  0.00     0.049 H 
ATOM    101  H41 GLU d   1      16.743  29.456  64.322  0.00  0.00     0.049 H 
BRANCH  99 102
ATOM    102  CD  GLU d   1      18.680  29.542  63.435  0.00  0.00     0.172 C 
ATOM    103  OE1 GLU d   1      18.707  28.648  62.556  0.00  0.00    -0.648 OA
ATOM    104  OE2 GLU d   1      19.339  30.601  63.370  0.00  0.00    -0.648 OA
ENDBRANCH  99 102
ENDBRANCH  96  99
ENDBRANCH  61  96
ENDBRANCH  59  61
ENDBRANCH   1  57
BRANCH   1 105
ATOM    105  CB  TYR d   1      17.414  29.068  70.705  0.00  0.00    -0.014 C 
ATOM    106  H29 TYR d   1      17.603  29.781  71.521  0.00  0.00     0.043 H 
ATOM    107  H30 TYR d   1      18.371  28.669  70.337  0.00  0.00     0.043 H 
BRANCH 105 108
ATOM    108  CG  TYR d   1      16.625  27.917  71.275  0.00  0.00    -0.056 A 
ATOM    109  CD1 TYR d   1      16.647  26.659  70.671  0.00  0.00    -0.074 A 
ATOM    110  CE1 TYR d   1      15.953  25.579  71.230  0.00  0.00    -0.051 A 
ATOM    111  H31 TYR d   1      17.210  26.516  69.756  0.00  0.00     0.084 H 
ATOM    112  CZ  TYR d   1      15.224  25.761  72.401  0.00  0.00     0.065 A 
ATOM    113  H33 TYR d   1      15.983  24.606  70.753  0.00  0.00     0.087 H 
ATOM    114  CE2 TYR d   1      15.180  27.004  73.012  0.00  0.00    -0.051 A 
ATOM    115  CD2 TYR d   1      15.882  28.074  72.449  0.00  0.00    -0.074 A 
ATOM    116  H34 TYR d   1      14.605  27.146  73.920  0.00  0.00     0.087 H 
ATOM    117  H32 TYR d   1      15.850  29.044  72.932  0.00  0.00     0.084 H 
BRANCH 112 118
ATOM    118  OH  TYR d   1      14.565  24.701  72.982  0.00  0.00    -0.361 OA
ATOM    119  H35 TYR d   1      14.687  23.924  72.450  0.00  0.00     0.217 HD
ENDBRANCH 112 118
ENDBRANCH 105 108
ENDBRANCH   1 105
TORSDOF 32
