REMARK  17 active torsions:
REMARK  status: ('A' for Active; 'I' for Inactive)
REMARK    1  A    between atoms: C54_1  and  C53_2 
REMARK    2  A    between atoms: C53_2  and  C52_4 
REMARK    3  A    between atoms: C52_4  and  C51_5 
REMARK    4  A    between atoms: C51_5  and  C14_6 
REMARK    5  A    between atoms: C11_10  and  C55_11 
REMARK    6  A    between atoms: C55_11  and  C56_12 
REMARK    7  A    between atoms: C55_11  and  C57_13 
REMARK    8  A    between atoms: C8_16  and  C58_17 
REMARK    9  A    between atoms: C58_17  and  C59_18 
REMARK   10  A    between atoms: C61_22  and  O68_23 
REMARK   11  A    between atoms: C23_36  and  C24_48 
REMARK   12  A    between atoms: C17_42  and  O73_43 
REMARK   13  A    between atoms: C16_44  and  C50_45 
REMARK   14  A    between atoms: C15_46  and  O72_47 
REMARK   15  A    between atoms: C24_48  and  C49_49 
REMARK   16  A    between atoms: C25_50  and  C26_51 
REMARK   17  A    between atoms: C26_51  and  O78_52 
ROOT
ATOM      1  C14 SFM d   1      28.117   6.285  37.775  0.00  0.00     0.049 C 
ATOM      2  C13 SFM d   1      29.064   5.085  37.709  0.00  0.00     0.225 C 
ATOM      3  O70 SFM d   1      28.583   3.980  37.625  0.00  0.00    -0.273 OA
ATOM      4  N12 SFM d   1      30.378   5.247  37.738  0.00  0.00    -0.347 N 
ATOM      5  C11 SFM d   1      31.217   4.064  37.724  0.00  0.00     0.092 C 
ATOM      6  C10 SFM d   1      31.846   4.115  39.109  0.00  0.00     0.241 C 
ATOM      7  N9  SFM d   1      31.560   3.161  39.982  0.00  0.00    -0.346 N 
ATOM      8  C8  SFM d   1      31.963   3.247  41.393  0.00  0.00     0.095 C 
ATOM      9  C7  SFM d   1      33.266   2.481  41.713  0.00  0.00     0.266 C 
ATOM     10  O67 SFM d   1      33.449   1.373  41.229  0.00  0.00    -0.269 OA
ATOM     11  N6  SFM d   1      34.188   3.090  42.523  0.00  0.00    -0.177 N 
ATOM     12  C5  SFM d   1      35.309   2.348  43.122  0.00  0.00     0.025 C 
ATOM     13  C4  SFM d   1      35.283   2.246  44.661  0.00  0.00    -0.046 C 
ATOM     14  C3  SFM d   1      34.937   3.591  45.281  0.00  0.00    -0.026 C 
ATOM     15  C2  SFM d   1      33.710   4.244  44.623  0.00  0.00     0.206 C 
ATOM     16  N65 SFM d   1      33.865   4.308  43.146  0.00  0.00     0.022 N 
ATOM     17  C1  SFM d   1      33.561   5.634  45.193  0.00  0.00     0.292 C 
ATOM     18  O66 SFM d   1      34.012   6.609  44.621  0.00  0.00    -0.263 OA
ATOM     19  O65 SFM d   1      32.914   5.622  46.347  0.00  0.00    -0.310 OA
ATOM     20  C23 SFM d   1      32.674   6.887  46.997  0.00  0.00     0.072 C 
ATOM     21  C22 SFM d   1      31.259   7.441  46.693  0.00  0.00    -0.021 C 
ATOM     22  C21 SFM d   1      31.063   7.856  45.247  0.00  0.00    -0.100 C 
ATOM     23  C20 SFM d   1      29.940   7.614  44.615  0.00  0.00    -0.087 C 
ATOM     24  C19 SFM d   1      29.782   7.977  43.357  0.00  0.00    -0.084 C 
ATOM     25  C18 SFM d   1      28.644   7.725  42.749  0.00  0.00    -0.075 C 
ATOM     26  C17 SFM d   1      28.504   8.146  41.268  0.00  0.00     0.057 C 
ATOM     27  C16 SFM d   1      28.359   6.906  40.360  0.00  0.00    -0.004 C 
ATOM     28  C15 SFM d   1      28.566   7.350  38.860  0.00  0.00     0.053 C 
ATOM     29  O69 SFM d   1      32.629   5.019  39.413  0.00  0.00    -0.271 OA
ATOM     30  H8  SFM d   1      27.099   5.948  38.019  0.00  0.00     0.058 H 
ATOM     31  H9  SFM d   1      30.781   6.162  37.769  0.00  0.00     0.163 HD
ATOM     32  H10 SFM d   1      30.618   3.152  37.581  0.00  0.00     0.088 H 
ATOM     33  H18 SFM d   1      31.054   2.357  39.671  0.00  0.00     0.163 HD
ATOM     34  H19 SFM d   1      32.115   4.301  41.670  0.00  0.00     0.088 H 
ATOM     35  H27 SFM d   1      36.243   2.850  42.830  0.00  0.00     0.067 H 
ATOM     36  H28 SFM d   1      35.298   1.327  42.713  0.00  0.00     0.067 H 
ATOM     37  H29 SFM d   1      36.273   1.927  45.019  0.00  0.00     0.035 H 
ATOM     38  H30 SFM d   1      34.528   1.505  44.962  0.00  0.00     0.035 H 
ATOM     39  H31 SFM d   1      35.799   4.265  45.166  0.00  0.00     0.036 H 
ATOM     40  H32 SFM d   1      34.727   3.443  46.350  0.00  0.00     0.036 H 
ATOM     41  H33 SFM d   1      32.813   3.653  44.860  0.00  0.00     0.104 H 
ATOM     42  H34 SFM d   1      32.996   4.637  42.756  0.00  0.00     0.307 HD
ATOM     43  H35 SFM d   1      34.598   4.968  42.938  0.00  0.00     0.307 HD
ATOM     44  H36 SFM d   1      33.425   7.624  46.675  0.00  0.00     0.091 H 
ATOM     45  H37 SFM d   1      31.085   8.319  47.333  0.00  0.00     0.043 H 
ATOM     46  H38 SFM d   1      30.522   6.661  46.933  0.00  0.00     0.043 H 
ATOM     47  H39 SFM d   1      31.871   8.365  44.724  0.00  0.00     0.076 H 
ATOM     48  H40 SFM d   1      29.128   7.107  45.135  0.00  0.00     0.083 H 
ATOM     49  H41 SFM d   1      30.588   8.482  42.826  0.00  0.00     0.083 H 
ATOM     50  H42 SFM d   1      27.825   7.235  43.273  0.00  0.00     0.080 H 
ATOM     51  H43 SFM d   1      29.441   8.649  40.986  0.00  0.00     0.089 H 
ATOM     52  H45 SFM d   1      27.378   6.427  40.491  0.00  0.00     0.047 H 
ATOM     53  H49 SFM d   1      27.955   8.252  38.704  0.00  0.00     0.085 H 
ENDROOT
BRANCH   8  54
ATOM     54  C58 SFM d   1      30.743   2.680  42.144  0.00  0.00    -0.014 C 
ATOM     55  H20 SFM d   1      30.539   1.679  41.737  0.00  0.00     0.043 H 
ATOM     56  H21 SFM d   1      29.889   3.341  41.936  0.00  0.00     0.043 H 
BRANCH  54  57
ATOM     57  C59 SFM d   1      30.861   2.549  43.625  0.00  0.00    -0.053 A 
ATOM     58  C64 SFM d   1      30.417   3.569  44.452  0.00  0.00    -0.077 A 
ATOM     59  C63 SFM d   1      30.533   3.492  45.827  0.00  0.00    -0.080 A 
ATOM     60  H22 SFM d   1      29.967   4.450  44.009  0.00  0.00     0.084 H 
ATOM     61  C62 SFM d   1      31.057   2.345  46.413  0.00  0.00    -0.051 A 
ATOM     62  H23 SFM d   1      30.216   4.323  46.447  0.00  0.00     0.083 H 
ATOM     63  C61 SFM d   1      31.466   1.307  45.581  0.00  0.00     0.066 A 
ATOM     64  H24 SFM d   1      31.145   2.261  47.490  0.00  0.00     0.087 H 
ATOM     65  C60 SFM d   1      31.384   1.403  44.212  0.00  0.00    -0.045 A 
ATOM     66  H26 SFM d   1      31.727   0.584  43.590  0.00  0.00     0.088 H 
BRANCH  63  67
ATOM     67  O68 SFM d   1      31.970   0.166  46.117  0.00  0.00    -0.361 OA
ATOM     68  H25 SFM d   1      32.199  -0.436  45.419  0.00  0.00     0.217 HD
ENDBRANCH  63  67
ENDBRANCH  54  57
ENDBRANCH   8  54
BRANCH   5  69
ATOM     69  C55 SFM d   1      32.331   4.137  36.635  0.00  0.00    -0.033 C 
ATOM     70  H11 SFM d   1      32.851   5.104  36.696  0.00  0.00     0.042 H 
BRANCH  69  71
ATOM     71  C56 SFM d   1      31.720   3.929  35.223  0.00  0.00    -0.071 C 
ATOM     72  H12 SFM d   1      32.517   3.983  34.467  0.00  0.00     0.028 H 
ATOM     73  H13 SFM d   1      30.975   4.714  35.027  0.00  0.00     0.028 H 
ATOM     74  H14 SFM d   1      31.235   2.943  35.175  0.00  0.00     0.028 H 
ENDBRANCH  69  71
BRANCH  69  75
ATOM     75  C57 SFM d   1      33.310   2.978  36.828  0.00  0.00    -0.071 C 
ATOM     76  H15 SFM d   1      33.785   3.060  37.816  0.00  0.00     0.028 H 
ATOM     77  H16 SFM d   1      34.082   3.016  36.045  0.00  0.00     0.028 H 
ATOM     78  H17 SFM d   1      32.767   2.024  36.761  0.00  0.00     0.028 H 
ENDBRANCH  69  75
ENDBRANCH   5  69
BRANCH   1  79
ATOM     79  C51 SFM d   1      28.155   6.862  36.353  0.00  0.00    -0.045 C 
ATOM     80  H6  SFM d   1      27.544   7.776  36.320  0.00  0.00     0.035 H 
ATOM     81  H7  SFM d   1      29.195   7.107  36.092  0.00  0.00     0.035 H 
BRANCH  79  82
ATOM     82  C52 SFM d   1      27.611   5.863  35.342  0.00  0.00    -0.009 C 
ATOM     83  H4  SFM d   1      28.285   4.994  35.308  0.00  0.00     0.044 H 
ATOM     84  H5  SFM d   1      26.612   5.540  35.669  0.00  0.00     0.044 H 
BRANCH  82  85
ATOM     85  C53 SFM d   1      27.501   6.441  33.960  0.00  0.00     0.123 C 
ATOM     86  O71 SFM d   1      27.155   7.598  33.739  0.00  0.00    -0.298 OA
BRANCH  85  87
ATOM     87  C54 SFM d   1      27.838   5.634  32.702  0.00  0.00    -0.021 C 
ATOM     88  H1  SFM d   1      28.137   4.615  32.989  0.00  0.00     0.037 H 
ATOM     89  H2  SFM d   1      28.665   6.121  32.165  0.00  0.00     0.037 H 
ATOM     90  H3  SFM d   1      26.954   5.587  32.049  0.00  0.00     0.037 H 
ENDBRANCH  85  87
ENDBRANCH  82  85
ENDBRANCH  79  82
ENDBRANCH   1  79
BRANCH  28  91
ATOM     91  O72 SFM d   1      29.942   7.694  38.631  0.00  0.00    -0.394 OA
ATOM     92  H50 SFM d   1      30.188   8.410  39.205  0.00  0.00     0.210 HD
ENDBRANCH  28  91
BRANCH  20  93
ATOM     93  C24 SFM d   1      32.810   6.606  48.468  0.00  0.00    -0.056 C 
ATOM     94  C25 SFM d   1      33.232   7.477  49.304  0.00  0.00    -0.076 C 
ATOM     95  H54 SFM d   1      33.534   8.472  48.979  0.00  0.00     0.080 H 
BRANCH  93  96
ATOM     96  C49 SFM d   1      32.361   5.238  48.929  0.00  0.00    -0.052 C 
ATOM     97  H51 SFM d   1      32.508   5.151  50.016  0.00  0.00     0.033 H 
ATOM     98  H52 SFM d   1      32.953   4.466  48.416  0.00  0.00     0.033 H 
ATOM     99  H53 SFM d   1      31.296   5.102  48.691  0.00  0.00     0.033 H 
ENDBRANCH  93  96
BRANCH  94 100
ATOM    100  C26 SFM d   1      33.295   7.077  50.750  0.00  0.00     0.032 C 
ATOM    101  H55 SFM d   1      33.923   6.181  50.866  0.00  0.00     0.080 H 
ATOM    102  H56 SFM d   1      32.283   6.867  51.128  0.00  0.00     0.080 H 
BRANCH 100 103
ATOM    103  O78 SFM d   1      33.850   8.139  51.444  0.00  0.00    -0.397 OA
ATOM    104  H57 SFM d   1      33.304   8.908  51.333  0.00  0.00     0.209 HD
ENDBRANCH 100 103
ENDBRANCH  94 100
ENDBRANCH  20  93
BRANCH  27 105
ATOM    105  C50 SFM d   1      29.497   5.962  40.765  0.00  0.00    -0.068 C 
ATOM    106  H46 SFM d   1      29.453   5.050  40.152  0.00  0.00     0.028 H 
ATOM    107  H47 SFM d   1      29.392   5.695  41.827  0.00  0.00     0.028 H 
ATOM    108  H48 SFM d   1      30.463   6.463  40.607  0.00  0.00     0.028 H 
ENDBRANCH  27 105
BRANCH  26 109
ATOM    109  O73 SFM d   1      27.451   9.086  41.055  0.00  0.00    -0.391 OA
ATOM    110  H44 SFM d   1      27.409   9.309  40.133  0.00  0.00     0.210 HD
ENDBRANCH  26 109
TORSDOF 17
