REMARK  12 active torsions:
REMARK  status: ('A' for Active; 'I' for Inactive)
REMARK    1  A    between atoms: C1_1  and  C2_2 
REMARK    2  A    between atoms: C2_2  and  C3_4 
REMARK    3  A    between atoms: C3_4  and  C25_5 
REMARK    4  A    between atoms: C3_4  and  N4_9 
REMARK    5  A    between atoms: C25_5  and  C26_6 
REMARK       I    between atoms: N4_9  and  C5_10 
REMARK    6  A    between atoms: C5_10  and  C6_12 
REMARK    7  A    between atoms: C9_17  and  C12_18 
REMARK    8  A    between atoms: C12_18  and  N13_19 
REMARK    9  A    between atoms: N13_19  and  S14_20 
REMARK   10  A    between atoms: S14_20  and  C15_23 
REMARK   11  A    between atoms: C18_27  and  O23_28 
REMARK   12  A    between atoms: C17_29  and  C21_30 
ROOT
ATOM      1  C6  NON d   1      20.411   2.607  -6.263  0.00  0.00     0.032 A 
ATOM      2  C7  NON d   1      20.829   3.462  -5.240  0.00  0.00    -0.067 A 
ATOM      3  C8  NON d   1      21.828   4.421  -5.423  0.00  0.00    -0.074 A 
ATOM      4  C11 NON d   1      20.999   2.683  -7.512  0.00  0.00    -0.067 A 
ATOM      5  C10 NON d   1      22.002   3.630  -7.705  0.00  0.00    -0.074 A 
ATOM      6  C9  NON d   1      22.441   4.478  -6.684  0.00  0.00    -0.040 A 
ATOM      7  H8  NON d   1      20.360   3.378  -4.266  0.00  0.00     0.085 H 
ATOM      8  H9  NON d   1      22.118   5.093  -4.624  0.00  0.00     0.084 H 
ATOM      9  H10 NON d   1      20.689   2.026  -8.316  0.00  0.00     0.085 H 
ATOM     10  H11 NON d   1      22.460   3.713  -8.684  0.00  0.00     0.084 H 
ENDROOT
BRANCH   6  11
ATOM     11  C12 NON d   1      23.530   5.504  -6.949  0.00  0.00     0.026 C 
ATOM     12  H12 NON d   1      23.634   6.186  -6.092  0.00  0.00     0.072 H 
ATOM     13  H13 NON d   1      23.300   6.085  -7.854  0.00  0.00     0.072 H 
BRANCH  11  14
ATOM     14  N13 NON d   1      24.741   4.734  -7.135  0.00  0.00    -0.311 N 
ATOM     15  H14 NON d   1      24.796   3.771  -6.870  0.00  0.00     0.172 HD
BRANCH  14  16
ATOM     16  S14 NON d   1      26.072   5.548  -7.829  0.00  0.00     0.259 S 
ATOM     17  O30 NON d   1      27.247   4.698  -7.627  0.00  0.00    -0.201 OA
ATOM     18  O31 NON d   1      25.601   5.932  -9.181  0.00  0.00    -0.201 OA
BRANCH  16  19
ATOM     19  C15 NON d   1      26.295   6.966  -6.855  0.00  0.00     0.080 A 
ATOM     20  C16 NON d   1      26.706   6.769  -5.544  0.00  0.00    -0.041 A 
ATOM     21  C17 NON d   1      26.901   7.867  -4.696  0.00  0.00     0.075 A 
ATOM     22  H15 NON d   1      26.876   5.764  -5.176  0.00  0.00     0.087 H 
ATOM     23  C18 NON d   1      26.683   9.213  -5.223  0.00  0.00     0.082 A 
ATOM     24  C19 NON d   1      26.252   9.352  -6.540  0.00  0.00    -0.048 A 
ATOM     25  C20 NON d   1      26.052   8.236  -7.357  0.00  0.00    -0.058 A 
ATOM     26  H17 NON d   1      26.068  10.343  -6.938  0.00  0.00     0.087 H 
ATOM     27  H16 NON d   1      25.709   8.362  -8.377  0.00  0.00     0.086 H 
BRANCH  21  28
ATOM     28  C21 NON d   1      27.372   7.708  -3.290  0.00  0.00     0.212 C 
ATOM     29  O32 NON d   1      27.583   6.564  -2.859  0.00  0.00    -0.644 OA
ATOM     30  O22 NON d   1      27.586   8.725  -2.613  0.00  0.00    -0.644 OA
ENDBRANCH  21  28
BRANCH  23  31
ATOM     31  O23 NON d   1      26.898  10.186  -4.468  0.00  0.00    -0.360 OA
ATOM     32  H18 NON d   1      27.183   9.870  -3.619  0.00  0.00     0.217 HD
ENDBRANCH  23  31
ENDBRANCH  16  19
ENDBRANCH  14  16
ENDBRANCH  11  14
ENDBRANCH   6  11
BRANCH   1  33
ATOM     33  C5  NON d   1      19.347   1.569  -6.044  0.00  0.00     0.252 C 
ATOM     34  N4  NON d   1      18.869   1.322  -4.822  0.00  0.00    -0.345 N 
ATOM     35  H7  NON d   1      19.015   1.993  -4.095  0.00  0.00     0.163 HD
ATOM     36  O29 NON d   1      18.946   0.918  -6.998  0.00  0.00    -0.268 OA
BRANCH  34  37
ATOM     37  C3  NON d   1      18.142   0.100  -4.525  0.00  0.00     0.079 C 
ATOM     38  H4  NON d   1      18.324  -0.589  -5.363  0.00  0.00     0.085 H 
BRANCH  37  39
ATOM     39  C2  NON d   1      16.621   0.241  -4.430  0.00  0.00     0.146 C 
ATOM     40  O24 NON d   1      15.954  -0.679  -3.949  0.00  0.00    -0.296 OA
BRANCH  39  41
ATOM     41  C1  NON d   1      15.899   1.424  -5.004  0.00  0.00    -0.019 C 
ATOM     42  H1  NON d   1      16.631   2.149  -5.389  0.00  0.00     0.037 H 
ATOM     43  H2  NON d   1      15.291   1.898  -4.220  0.00  0.00     0.037 H 
ATOM     44  H3  NON d   1      15.246   1.092  -5.824  0.00  0.00     0.037 H 
ENDBRANCH  39  41
ENDBRANCH  37  39
BRANCH  37  45
ATOM     45  C25 NON d   1      18.774  -0.519  -3.288  0.00  0.00     0.041 C 
ATOM     46  H5  NON d   1      18.101  -1.302  -2.908  0.00  0.00     0.052 H 
ATOM     47  H6  NON d   1      18.891   0.266  -2.526  0.00  0.00     0.052 H 
BRANCH  45  48
ATOM     48  C26 NON d   1      20.007  -1.082  -3.527  0.00  0.00     0.174 C 
ATOM     49  O28 NON d   1      20.335  -1.387  -4.674  0.00  0.00    -0.648 OA
ATOM     50  O27 NON d   1      20.812  -1.296  -2.627  0.00  0.00    -0.648 OA
ENDBRANCH  45  48
ENDBRANCH  37  45
ENDBRANCH  34  37
ENDBRANCH   1  33
TORSDOF 12
