REMARK  10 active torsions:
REMARK  status: ('A' for Active; 'I' for Inactive)
REMARK    1  A    between atoms: C2_2  and  C1_1 
REMARK    2  A    between atoms: C4_4  and  O4_15 
REMARK    3  A    between atoms: N5_12  and  C5_5 
REMARK    4  A    between atoms: C6_6  and  C7_7 
REMARK    5  A    between atoms: C7_7  and  C8_8 
REMARK    6  A    between atoms: C7_7  and  O7_17 
REMARK    7  A    between atoms: C8_8  and  C9_9 
REMARK    8  A    between atoms: C8_8  and  O8_18 
REMARK    9  A    between atoms: C9_9  and  O9_19 
REMARK   10  A    between atoms: C10_10  and  C11_11 
REMARK       I    between atoms: C10_10  and  N5_12 
ROOT
ATOM      1  C2  DAN d   1      24.655  18.979  64.805  0.00  0.00     0.144 C 
ATOM      2  C3  DAN d   1      24.202  17.546  64.591  0.00  0.00    -0.035 C 
ATOM      3  C4  DAN d   1      24.707  16.856  63.362  0.00  0.00     0.076 C 
ATOM      4  C5  DAN d   1      26.246  17.026  63.502  0.00  0.00     0.068 C 
ATOM      5  C6  DAN d   1      26.618  18.484  63.266  0.00  0.00     0.094 C 
ATOM      6  O6  DAN d   1      25.711  19.437  63.940  0.00  0.00    -0.335 OA
ATOM      7  H1  DAN d   1      23.542  17.044  65.297  0.00  0.00     0.085 H 
ATOM      8  H2  DAN d   1      24.379  17.470  62.510  0.00  0.00     0.092 H 
ATOM      9  H3  DAN d   1      26.540  16.724  64.518  0.00  0.00     0.081 H 
ATOM     10  H4  DAN d   1      26.598  18.675  62.183  0.00  0.00     0.091 H 
ENDROOT
BRANCH   5  11
ATOM     11  C7  DAN d   1      28.030  18.762  63.817  0.00  0.00     0.089 C 
ATOM     12  H5  DAN d   1      28.759  18.131  63.287  0.00  0.00     0.091 H 
BRANCH  11  13
ATOM     13  C8  DAN d   1      28.328  20.269  63.489  0.00  0.00     0.083 C 
ATOM     14  H6  DAN d   1      27.608  20.931  63.991  0.00  0.00     0.090 H 
BRANCH  13  15
ATOM     15  C9  DAN d   1      29.809  20.707  63.886  0.00  0.00     0.043 C 
ATOM     16  H7  DAN d   1      29.990  20.483  64.948  0.00  0.00     0.078 H 
ATOM     17  H8  DAN d   1      29.937  21.786  63.712  0.00  0.00     0.078 H 
BRANCH  15  18
ATOM     18  O9  DAN d   1      30.736  19.970  63.069  0.00  0.00    -0.398 OA
ATOM     19  H16 DAN d   1      30.574  20.165  62.153  0.00  0.00     0.209 HD
ENDBRANCH  15  18
ENDBRANCH  13  15
BRANCH  13  20
ATOM     20  O8  DAN d   1      28.160  20.292  62.088  0.00  0.00    -0.391 OA
ATOM     21  H15 DAN d   1      28.317  21.172  61.766  0.00  0.00     0.210 HD
ENDBRANCH  13  20
ENDBRANCH  11  13
BRANCH  11  22
ATOM     22  O7  DAN d   1      28.117  18.449  65.235  0.00  0.00    -0.390 OA
ATOM     23  H14 DAN d   1      27.487  18.975  65.713  0.00  0.00     0.210 HD
ENDBRANCH  11  22
ENDBRANCH   5  11
BRANCH   4  24
ATOM     24  N5  DAN d   1      27.009  16.242  62.528  0.00  0.00    -0.351 N 
ATOM     25  C10 DAN d   1      27.413  14.977  62.594  0.00  0.00     0.214 C 
ATOM     26  O10 DAN d   1      27.447  14.340  63.648  0.00  0.00    -0.274 OA
ATOM     27  H12 DAN d   1      27.263  16.729  61.692  0.00  0.00     0.163 HD
BRANCH  25  28
ATOM     28  C11 DAN d   1      28.082  14.334  61.376  0.00  0.00    -0.003 C 
ATOM     29  H9  DAN d   1      28.348  13.293  61.611  0.00  0.00     0.040 H 
ATOM     30  H10 DAN d   1      28.992  14.896  61.118  0.00  0.00     0.040 H 
ATOM     31  H11 DAN d   1      27.387  14.352  60.524  0.00  0.00     0.040 H 
ENDBRANCH  25  28
ENDBRANCH   4  24
BRANCH   3  32
ATOM     32  O4  DAN d   1      24.285  15.524  63.010  0.00  0.00    -0.389 OA
ATOM     33  H13 DAN d   1      23.338  15.500  62.944  0.00  0.00     0.210 HD
ENDBRANCH   3  32
BRANCH   1  34
ATOM     34  C1  DAN d   1      24.019  20.063  65.682  0.00  0.00     0.233 C 
ATOM     35  O1A DAN d   1      24.611  21.183  65.665  0.00  0.00    -0.642 OA
ATOM     36  O1B DAN d   1      22.794  19.958  65.975  0.00  0.00    -0.642 OA
ENDBRANCH   1  34
TORSDOF 10
