REMARK  4 active torsions:
REMARK  status: ('A' for Active; 'I' for Inactive)
REMARK    1  A    between atoms: C14_3  and  O2_12 
REMARK    2  A    between atoms: C9_8  and  O3_9 
REMARK    3  A    between atoms: O2_12  and  C3_13 
REMARK    4  A    between atoms: C2_19  and  O1_20 
ROOT
ATOM      1  C16 TCT d   1      52.765  89.760  35.337  0.00  0.00    -0.070 A 
ATOM      2  C15 TCT d   1      51.725  90.662  35.621  0.00  0.00    -0.049 A 
ATOM      3  C14 TCT d   1      51.696  91.963  35.053  0.00  0.00     0.077 A 
ATOM      4  C13 TCT d   1      52.741  92.378  34.165  0.00  0.00    -0.040 A 
ATOM      5  C12 TCT d   1      53.799  91.487  33.857  0.00  0.00    -0.023 A 
ATOM      6  C11 TCT d   1      53.807  90.133  34.471  0.00  0.00    -0.023 A 
ATOM      7  C10 TCT d   1      54.859  89.240  34.175  0.00  0.00    -0.040 A 
ATOM      8  C9  TCT d   1      55.891  89.631  33.304  0.00  0.00     0.066 A 
ATOM      9  C8  TCT d   1      55.890  90.924  32.709  0.00  0.00    -0.050 A 
ATOM     10  C7  TCT d   1      54.854  91.851  32.981  0.00  0.00    -0.070 A 
ATOM     11  H   TCT d   1      52.763  88.769  35.790  0.00  0.00     0.085 H 
ATOM     12  H   TCT d   1      50.923  90.356  36.292  0.00  0.00     0.087 H 
ATOM     13  H   TCT d   1      52.722  93.376  33.728  0.00  0.00     0.089 H 
ATOM     14  H   TCT d   1      54.871  88.246  34.622  0.00  0.00     0.089 H 
ATOM     15  H   TCT d   1      56.698  91.205  32.034  0.00  0.00     0.087 H 
ATOM     16  H   TCT d   1      54.867  92.838  32.520  0.00  0.00     0.085 H 
ENDROOT
BRANCH   3  17
ATOM     17  O2  TCT d   1      50.623  92.786  35.425  0.00  0.00    -0.308 OA
BRANCH  17  18
ATOM     18  C3  TCT d   1      50.414  94.123  35.019  0.00  0.00     0.109 A 
ATOM     19  C4  TCT d   1      51.088  95.170  35.723  0.00  0.00    -0.046 A 
ATOM     20  C5  TCT d   1      50.885  96.532  35.376  0.00  0.00    -0.059 A 
ATOM     21  H   TCT d   1      51.767  94.919  36.538  0.00  0.00     0.087 H 
ATOM     22  C6  TCT d   1      50.004  96.875  34.326  0.00  0.00     0.036 A 
ATOM     23  H   TCT d   1      51.411  97.316  35.922  0.00  0.00     0.086 H 
ATOM     24 CL1  TCT d   1      49.748  98.568  33.933  0.00  0.00    -0.084 Cl
ATOM     25  C1  TCT d   1      49.328  95.843  33.606  0.00  0.00    -0.027 A 
ATOM     26  C2  TCT d   1      49.535  94.464  33.950  0.00  0.00     0.101 A 
ATOM     27  H   TCT d   1      48.652  96.103  32.792  0.00  0.00     0.090 H 
BRANCH  26  28
ATOM     28  O1  TCT d   1      48.876  93.485  33.260  0.00  0.00    -0.358 OA
ATOM     29  H   TCT d   1      49.115  93.533  32.331  0.00  0.00     0.217 HD
ENDBRANCH  26  28
ENDBRANCH  17  18
ENDBRANCH   3  17
BRANCH   8  30
ATOM     30  O3  TCT d   1      56.902  88.752  33.030  0.00  0.00    -0.361 OA
ATOM     31  H   TCT d   1      57.525  89.161  32.425  0.00  0.00     0.217 HD
ENDBRANCH   8  30
TORSDOF 4
