REMARK  2 active torsions:
REMARK  status: ('A' for Active; 'I' for Inactive)
REMARK       I    between atoms: C1_1  and  N5_3 
REMARK    1  A    between atoms: N5_3  and  C3_4 
REMARK    2  A    between atoms: N5_3  and  C9_10 
ROOT
ATOM      1  C1  4ND d   1      15.208 -10.480  19.546  0.00  0.00     0.179 C 
ATOM      2  O1  4ND d   1      16.204 -10.634  18.813  0.00  0.00    -0.283 OA
ATOM      3  N5  4ND d   1      14.824 -11.445  20.423  0.00  0.00    -0.290 N 
ATOM      4  H1  4ND d   1      14.635  -9.556  19.483  0.00  0.00     0.181 H 
ENDROOT
BRANCH   3   5
ATOM      5  C3  4ND d   1      13.648 -11.269  21.353  0.00  0.00     0.042 A 
ATOM      6  C4  4ND d   1      13.672 -10.251  22.351  0.00  0.00    -0.057 A 
ATOM      7  C5  4ND d   1      12.584 -10.091  23.253  0.00  0.00    -0.081 A 
ATOM      8  H2  4ND d   1      14.529  -9.591  22.423  0.00  0.00     0.086 H 
ATOM      9  C6  4ND d   1      11.461 -10.945  23.165  0.00  0.00    -0.083 A 
ATOM     10  H3  4ND d   1      12.616  -9.314  24.008  0.00  0.00     0.083 H 
ATOM     11  C7  4ND d   1      11.423 -11.960  22.170  0.00  0.00    -0.081 A 
ATOM     12  H4  4ND d   1      10.632 -10.826  23.853  0.00  0.00     0.083 H 
ATOM     13  C8  4ND d   1      12.505 -12.126  21.268  0.00  0.00    -0.057 A 
ATOM     14  H5  4ND d   1      10.560 -12.612  22.100  0.00  0.00     0.083 H 
ATOM     15  H6  4ND d   1      12.466 -12.903  20.513  0.00  0.00     0.086 H 
ENDBRANCH   3   5
BRANCH   3  16
ATOM     16  C9  4ND d   1      15.614 -12.713  20.495  0.00  0.00     0.042 A 
ATOM     17  C10 4ND d   1      15.259 -13.813  19.658  0.00  0.00    -0.057 A 
ATOM     18  C11 4ND d   1      16.011 -15.026  19.717  0.00  0.00    -0.081 A 
ATOM     19  H7  4ND d   1      14.419 -13.728  18.978  0.00  0.00     0.086 H 
ATOM     20  C12 4ND d   1      17.114 -15.140  20.608  0.00  0.00    -0.083 A 
ATOM     21  H8  4ND d   1      15.741 -15.861  19.081  0.00  0.00     0.083 H 
ATOM     22  C13 4ND d   1      17.473 -14.043  21.447  0.00  0.00    -0.081 A 
ATOM     23  H9  4ND d   1      17.683 -16.062  20.650  0.00  0.00     0.083 H 
ATOM     24  C14 4ND d   1      16.719 -12.826  21.389  0.00  0.00    -0.057 A 
ATOM     25  H10 4ND d   1      18.314 -14.130  22.126  0.00  0.00     0.083 H 
ATOM     26  H11 4ND d   1      16.989 -11.991  22.025  0.00  0.00     0.086 H 
ENDBRANCH   3  16
TORSDOF 2
