REMARK  5 active torsions:
REMARK  status: ('A' for Active; 'I' for Inactive)
REMARK    1  A    between atoms: C2_12  and  O2_21 
REMARK    2  A    between atoms: C3_13  and  O3_22 
REMARK    3  A    between atoms: C4_14  and  O4_23 
REMARK    4  A    between atoms: C6_16  and  C5_15 
REMARK    5  A    between atoms: C6_16  and  O6_24 
ROOT
ATOM      1  H1  NTZ d   1      44.730   3.393  18.409  0.00  0.00     0.099 H 
ATOM      2  H2  NTZ d   1      43.026   3.054  20.907  0.00  0.00     0.091 H 
ATOM      3  H3  NTZ d   1      44.164   0.884  19.066  0.00  0.00     0.090 H 
ATOM      4  H4  NTZ d   1      44.307   1.097  22.102  0.00  0.00     0.082 H 
ATOM      5  C1  NTZ d   1      45.787   3.145  20.278  0.00  0.00     0.168 A 
ATOM      6  C2  NTZ d   1      44.527   3.580  19.474  0.00  0.00     0.122 C 
ATOM      7  C3  NTZ d   1      43.361   2.706  19.919  0.00  0.00     0.094 C 
ATOM      8  C4  NTZ d   1      43.766   1.230  20.031  0.00  0.00     0.086 C 
ATOM      9  C5  NTZ d   1      44.801   0.975  21.127  0.00  0.00     0.080 C 
ATOM     10  N1  NTZ d   1      45.816   1.969  21.005  0.00  0.00    -0.251 N 
ATOM     11  N17 NTZ d   1      47.081   1.999  21.550  0.00  0.00    -0.003 NA
ATOM     12  N18 NTZ d   1      47.734   3.127  21.182  0.00  0.00     0.018 NA
ATOM     13  N21 NTZ d   1      46.949   3.842  20.367  0.00  0.00    -0.144 NA
ENDROOT
BRANCH   9  14
ATOM     14  C6  NTZ d   1      45.381  -0.425  21.082  0.00  0.00     0.040 C 
ATOM     15  H5  NTZ d   1      44.658  -1.118  21.537  0.00  0.00     0.077 H 
ATOM     16  H6  NTZ d   1      46.315  -0.436  21.663  0.00  0.00     0.077 H 
BRANCH  14  17
ATOM     17  O6  NTZ d   1      45.667  -0.874  19.746  0.00  0.00    -0.399 OA
ATOM     18  H10 NTZ d   1      46.297  -0.288  19.344  0.00  0.00     0.209 HD
ENDBRANCH  14  17
ENDBRANCH   9  14
BRANCH   8  19
ATOM     19  O4  NTZ d   1      42.586   0.503  20.380  0.00  0.00    -0.391 OA
ATOM     20  H9  NTZ d   1      42.264   0.808  21.220  0.00  0.00     0.210 HD
ENDBRANCH   8  19
BRANCH   7  21
ATOM     21  O3  NTZ d   1      42.296   2.816  19.015  0.00  0.00    -0.390 OA
ATOM     22  H8  NTZ d   1      42.039   3.727  18.940  0.00  0.00     0.210 HD
ENDBRANCH   7  21
BRANCH   6  23
ATOM     23  O2  NTZ d   1      44.153   4.945  19.604  0.00  0.00    -0.385 OA
ATOM     24  H7  NTZ d   1      43.395   5.118  19.059  0.00  0.00     0.210 HD
ENDBRANCH   6  23
TORSDOF 5
