REMARK  5 active torsions:
REMARK  status: ('A' for Active; 'I' for Inactive)
REMARK    1  A    between atoms: C2_12  and  O2_21 
REMARK    2  A    between atoms: C3_13  and  O3_22 
REMARK    3  A    between atoms: C4_14  and  O4_23 
REMARK    4  A    between atoms: C6_16  and  C5_15 
REMARK    5  A    between atoms: C6_16  and  O6_24 
ROOT
ATOM      1  H1  NTZ d   1      35.033  22.636  25.593  0.00  0.00     0.099 H 
ATOM      2  H2  NTZ d   1      32.062  23.210  25.860  0.00  0.00     0.091 H 
ATOM      3  H3  NTZ d   1      33.478  20.492  25.692  0.00  0.00     0.090 H 
ATOM      4  H4  NTZ d   1      31.349  21.528  27.666  0.00  0.00     0.082 H 
ATOM      5  C1  NTZ d   1      34.222  22.613  27.581  0.00  0.00     0.168 A 
ATOM      6  C2  NTZ d   1      34.185  23.095  26.123  0.00  0.00     0.122 C 
ATOM      7  C3  NTZ d   1      32.888  22.570  25.516  0.00  0.00     0.094 C 
ATOM      8  C4  NTZ d   1      32.604  21.118  25.926  0.00  0.00     0.086 C 
ATOM      9  C5  NTZ d   1      32.292  20.999  27.465  0.00  0.00     0.080 C 
ATOM     10  N1  NTZ d   1      33.350  21.655  28.126  0.00  0.00    -0.251 N 
ATOM     11  N17 NTZ d   1      33.728  21.517  29.453  0.00  0.00    -0.003 NA
ATOM     12  N18 NTZ d   1      34.811  22.362  29.684  0.00  0.00     0.018 NA
ATOM     13  N21 NTZ d   1      35.139  23.062  28.518  0.00  0.00    -0.144 NA
ENDROOT
BRANCH   9  14
ATOM     14  C6  NTZ d   1      32.148  19.564  28.023  0.00  0.00     0.040 C 
ATOM     15  H5  NTZ d   1      31.188  19.143  27.691  0.00  0.00     0.077 H 
ATOM     16  H6  NTZ d   1      32.172  19.601  29.122  0.00  0.00     0.077 H 
BRANCH  14  17
ATOM     17  O6  NTZ d   1      33.227  18.717  27.552  0.00  0.00    -0.399 OA
ATOM     18  H10 NTZ d   1      34.058  19.076  27.840  0.00  0.00     0.209 HD
ENDBRANCH  14  17
ENDBRANCH   9  14
BRANCH   8  19
ATOM     19  O4  NTZ d   1      31.494  20.692  25.165  0.00  0.00    -0.391 OA
ATOM     20  H9  NTZ d   1      30.742  21.235  25.372  0.00  0.00     0.210 HD
ENDBRANCH   8  19
BRANCH   7  21
ATOM     21  O3  NTZ d   1      32.940  22.591  24.097  0.00  0.00    -0.390 OA
ATOM     22  H8  NTZ d   1      33.115  23.477  23.801  0.00  0.00     0.210 HD
ENDBRANCH   7  21
BRANCH   6  23
ATOM     23  O2  NTZ d   1      34.302  24.520  25.954  0.00  0.00    -0.385 OA
ATOM     24  H7  NTZ d   1      34.295  24.730  25.027  0.00  0.00     0.210 HD
ENDBRANCH   6  23
TORSDOF 5
