REMARK  12 active torsions:
REMARK  status: ('A' for Active; 'I' for Inactive)
REMARK    1  A    between atoms: C7_11  and  C7M_12 
REMARK    2  A    between atoms: C8_13  and  C8M_14 
REMARK    3  A    between atoms: N10_17  and  C1_19 
REMARK    4  A    between atoms: C1_19  and  C2_20 
REMARK    5  A    between atoms: C2_20  and  O2_21 
REMARK    6  A    between atoms: C2_20  and  C3_22 
REMARK    7  A    between atoms: C3_22  and  O3_23 
REMARK    8  A    between atoms: C3_22  and  C4_24 
REMARK    9  A    between atoms: C4_24  and  O4_25 
REMARK   10  A    between atoms: C4_24  and  C5_26 
REMARK   11  A    between atoms: C5_26  and  O5_27 
REMARK   12  A    between atoms: O5_27  and  P_28 
ROOT
ATOM      1  N1  FMN d   1      15.967  32.490  41.892  0.00  0.00    -0.173 NA
ATOM      2  C2  FMN d   1      16.961  33.381  42.311  0.00  0.00     0.350 A 
ATOM      3  O2  FMN d   1      17.944  33.595  41.704  0.00  0.00    -0.244 OA
ATOM      4  N3  FMN d   1      16.670  34.106  43.542  0.00  0.00    -0.272 N 
ATOM      5  C4  FMN d   1      15.568  33.977  44.335  0.00  0.00     0.282 A 
ATOM      6  O4  FMN d   1      15.346  34.598  45.380  0.00  0.00    -0.265 OA
ATOM      7  C4A FMN d   1      14.554  32.989  43.952  0.00  0.00     0.171 A 
ATOM      8  N5  FMN d   1      13.377  32.792  44.483  0.00  0.00    -0.237 NA
ATOM      9  C5A FMN d   1      12.347  32.114  43.901  0.00  0.00     0.085 A 
ATOM     10  C6  FMN d   1      11.004  32.259  44.427  0.00  0.00    -0.047 A 
ATOM     11  C7  FMN d   1       9.913  31.689  43.753  0.00  0.00    -0.054 A 
ATOM     12  C8  FMN d   1      10.107  30.996  42.497  0.00  0.00    -0.054 A 
ATOM     13  C9  FMN d   1      11.406  30.855  41.969  0.00  0.00    -0.048 A 
ATOM     14  C9A FMN d   1      12.584  31.404  42.603  0.00  0.00     0.065 A 
ATOM     15  N10 FMN d   1      13.907  31.491  42.096  0.00  0.00    -0.325 N 
ATOM     16  C10 FMN d   1      14.924  32.317  42.695  0.00  0.00     0.170 A 
ATOM     17  H1  FMN d   1      17.355  34.772  43.838  0.00  0.00     0.174 HD
ATOM     18  H2  FMN d   1      10.842  32.811  45.346  0.00  0.00     0.088 H 
ATOM     19  H9  FMN d   1      11.528  30.308  41.041  0.00  0.00     0.087 H 
ENDROOT
BRANCH  15  20
ATOM     20  C1  FMN d   1      14.179  30.791  40.740  0.00  0.00     0.028 C 
ATOM     21  H10 FMN d   1      15.191  31.019  40.375  0.00  0.00     0.069 H 
ATOM     22  H11 FMN d   1      13.439  31.095  39.985  0.00  0.00     0.069 H 
BRANCH  20  23
ATOM     23  C2  FMN d   1      14.041  29.312  41.075  0.00  0.00     0.078 C 
ATOM     24  H12 FMN d   1      13.188  29.200  41.761  0.00  0.00     0.089 H 
BRANCH  23  25
ATOM     25  O2  FMN d   1      15.264  28.704  41.653  0.00  0.00    -0.391 OA
ATOM     26  H13 FMN d   1      15.489  29.154  42.459  0.00  0.00     0.210 HD
ENDBRANCH  23  25
BRANCH  23  27
ATOM     27  C3  FMN d   1      13.869  28.364  39.797  0.00  0.00     0.088 C 
ATOM     28  H14 FMN d   1      14.668  28.685  39.113  0.00  0.00     0.091 H 
BRANCH  27  29
ATOM     29  O3  FMN d   1      12.552  28.839  39.286  0.00  0.00    -0.390 OA
ATOM     30  H15 FMN d   1      12.320  28.348  38.507  0.00  0.00     0.210 HD
ENDBRANCH  27  29
BRANCH  27  31
ATOM     31  C4  FMN d   1      13.869  26.840  39.644  0.00  0.00     0.084 C 
ATOM     32  H16 FMN d   1      13.113  26.443  40.338  0.00  0.00     0.090 H 
BRANCH  31  33
ATOM     33  O4  FMN d   1      15.240  26.515  40.149  0.00  0.00    -0.391 OA
ATOM     34  H17 FMN d   1      15.323  26.810  41.048  0.00  0.00     0.210 HD
ENDBRANCH  31  33
BRANCH  31  35
ATOM     35  C5  FMN d   1      13.597  26.132  38.295  0.00  0.00     0.059 C 
ATOM     36  H18 FMN d   1      12.530  26.173  38.032  0.00  0.00     0.079 H 
ATOM     37  H19 FMN d   1      13.928  25.084  38.322  0.00  0.00     0.079 H 
BRANCH  35  38
ATOM     38  O5  FMN d   1      14.395  26.911  37.370  0.00  0.00    -0.280 OA
BRANCH  38  39
ATOM     39  P   FMN d   1      13.754  27.669  36.116  0.00  0.00     0.422 P 
ATOM     40  O1P FMN d   1      12.905  26.706  35.340  0.00  0.00    -0.617 OA
ATOM     41  O2P FMN d   1      14.996  28.081  35.331  0.00  0.00    -0.617 OA
ATOM     42  O3P FMN d   1      12.910  28.838  36.679  0.00  0.00    -0.617 OA
ENDBRANCH  38  39
ENDBRANCH  35  38
ENDBRANCH  31  35
ENDBRANCH  27  31
ENDBRANCH  23  27
ENDBRANCH  20  23
ENDBRANCH  15  20
BRANCH  12  43
ATOM     43  C8M FMN d   1       9.006  30.308  41.730  0.00  0.00    -0.051 C 
ATOM     44  H6  FMN d   1       9.421  29.862  40.814  0.00  0.00     0.033 H 
ATOM     45  H7  FMN d   1       8.232  31.042  41.462  0.00  0.00     0.033 H 
ATOM     46  H8  FMN d   1       8.562  29.518  42.354  0.00  0.00     0.033 H 
ENDBRANCH  12  43
BRANCH  11  47
ATOM     47  C7M FMN d   1       8.512  31.803  44.313  0.00  0.00    -0.051 C 
ATOM     48  H3  FMN d   1       8.541  32.354  45.264  0.00  0.00     0.033 H 
ATOM     49  H4  FMN d   1       8.103  30.797  44.485  0.00  0.00     0.033 H 
ATOM     50  H5  FMN d   1       7.874  32.341  43.597  0.00  0.00     0.033 H 
ENDBRANCH  11  47
TORSDOF 12
