REMARK  14 active torsions:
REMARK  status: ('A' for Active; 'I' for Inactive)
REMARK    1  A    between atoms: C1_2  and  O1_3 
REMARK       I    between atoms: C1_2  and  N1_46 
REMARK    2  A    between atoms: O1_3  and  C20_4 
REMARK    3  A    between atoms: C19_12  and  C35_13 
REMARK    4  A    between atoms: C09_16  and  C10_19 
REMARK    5  A    between atoms: C09_16  and  C08_26 
REMARK    6  A    between atoms: C10_19  and  C11_20 
REMARK    7  A    between atoms: C08_26  and  C06_27 
REMARK    8  A    between atoms: C06_27  and  O07_28 
REMARK    9  A    between atoms: C06_27  and  C05_29 
REMARK   10  A    between atoms: C05_29  and  NP4_30 
REMARK   11  A    between atoms: C05_29  and  C36_39 
REMARK       I    between atoms: NP4_30  and  C02_31 
REMARK   12  A    between atoms: C02_31  and  O01_33 
REMARK   13  A    between atoms: O01_33  and  C44_34 
REMARK   14  A    between atoms: C36_39  and  C37_40 
ROOT
ATOM      1  C35 3NH d   1      10.556  25.287   5.478  0.00  0.00     0.016 A 
ATOM      2  C17 3NH d   1      10.904  23.989   4.999  0.00  0.00     0.186 A 
ATOM      3  O18 3NH d   1      10.542  22.929   5.451  0.00  0.00    -0.290 OA
ATOM      4  C09 3NH d   1      11.912  24.124   3.833  0.00  0.00     0.101 A 
ATOM      5  N29 3NH d   1      12.173  25.564   3.821  0.00  0.00    -0.382 N 
ATOM      6  C30 3NH d   1      11.270  26.157   4.797  0.00  0.00    -0.016 A 
ATOM      7  H9  3NH d   1      12.861  26.061   3.237  0.00  0.00     0.160 HD
ATOM      8  H10 3NH d   1      11.192  27.232   4.951  0.00  0.00     0.111 H 
ENDROOT
BRANCH   4   9
ATOM      9  C10 3NH d   1      11.270  23.545   2.554  0.00  0.00    -0.011 C 
ATOM     10  H11 3NH d   1      11.259  22.447   2.620  0.00  0.00     0.044 H 
ATOM     11  H12 3NH d   1      11.863  23.854   1.681  0.00  0.00     0.044 H 
BRANCH   9  12
ATOM     12  C11 3NH d   1       9.845  24.049   2.393  0.00  0.00    -0.055 A 
ATOM     13  C12 3NH d   1       9.655  25.268   1.757  0.00  0.00    -0.077 A 
ATOM     14  C13 3NH d   1       8.414  25.791   1.575  0.00  0.00    -0.082 A 
ATOM     15  H13 3NH d   1      10.518  25.816   1.397  0.00  0.00     0.084 H 
ATOM     16  C14 3NH d   1       7.339  25.114   2.052  0.00  0.00    -0.083 A 
ATOM     17  H14 3NH d   1       8.285  26.734   1.057  0.00  0.00     0.083 H 
ATOM     18  C15 3NH d   1       7.524  23.888   2.686  0.00  0.00    -0.082 A 
ATOM     19  H15 3NH d   1       6.342  25.525   1.940  0.00  0.00     0.083 H 
ATOM     20  C16 3NH d   1       8.764  23.348   2.870  0.00  0.00    -0.077 A 
ATOM     21  H16 3NH d   1       6.657  23.346   3.044  0.00  0.00     0.083 H 
ATOM     22  H17 3NH d   1       8.892  22.398   3.376  0.00  0.00     0.084 H 
ENDBRANCH   9  12
ENDBRANCH   4   9
BRANCH   4  23
ATOM     23  C08 3NH d   1      13.208  23.351   4.234  0.00  0.00    -0.009 C 
ATOM     24  H18 3NH d   1      13.874  23.289   3.361  0.00  0.00     0.041 H 
ATOM     25  H19 3NH d   1      12.935  22.337   4.560  0.00  0.00     0.041 H 
BRANCH  23  26
ATOM     26  C06 3NH d   1      13.969  24.087   5.414  0.00  0.00     0.058 C 
ATOM     27  H20 3NH d   1      13.296  24.743   5.986  0.00  0.00     0.086 H 
BRANCH  26  28
ATOM     28  O07 3NH d   1      14.965  24.822   4.679  0.00  0.00    -0.393 OA
ATOM     29  H21 3NH d   1      15.502  25.319   5.285  0.00  0.00     0.210 HD
ENDBRANCH  26  28
BRANCH  26  30
ATOM     30  C05 3NH d   1      14.683  23.101   6.360  0.00  0.00     0.043 C 
ATOM     31  H22 3NH d   1      13.881  22.517   6.834  0.00  0.00     0.077 H 
BRANCH  30  32
ATOM     32  NP4 3NH d   1      15.580  22.128   5.674  0.00  0.00    -0.329 N 
ATOM     33  C02 3NH d   1      15.289  20.848   5.226  0.00  0.00     0.361 C 
ATOM     34  O03 3NH d   1      14.215  20.333   5.151  0.00  0.00    -0.238 OA
ATOM     35  H23 3NH d   1      16.517  22.440   5.516  0.00  0.00     0.165 HD
BRANCH  33  36
ATOM     36  O01 3NH d   1      16.359  20.230   4.858  0.00  0.00    -0.296 OA
BRANCH  36  37
ATOM     37  C44 3NH d   1      16.397  19.188   3.924  0.00  0.00     0.072 C 
ATOM     38  C45 3NH d   1      17.558  18.269   3.874  0.00  0.00     0.044 C 
ATOM     39  O46 3NH d   1      17.844  18.428   2.515  0.00  0.00    -0.389 OA
ATOM     40  H25 3NH d   1      17.286  17.234   4.128  0.00  0.00     0.078 H 
ATOM     41  H26 3NH d   1      18.385  18.600   4.519  0.00  0.00     0.078 H 
ATOM     42  C47 3NH d   1      16.614  18.410   1.753  0.00  0.00     0.022 C 
ATOM     43  C48 3NH d   1      15.514  18.835   2.758  0.00  0.00    -0.018 C 
ATOM     44  H27 3NH d   1      16.414  17.400   1.365  0.00  0.00     0.074 H 
ATOM     45  H28 3NH d   1      16.668  19.121   0.915  0.00  0.00     0.074 H 
ATOM     46  H29 3NH d   1      14.937  19.700   2.399  0.00  0.00     0.040 H 
ATOM     47  H30 3NH d   1      14.827  18.009   2.994  0.00  0.00     0.040 H 
ATOM     48  H24 3NH d   1      15.812  18.559   4.612  0.00  0.00     0.087 H 
ENDBRANCH  36  37
ENDBRANCH  33  36
ENDBRANCH  30  32
BRANCH  30  49
ATOM     49  C36 3NH d   1      15.481  23.750   7.490  0.00  0.00    -0.020 C 
ATOM     50  H31 3NH d   1      14.823  24.411   8.073  0.00  0.00     0.043 H 
ATOM     51  H32 3NH d   1      16.309  24.337   7.066  0.00  0.00     0.043 H 
BRANCH  49  52
ATOM     52  C37 3NH d   1      16.046  22.646   8.405  0.00  0.00    -0.056 A 
ATOM     53  C38 3NH d   1      15.137  21.896   9.169  0.00  0.00    -0.077 A 
ATOM     54  C39 3NH d   1      15.579  20.792   9.916  0.00  0.00    -0.082 A 
ATOM     55  H33 3NH d   1      14.088  22.171   9.182  0.00  0.00     0.084 H 
ATOM     56  C40 3NH d   1      16.933  20.434   9.964  0.00  0.00    -0.083 A 
ATOM     57  H34 3NH d   1      14.856  20.203  10.468  0.00  0.00     0.083 H 
ATOM     58  C41 3NH d   1      17.857  21.214   9.259  0.00  0.00    -0.082 A 
ATOM     59  H35 3NH d   1      17.258  19.572  10.535  0.00  0.00     0.083 H 
ATOM     60  C42 3NH d   1      17.412  22.310   8.481  0.00  0.00    -0.077 A 
ATOM     61  H36 3NH d   1      18.914  20.979   9.309  0.00  0.00     0.083 H 
ATOM     62  H37 3NH d   1      18.136  22.902   7.933  0.00  0.00     0.084 H 
ENDBRANCH  49  52
ENDBRANCH  30  49
ENDBRANCH  26  30
ENDBRANCH  23  26
ENDBRANCH   4  23
BRANCH   1  63
ATOM     63  C19 3NH d   1       9.525  25.500   6.535  0.00  0.00     0.028 C 
ATOM     64  C20 3NH d   1       8.189  26.120   6.024  0.00  0.00     0.065 C 
ATOM     65  C22 3NH d   1       7.444  26.654   7.260  0.00  0.00    -0.015 C 
ATOM     66  H1  3NH d   1       7.585  25.407   5.444  0.00  0.00     0.086 H 
ATOM     67  C23 3NH d   1       8.637  27.161   8.010  0.00  0.00    -0.049 A 
ATOM     68  H2  3NH d   1       6.915  25.858   7.805  0.00  0.00     0.044 H 
ATOM     69  H3  3NH d   1       6.737  27.458   7.007  0.00  0.00     0.044 H 
ATOM     70  C24 3NH d   1       8.632  28.111   9.031  0.00  0.00    -0.076 A 
ATOM     71  C28 3NH d   1       9.817  26.507   7.623  0.00  0.00    -0.041 A 
ATOM     72  C25 3NH d   1       9.822  28.370   9.688  0.00  0.00    -0.082 A 
ATOM     73  H4  3NH d   1       7.721  28.632   9.302  0.00  0.00     0.084 H 
ATOM     74  C26 3NH d   1      11.007  27.710   9.318  0.00  0.00    -0.082 A 
ATOM     75  H5  3NH d   1       9.841  29.090  10.498  0.00  0.00     0.083 H 
ATOM     76  C27 3NH d   1      11.011  26.775   8.276  0.00  0.00    -0.076 A 
ATOM     77  H6  3NH d   1      11.928  27.928   9.846  0.00  0.00     0.083 H 
ATOM     78  H7  3NH d   1      11.926  26.272   7.986  0.00  0.00     0.084 H 
ATOM     79  H8  3NH d   1       9.338  24.515   6.988  0.00  0.00     0.059 H 
BRANCH  64  80
ATOM     80  O1  3NH d   1       8.576  27.284   5.255  0.00  0.00    -0.297 OA
BRANCH  80  81
ATOM     81  C1  3NH d   1       7.818  27.918   4.365  0.00  0.00     0.358 C 
ATOM     82  O2  3NH d   1       8.249  28.863   3.762  0.00  0.00    -0.239 OA
ATOM     83  N1  3NH d   1       6.548  27.557   4.316  0.00  0.00    -0.346 N 
ATOM     84  H38 3NH d   1       5.928  27.997   3.667  0.00  0.00     0.161 HD
ATOM     85  H39 3NH d   1       6.207  26.843   4.928  0.00  0.00     0.161 HD
ENDBRANCH  80  81
ENDBRANCH  64  80
ENDBRANCH   1  63
TORSDOF 14
