REMARK  12 active torsions:
REMARK  status: ('A' for Active; 'I' for Inactive)
REMARK    1  A    between atoms: O01_1  and  C02_2 
REMARK    2  A    between atoms: O01_1  and  C44_29 
REMARK       I    between atoms: C02_2  and  NP4_4 
REMARK    3  A    between atoms: NP4_4  and  C05_5 
REMARK    4  A    between atoms: C05_5  and  C06_6 
REMARK    5  A    between atoms: C05_5  and  C36_22 
REMARK    6  A    between atoms: C06_6  and  O07_7 
REMARK    7  A    between atoms: C06_6  and  C08_8 
REMARK    8  A    between atoms: C08_8  and  C09_9 
REMARK    9  A    between atoms: C09_9  and  C10_10 
REMARK   10  A    between atoms: C10_10  and  C11_11 
REMARK   11  A    between atoms: C35_21  and  C50_35 
REMARK   12  A    between atoms: C36_22  and  C37_23 
ROOT
ATOM      1  C09 L27 d   1      11.478  24.804   3.998  0.00  0.00     0.101 A 
ATOM      2  C17 L27 d   1      10.728  24.383   5.297  0.00  0.00     0.186 A 
ATOM      3  O18 L27 d   1      10.493  23.280   5.690  0.00  0.00    -0.290 OA
ATOM      4  N29 L27 d   1      11.524  26.281   4.100  0.00  0.00    -0.382 N 
ATOM      5  C30 L27 d   1      10.899  26.628   5.248  0.00  0.00    -0.016 A 
ATOM      6  C35 L27 d   1      10.431  25.609   6.002  0.00  0.00     0.015 A 
ATOM      7  H14 L27 d   1      11.953  26.926   3.421  0.00  0.00     0.160 HD
ATOM      8  H15 L27 d   1      10.780  27.668   5.547  0.00  0.00     0.111 H 
ENDROOT
BRANCH   1   9
ATOM      9  C08 L27 d   1      12.936  24.294   3.996  0.00  0.00    -0.009 C 
ATOM     10  H5  L27 d   1      12.917  23.197   4.073  0.00  0.00     0.041 H 
ATOM     11  H6  L27 d   1      13.402  24.587   3.044  0.00  0.00     0.041 H 
BRANCH   9  12
ATOM     12  C06 L27 d   1      13.798  24.841   5.141  0.00  0.00     0.058 C 
ATOM     13  H3  L27 d   1      13.177  25.527   5.736  0.00  0.00     0.086 H 
BRANCH  12  14
ATOM     14  C05 L27 d   1      14.297  23.740   6.090  0.00  0.00     0.043 C 
ATOM     15  H2  L27 d   1      13.440  23.185   6.498  0.00  0.00     0.077 H 
BRANCH  14  16
ATOM     16  NP4 L27 d   1      15.131  22.901   5.276  0.00  0.00    -0.329 N 
ATOM     17  C02 L27 d   1      14.852  21.595   5.089  0.00  0.00     0.361 C 
ATOM     18  O03 L27 d   1      13.773  21.116   5.284  0.00  0.00    -0.238 OA
ATOM     19  H1  L27 d   1      15.938  23.295   4.837  0.00  0.00     0.165 HD
BRANCH  17  20
ATOM     20  O01 L27 d   1      15.909  20.907   4.711  0.00  0.00    -0.296 OA
BRANCH  20  21
ATOM     21  C44 L27 d   1      15.981  19.413   4.554  0.00  0.00     0.072 C 
ATOM     22  C45 L27 d   1      17.418  18.909   4.392  0.00  0.00     0.044 C 
ATOM     23  O46 L27 d   1      17.846  19.315   3.101  0.00  0.00    -0.389 OA
ATOM     24  H24 L27 d   1      17.447  17.812   4.474  0.00  0.00     0.078 H 
ATOM     25  H25 L27 d   1      18.065  19.352   5.163  0.00  0.00     0.078 H 
ATOM     26  C47 L27 d   1      16.673  19.517   2.324  0.00  0.00     0.022 C 
ATOM     27  C48 L27 d   1      15.559  18.926   3.167  0.00  0.00    -0.018 C 
ATOM     28  H26 L27 d   1      16.750  18.995   1.359  0.00  0.00     0.074 H 
ATOM     29  H27 L27 d   1      16.502  20.589   2.148  0.00  0.00     0.074 H 
ATOM     30  H28 L27 d   1      14.575  19.323   2.878  0.00  0.00     0.040 H 
ATOM     31  H29 L27 d   1      15.543  17.828   3.108  0.00  0.00     0.040 H 
ATOM     32  H23 L27 d   1      15.433  18.927   5.374  0.00  0.00     0.087 H 
ENDBRANCH  20  21
ENDBRANCH  17  20
ENDBRANCH  14  16
BRANCH  14  33
ATOM     33  C36 L27 d   1      15.183  24.228   7.239  0.00  0.00    -0.020 C 
ATOM     34  H16 L27 d   1      14.598  24.922   7.860  0.00  0.00     0.043 H 
ATOM     35  H17 L27 d   1      16.047  24.758   6.812  0.00  0.00     0.043 H 
BRANCH  33  36
ATOM     36  C37 L27 d   1      15.695  23.110   8.123  0.00  0.00    -0.056 A 
ATOM     37  C38 L27 d   1      14.763  22.301   8.918  0.00  0.00    -0.077 A 
ATOM     38  C39 L27 d   1      15.284  21.186   9.683  0.00  0.00    -0.082 A 
ATOM     39  H18 L27 d   1      13.704  22.534   8.932  0.00  0.00     0.084 H 
ATOM     40  C40 L27 d   1      16.719  20.932   9.639  0.00  0.00    -0.083 A 
ATOM     41  H19 L27 d   1      14.625  20.558  10.272  0.00  0.00     0.083 H 
ATOM     42  C41 L27 d   1      17.660  21.748   8.887  0.00  0.00    -0.082 A 
ATOM     43  H20 L27 d   1      17.107  20.088  10.198  0.00  0.00     0.083 H 
ATOM     44  C42 L27 d   1      17.132  22.861   8.129  0.00  0.00    -0.077 A 
ATOM     45  H21 L27 d   1      18.722  21.529   8.895  0.00  0.00     0.083 H 
ATOM     46  H22 L27 d   1      17.800  23.506   7.569  0.00  0.00     0.084 H 
ENDBRANCH  33  36
ENDBRANCH  14  33
ENDBRANCH  12  14
BRANCH  12  47
ATOM     47  O07 L27 d   1      14.789  25.534   4.621  0.00  0.00    -0.393 OA
ATOM     48  H4  L27 d   1      15.286  25.946   5.318  0.00  0.00     0.210 HD
ENDBRANCH  12  47
ENDBRANCH   9  12
ENDBRANCH   1   9
BRANCH   1  49
ATOM     49  C10 L27 d   1      10.741  24.375   2.681  0.00  0.00    -0.011 C 
ATOM     50  H7  L27 d   1      10.671  23.277   2.673  0.00  0.00     0.044 H 
ATOM     51  H8  L27 d   1      11.348  24.711   1.827  0.00  0.00     0.044 H 
BRANCH  49  52
ATOM     52  C11 L27 d   1       9.335  24.937   2.509  0.00  0.00    -0.055 C 
ATOM     53  C12 L27 d   1       9.176  26.169   1.742  0.00  0.00    -0.077 C 
ATOM     54  C13 L27 d   1       7.932  26.903   1.844  0.00  0.00    -0.082 C 
ATOM     55  H9  L27 d   1       9.977  26.529   1.106  0.00  0.00     0.084 H 
ATOM     56  C14 L27 d   1       6.866  26.347   2.687  0.00  0.00    -0.083 C 
ATOM     57  H10 L27 d   1       7.792  27.837   1.313  0.00  0.00     0.083 H 
ATOM     58  C15 L27 d   1       6.957  25.023   3.311  0.00  0.00    -0.082 C 
ATOM     59  H11 L27 d   1       5.974  26.940   2.855  0.00  0.00     0.083 H 
ATOM     60  C16 L27 d   1       8.216  24.300   3.222  0.00  0.00    -0.077 C 
ATOM     61  H12 L27 d   1       6.106  24.593   3.827  0.00  0.00     0.083 H 
ATOM     62  H13 L27 d   1       8.327  23.319   3.669  0.00  0.00     0.084 H 
ENDBRANCH  49  52
ENDBRANCH   1  49
BRANCH   6  63
ATOM     63  C50 L27 d   1       9.795  25.601   7.406  0.00  0.00     0.018 C 
ATOM     64  C51 L27 d   1       9.583  26.962   7.953  0.00  0.00    -0.032 A 
ATOM     65  C52 L27 d   1       8.389  27.665   7.528  0.00  0.00     0.039 A 
ATOM     66  C55 L27 d   1      10.544  27.540   8.880  0.00  0.00    -0.075 A 
ATOM     67  C53 L27 d   1       7.377  26.881   6.775  0.00  0.00     0.252 C 
ATOM     68  C58 L27 d   1       8.098  28.993   8.010  0.00  0.00    -0.067 A 
ATOM     69  N54 L27 d   1       7.445  25.605   6.791  0.00  0.00    -0.356 N 
ATOM     70  O59 L27 d   1       6.493  27.457   6.160  0.00  0.00    -0.268 OA
ATOM     71  C49 L27 d   1       8.453  24.861   7.474  0.00  0.00     0.007 C 
ATOM     72  H33 L27 d   1       6.745  25.094   6.292  0.00  0.00     0.162 HD
ATOM     73  H30 L27 d   1       8.558  23.873   7.002  0.00  0.00     0.065 H 
ATOM     74  H31 L27 d   1       8.161  24.735   8.527  0.00  0.00     0.065 H 
ATOM     75  C57 L27 d   1       9.030  29.569   8.950  0.00  0.00    -0.082 A 
ATOM     76  H37 L27 d   1       7.218  29.535   7.681  0.00  0.00     0.085 H 
ATOM     77  C56 L27 d   1      10.232  28.858   9.350  0.00  0.00    -0.082 A 
ATOM     78  H36 L27 d   1       8.829  30.550   9.365  0.00  0.00     0.083 H 
ATOM     79  H35 L27 d   1      10.921  29.344  10.031  0.00  0.00     0.083 H 
ATOM     80  H34 L27 d   1      11.436  27.010   9.194  0.00  0.00     0.084 H 
ATOM     81  H32 L27 d   1      10.500  25.077   8.068  0.00  0.00     0.057 H 
ENDBRANCH   6  63
TORSDOF 12
