REMARK  14 active torsions:
REMARK  status: ('A' for Active; 'I' for Inactive)
REMARK       I    between atoms: N1_1  and  C15_2 
REMARK    1  A    between atoms: N1_1  and  C2_10 
REMARK       I    between atoms: C15_2  and  N9_4 
REMARK    2  A    between atoms: C2_10  and  C3_11 
REMARK    3  A    between atoms: C2_10  and  C5_34 
REMARK       I    between atoms: C3_11  and  N28_13 
REMARK    4  A    between atoms: N28_13  and  C19_14 
REMARK    5  A    between atoms: C19_14  and  C18_15 
REMARK    6  A    between atoms: C19_14  and  C20_26 
REMARK    7  A    between atoms: C18_15  and  C17_16 
REMARK    8  A    between atoms: C17_16  and  S33_17 
REMARK    9  A    between atoms: S33_17  and  C32_20 
REMARK   10  A    between atoms: C20_26  and  C21_27 
REMARK   11  A    between atoms: C21_27  and  C22_28 
REMARK   12  A    between atoms: C5_34  and  C6_35 
REMARK   13  A    between atoms: C6_35  and  C7_36 
REMARK   14  A    between atoms: C6_35  and  C8_37 
ROOT
ATOM      1  C19 C1P d   1     -18.309  58.324 -39.941  0.00  0.00     0.013 C 
ATOM      2  H12 C1P d   1     -19.280  58.691 -39.578  0.00  0.00     0.072 H 
ENDROOT
BRANCH   1   3
ATOM      3  N28 C1P d   1     -17.229  59.018 -39.235  0.00  0.00    -0.355 N 
ATOM      4  C3  C1P d   1     -17.447  59.931 -38.268  0.00  0.00     0.240 C 
ATOM      5  O4  C1P d   1     -18.554  60.254 -37.875  0.00  0.00    -0.271 OA
ATOM      6  H11 C1P d   1     -16.284  58.804 -39.483  0.00  0.00     0.162 HD
BRANCH   4   7
ATOM      7  C2  C1P d   1     -16.223  60.547 -37.666  0.00  0.00     0.091 C 
ATOM      8  H10 C1P d   1     -15.341  60.378 -38.301  0.00  0.00     0.087 H 
BRANCH   7   9
ATOM      9  N1  C1P d   1     -16.493  62.014 -37.571  0.00  0.00    -0.330 N 
ATOM     10  C15 C1P d   1     -16.642  62.738 -38.725  0.00  0.00     0.319 C 
ATOM     11  O16 C1P d   1     -16.537  62.181 -39.842  0.00  0.00    -0.247 OA
ATOM     12  N9  C1P d   1     -16.920  64.097 -38.774  0.00  0.00    -0.330 N 
ATOM     13  C14 C1P d   1     -17.079  64.778 -40.139  0.00  0.00     0.019 C 
ATOM     14  C10 C1P d   1     -17.092  64.957 -37.581  0.00  0.00     0.019 C 
ATOM     15  C13 C1P d   1     -18.217  65.775 -40.212  0.00  0.00     0.034 C 
ATOM     16  H2  C1P d   1     -17.256  63.998 -40.894  0.00  0.00     0.067 H 
ATOM     17  H3  C1P d   1     -16.143  65.307 -40.371  0.00  0.00     0.067 H 
ATOM     18  O12 C1P d   1     -18.255  66.637 -38.971  0.00  0.00    -0.388 OA
ATOM     19  H4  C1P d   1     -19.169  65.231 -40.302  0.00  0.00     0.076 H 
ATOM     20  H5  C1P d   1     -18.077  66.418 -41.094  0.00  0.00     0.076 H 
ATOM     21  C11 C1P d   1     -18.304  65.865 -37.727  0.00  0.00     0.034 C 
ATOM     22  H6  C1P d   1     -19.214  65.248 -37.726  0.00  0.00     0.076 H 
ATOM     23  H7  C1P d   1     -18.332  66.561 -36.876  0.00  0.00     0.076 H 
ATOM     24  H8  C1P d   1     -16.192  65.577 -37.453  0.00  0.00     0.067 H 
ATOM     25  H9  C1P d   1     -17.227  64.319 -36.695  0.00  0.00     0.067 H 
ATOM     26  H1  C1P d   1     -16.564  62.460 -36.679  0.00  0.00     0.165 HD
ENDBRANCH   7   9
BRANCH   7  27
ATOM     27  C5  C1P d   1     -16.020  59.857 -36.322  0.00  0.00    -0.035 C 
ATOM     28  H31 C1P d   1     -15.679  58.831 -36.522  0.00  0.00     0.037 H 
ATOM     29  H32 C1P d   1     -16.994  59.827 -35.812  0.00  0.00     0.037 H 
BRANCH  27  30
ATOM     30  C6  C1P d   1     -15.032  60.490 -35.381  0.00  0.00    -0.059 C 
ATOM     31  H33 C1P d   1     -15.518  61.370 -34.935  0.00  0.00     0.038 H 
BRANCH  30  32
ATOM     32  C7  C1P d   1     -13.841  60.992 -36.161  0.00  0.00    -0.073 C 
ATOM     33  H34 C1P d   1     -13.120  61.455 -35.471  0.00  0.00     0.028 H 
ATOM     34  H35 C1P d   1     -14.173  61.738 -36.898  0.00  0.00     0.028 H 
ATOM     35  H36 C1P d   1     -13.362  60.150 -36.682  0.00  0.00     0.028 H 
ENDBRANCH  30  32
BRANCH  30  36
ATOM     36  C8  C1P d   1     -14.691  59.601 -34.280  0.00  0.00    -0.073 C 
ATOM     37  H37 C1P d   1     -15.611  59.283 -33.767  0.00  0.00     0.028 H 
ATOM     38  H38 C1P d   1     -14.039  60.130 -33.569  0.00  0.00     0.028 H 
ATOM     39  H39 C1P d   1     -14.165  58.718 -34.671  0.00  0.00     0.028 H 
ENDBRANCH  30  36
ENDBRANCH  27  30
ENDBRANCH   7  27
ENDBRANCH   4   7
ENDBRANCH   1   3
BRANCH   1  40
ATOM     40  C18 C1P d   1     -18.234  56.830 -39.660  0.00  0.00    -0.034 C 
ATOM     41  H13 C1P d   1     -19.112  56.345 -40.112  0.00  0.00     0.037 H 
ATOM     42  H14 C1P d   1     -18.251  56.678 -38.571  0.00  0.00     0.037 H 
BRANCH  40  43
ATOM     43  C17 C1P d   1     -16.943  56.157 -40.236  0.00  0.00     0.035 C 
ATOM     44  H15 C1P d   1     -16.425  55.601 -39.441  0.00  0.00     0.056 H 
ATOM     45  H16 C1P d   1     -16.271  56.926 -40.644  0.00  0.00     0.056 H 
BRANCH  43  46
ATOM     46  S33 C1P d   1     -17.454  55.010 -41.565  0.00  0.00     0.175 S 
ATOM     47  O34 C1P d   1     -18.386  55.676 -42.581  0.00  0.00    -0.223 OA
ATOM     48  O35 C1P d   1     -18.069  53.706 -41.080  0.00  0.00    -0.223 OA
BRANCH  46  49
ATOM     49  C32 C1P d   1     -16.001  54.581 -42.512  0.00  0.00     0.059 A 
ATOM     50  C36 C1P d   1     -16.087  53.796 -43.700  0.00  0.00    -0.062 A 
ATOM     51  C37 C1P d   1     -14.892  53.395 -44.400  0.00  0.00    -0.082 A 
ATOM     52  H17 C1P d   1     -17.058  53.499 -44.079  0.00  0.00     0.085 H 
ATOM     53  C29 C1P d   1     -13.623  53.794 -43.947  0.00  0.00    -0.083 A 
ATOM     54  H18 C1P d   1     -14.973  52.778 -45.287  0.00  0.00     0.083 H 
ATOM     55  C30 C1P d   1     -13.514  54.601 -42.817  0.00  0.00    -0.082 A 
ATOM     56  H19 C1P d   1     -12.732  53.475 -44.475  0.00  0.00     0.083 H 
ATOM     57  C31 C1P d   1     -14.686  55.013 -42.107  0.00  0.00    -0.062 A 
ATOM     58  H20 C1P d   1     -12.536  54.919 -42.474  0.00  0.00     0.083 H 
ATOM     59  H21 C1P d   1     -14.583  55.664 -41.246  0.00  0.00     0.085 H 
ENDBRANCH  46  49
ENDBRANCH  43  46
ENDBRANCH  40  43
ENDBRANCH   1  40
BRANCH   1  60
ATOM     60  C20 C1P d   1     -18.169  58.690 -41.448  0.00  0.00    -0.043 C 
ATOM     61  H22 C1P d   1     -18.864  58.067 -42.030  0.00  0.00     0.036 H 
ATOM     62  H23 C1P d   1     -17.137  58.485 -41.768  0.00  0.00     0.036 H 
BRANCH  60  63
ATOM     63  C21 C1P d   1     -18.483  60.157 -41.716  0.00  0.00    -0.039 C 
ATOM     64  H24 C1P d   1     -17.817  60.770 -41.090  0.00  0.00     0.040 H 
ATOM     65  H25 C1P d   1     -19.529  60.341 -41.429  0.00  0.00     0.040 H 
BRANCH  63  66
ATOM     66  C22 C1P d   1     -18.307  60.588 -43.149  0.00  0.00    -0.058 A 
ATOM     67  C23 C1P d   1     -19.392  60.514 -44.080  0.00  0.00    -0.077 A 
ATOM     68  C24 C1P d   1     -19.221  60.916 -45.444  0.00  0.00    -0.082 A 
ATOM     69  H26 C1P d   1     -20.357  60.148 -43.748  0.00  0.00     0.084 H 
ATOM     70  C25 C1P d   1     -17.964  61.397 -45.884  0.00  0.00    -0.083 A 
ATOM     71  H27 C1P d   1     -20.052  60.852 -46.138  0.00  0.00     0.083 H 
ATOM     72  C26 C1P d   1     -16.863  61.484 -44.961  0.00  0.00    -0.082 A 
ATOM     73  H28 C1P d   1     -17.831  61.700 -46.916  0.00  0.00     0.083 H 
ATOM     74  C27 C1P d   1     -17.033  61.079 -43.593  0.00  0.00    -0.077 A 
ATOM     75  H29 C1P d   1     -15.903  61.856 -45.299  0.00  0.00     0.083 H 
ATOM     76  H30 C1P d   1     -16.203  61.144 -42.899  0.00  0.00     0.084 H 
ENDBRANCH  63  66
ENDBRANCH  60  63
ENDBRANCH   1  60
TORSDOF 14
