REMARK  10 active torsions:
REMARK  status: ('A' for Active; 'I' for Inactive)
REMARK       I    between atoms: N43_1  and  C40_2 
REMARK    1  A    between atoms: N43_1  and  C44_10 
REMARK       I    between atoms: C40_2  and  N1_4 
REMARK    2  A    between atoms: C44_10  and  C45_11 
REMARK    3  A    between atoms: C44_10  and  C47_26 
REMARK       I    between atoms: C45_11  and  N54_13 
REMARK    4  A    between atoms: N54_13  and  C55_14 
REMARK    5  A    between atoms: C55_14  and  C56_15 
REMARK    6  A    between atoms: C55_14  and  C58_17 
REMARK    7  A    between atoms: C58_17  and  S1_18 
REMARK    8  A    between atoms: S1_18  and  C1_19 
REMARK    9  A    between atoms: C1_19  and  C62_20 
REMARK   10  A    between atoms: C47_26  and  C48_27 
ROOT
ATOM      1  C44 C4P d   1       1.241  11.501  49.110  0.00  0.00     0.095 C 
ATOM      2  H10 C4P d   1       1.201  12.457  49.653  0.00  0.00     0.088 H 
ENDROOT
BRANCH   1   3
ATOM      3  N43 C4P d   1       2.101  10.557  49.853  0.00  0.00    -0.329 N 
ATOM      4  C40 C4P d   1       1.882  10.403  51.224  0.00  0.00     0.319 C 
ATOM      5  O41 C4P d   1       0.990  11.072  51.792  0.00  0.00    -0.247 OA
ATOM      6  N1  C4P d   1       2.642   9.517  51.930  0.00  0.00    -0.330 N 
ATOM      7  C2  C4P d   1       2.387   9.361  53.390  0.00  0.00     0.019 C 
ATOM      8  C6  C4P d   1       3.696   8.748  51.191  0.00  0.00     0.019 C 
ATOM      9  C3  C4P d   1       2.533   7.868  53.747  0.00  0.00     0.034 C 
ATOM     10  H2  C4P d   1       1.369   9.703  53.629  0.00  0.00     0.067 H 
ATOM     11  H3  C4P d   1       3.117   9.954  53.961  0.00  0.00     0.067 H 
ATOM     12  O4  C4P d   1       3.824   7.387  53.253  0.00  0.00    -0.388 OA
ATOM     13  H4  C4P d   1       1.721   7.295  53.277  0.00  0.00     0.076 H 
ATOM     14  H5  C4P d   1       2.486   7.743  54.839  0.00  0.00     0.076 H 
ATOM     15  C5  C4P d   1       3.898   7.326  51.800  0.00  0.00     0.034 C 
ATOM     16  H6  C4P d   1       3.112   6.654  51.424  0.00  0.00     0.076 H 
ATOM     17  H7  C4P d   1       4.884   6.940  51.502  0.00  0.00     0.076 H 
ATOM     18  H8  C4P d   1       4.646   9.299  51.247  0.00  0.00     0.067 H 
ATOM     19  H9  C4P d   1       3.393   8.646  50.139  0.00  0.00     0.067 H 
ATOM     20  H1  C4P d   1       2.821  10.042  49.387  0.00  0.00     0.165 HD
ENDBRANCH   1   3
BRANCH   1  21
ATOM     21  C45 C4P d   1      -0.127  10.881  49.009  0.00  0.00     0.241 C 
ATOM     22  O46 C4P d   1      -0.258   9.735  48.696  0.00  0.00    -0.271 OA
ATOM     23  N54 C4P d   1      -1.133  11.699  49.282  0.00  0.00    -0.348 N 
ATOM     24  H11 C4P d   1      -0.910  12.638  49.543  0.00  0.00     0.163 HD
BRANCH  23  25
ATOM     25  C55 C4P d   1      -2.524  11.331  49.229  0.00  0.00     0.070 C 
ATOM     26  H12 C4P d   1      -2.459  10.244  49.383  0.00  0.00     0.084 H 
BRANCH  25  27
ATOM     27  C56 C4P d   1      -3.160  11.294  47.849  0.00  0.00     0.110 C 
ATOM     28  O57 C4P d   1      -4.359  11.031  47.687  0.00  0.00    -0.305 OA
ATOM     29  H13 C4P d   1      -2.543  11.505  46.977  0.00  0.00     0.146 H 
ENDBRANCH  25  27
BRANCH  25  30
ATOM     30  C58 C4P d   1      -3.206  11.723  50.591  0.00  0.00     0.002 C 
ATOM     31  H14 C4P d   1      -4.300  11.732  50.480  0.00  0.00     0.052 H 
ATOM     32  H15 C4P d   1      -2.863  12.716  50.916  0.00  0.00     0.052 H 
BRANCH  30  33
ATOM     33  S1  C4P d   1      -2.702  10.446  51.812  0.00  0.00    -0.162 SA
BRANCH  33  34
ATOM     34  C1  C4P d   1      -3.551  10.952  53.343  0.00  0.00     0.001 C 
ATOM     35  H16 C4P d   1      -3.430  12.029  53.529  0.00  0.00     0.056 H 
ATOM     36  H17 C4P d   1      -3.181  10.386  54.210  0.00  0.00     0.056 H 
BRANCH  34  37
ATOM     37  C62 C4P d   1      -5.033  10.597  53.028  0.00  0.00    -0.049 A 
ATOM     38  C67 C4P d   1      -5.986  11.643  52.676  0.00  0.00    -0.076 A 
ATOM     39  C66 C4P d   1      -7.354  11.297  52.367  0.00  0.00    -0.082 A 
ATOM     40  H18 C4P d   1      -5.668  12.679  52.646  0.00  0.00     0.084 H 
ATOM     41  C65 C4P d   1      -7.779   9.908  52.409  0.00  0.00    -0.083 A 
ATOM     42  H19 C4P d   1      -8.063  12.073  52.104  0.00  0.00     0.083 H 
ATOM     43  C64 C4P d   1      -6.837   8.871  52.763  0.00  0.00    -0.082 A 
ATOM     44  H20 C4P d   1      -8.805   9.649  52.174  0.00  0.00     0.083 H 
ATOM     45  C63 C4P d   1      -5.469   9.212  53.071  0.00  0.00    -0.076 A 
ATOM     46  H21 C4P d   1      -7.158   7.836  52.797  0.00  0.00     0.083 H 
ATOM     47  H22 C4P d   1      -4.764   8.432  53.335  0.00  0.00     0.084 H 
ENDBRANCH  34  37
ENDBRANCH  33  34
ENDBRANCH  30  33
ENDBRANCH  25  30
ENDBRANCH  23  25
ENDBRANCH   1  21
BRANCH   1  48
ATOM     48  C47 C4P d   1       1.687  11.753  47.650  0.00  0.00    -0.014 C 
ATOM     49  H23 C4P d   1       0.864  12.267  47.133  0.00  0.00     0.043 H 
ATOM     50  H24 C4P d   1       1.860  10.774  47.180  0.00  0.00     0.043 H 
BRANCH  48  51
ATOM     51  C48 C4P d   1       2.950  12.590  47.458  0.00  0.00    -0.056 A 
ATOM     52  C49 C4P d   1       3.175  13.792  48.237  0.00  0.00    -0.077 A 
ATOM     53  C51 C4P d   1       4.372  14.566  48.031  0.00  0.00    -0.082 A 
ATOM     54  H25 C4P d   1       2.444  14.107  48.973  0.00  0.00     0.084 H 
ATOM     55  C53 C4P d   1       5.344  14.148  47.049  0.00  0.00    -0.083 A 
ATOM     56  H26 C4P d   1       4.543  15.464  48.614  0.00  0.00     0.083 H 
ATOM     57  C52 C4P d   1       5.118  12.953  46.278  0.00  0.00    -0.082 A 
ATOM     58  H27 C4P d   1       6.243  14.733  46.892  0.00  0.00     0.083 H 
ATOM     59  C50 C4P d   1       3.923  12.176  46.484  0.00  0.00    -0.077 A 
ATOM     60  H28 C4P d   1       5.848  12.638  45.541  0.00  0.00     0.083 H 
ATOM     61  H29 C4P d   1       3.757  11.276  45.903  0.00  0.00     0.084 H 
ENDBRANCH  48  51
ENDBRANCH   1  48
TORSDOF 10
