REMARK  16 active torsions:
REMARK  status: ('A' for Active; 'I' for Inactive)
REMARK       I    between atoms: N1_16  and  C1_1 
REMARK    1  A    between atoms: C2_2  and  N1_16 
REMARK    2  A    between atoms: C8_8  and  C6_6 
REMARK       I    between atoms: N2_17  and  C8_8 
REMARK    3  A    between atoms: C9_9  and  N2_17 
REMARK    4  A    between atoms: C10_21  and  C11_11 
REMARK    5  A    between atoms: C13_13  and  C18_27 
REMARK    6  A    between atoms: O8_31  and  C14_14 
REMARK    7  A    between atoms: C15_24  and  C16_25 
REMARK    8  A    between atoms: C18_27  and  C19_28 
REMARK    9  A    between atoms: C19_28  and  C20_29 
REMARK   10  A    between atoms: C20_29  and  C21_32 
REMARK   11  A    between atoms: O8_31  and  C24_35 
REMARK   12  A    between atoms: C21_32  and  C22_33 
REMARK   13  A    between atoms: C22_33  and  C23_34 
REMARK   14  A    between atoms: C24_35  and  C25_36 
REMARK   15  A    between atoms: C25_36  and  C26_37 
REMARK   16  A    between atoms: C25_36  and  C27_38 
ROOT
ATOM      1  O5  AY1 d   1      66.367  73.805 143.013  0.00  0.00    -0.265 OA
ATOM      2  C9  AY1 d   1      64.165  71.933 142.751  0.00  0.00     0.121 C 
ATOM      3  C12 AY1 d   1      65.488  74.104 143.788  0.00  0.00     0.266 C 
ATOM      4  C13 AY1 d   1      65.580  74.311 145.260  0.00  0.00     0.058 C 
ATOM      5  C14 AY1 d   1      66.280  73.077 145.910  0.00  0.00     0.085 C 
ATOM      6  C10 AY1 d   1      63.560  73.364 142.415  0.00  0.00     0.073 C 
ATOM      7  O4  AY1 d   1      64.179  74.321 143.375  0.00  0.00    -0.313 OA
ATOM      8  O6  AY1 d   1      65.108  71.405 144.830  0.00  0.00    -0.312 OA
ATOM      9  C15 AY1 d   1      65.189  71.925 146.256  0.00  0.00     0.071 C 
ATOM     10  C17 AY1 d   1      63.927  71.655 144.226  0.00  0.00     0.284 C 
ATOM     11  O7  AY1 d   1      62.885  71.744 144.835  0.00  0.00    -0.263 OA
ATOM     12  H4  AY1 d   1      65.230  71.876 142.482  0.00  0.00     0.092 H 
ATOM     13  H8  AY1 d   1      64.585  74.482 145.697  0.00  0.00     0.059 H 
ATOM     14  H9  AY1 d   1      67.168  72.720 145.368  0.00  0.00     0.089 H 
ATOM     15  H14 AY1 d   1      63.823  73.616 141.377  0.00  0.00     0.087 H 
ATOM     16  H15 AY1 d   1      64.242  72.306 146.665  0.00  0.00     0.087 H 
ENDROOT
BRANCH   2  17
ATOM     17  N2  AY1 d   1      63.363  70.906 142.066  0.00  0.00    -0.341 N 
ATOM     18  C8  AY1 d   1      62.089  70.605 142.264  0.00  0.00     0.256 C 
ATOM     19  O3  AY1 d   1      61.451  71.062 143.196  0.00  0.00    -0.268 OA
ATOM     20  H13 AY1 d   1      63.838  70.371 141.367  0.00  0.00     0.163 HD
BRANCH  18  21
ATOM     21  C6  AY1 d   1      61.333  69.687 141.386  0.00  0.00     0.080 A 
ATOM     22  C5  AY1 d   1      61.820  69.031 140.277  0.00  0.00    -0.080 A 
ATOM     23  C4  AY1 d   1      60.966  68.182 139.558  0.00  0.00    -0.031 A 
ATOM     24  H3  AY1 d   1      62.853  69.170 139.963  0.00  0.00     0.079 H 
ATOM     25  C3  AY1 d   1      59.625  67.983 139.921  0.00  0.00    -0.070 A 
ATOM     26  H10 AY1 d   1      60.951  68.565 138.527  0.00  0.00     0.044 H 
ATOM     27  H11 AY1 d   1      61.438  67.189 139.573  0.00  0.00     0.044 H 
ATOM     28  C2  AY1 d   1      59.103  68.620 141.045  0.00  0.00     0.082 A 
ATOM     29  H2  AY1 d   1      58.991  67.330 139.323  0.00  0.00     0.081 H 
ATOM     30  C7  AY1 d   1      59.956  69.478 141.784  0.00  0.00     0.213 A 
ATOM     31  O2  AY1 d   1      59.468  70.021 142.764  0.00  0.00    -0.285 OA
BRANCH  28  32
ATOM     32  N1  AY1 d   1      57.848  68.551 141.560  0.00  0.00    -0.331 N 
ATOM     33  C1  AY1 d   1      56.779  67.776 141.021  0.00  0.00     0.173 C 
ATOM     34  O1  AY1 d   1      56.979  67.123 140.040  0.00  0.00    -0.283 OA
ATOM     35  H1  AY1 d   1      55.798  67.779 141.495  0.00  0.00     0.180 H 
ATOM     36  H12 AY1 d   1      57.658  69.087 142.383  0.00  0.00     0.168 HD
ENDBRANCH  28  32
ENDBRANCH  18  21
ENDBRANCH   2  17
BRANCH   6  37
ATOM     37  C11 AY1 d   1      62.056  73.571 142.606  0.00  0.00    -0.049 C 
ATOM     38  H5  AY1 d   1      61.791  74.603 142.335  0.00  0.00     0.031 H 
ATOM     39  H6  AY1 d   1      61.791  73.389 143.658  0.00  0.00     0.031 H 
ATOM     40  H7  AY1 d   1      61.505  72.870 141.963  0.00  0.00     0.031 H 
ENDBRANCH   6  37
BRANCH   9  41
ATOM     41  C16 AY1 d   1      65.786  70.839 147.144  0.00  0.00    -0.049 C 
ATOM     42  H16 AY1 d   1      65.021  70.078 147.357  0.00  0.00     0.031 H 
ATOM     43  H17 AY1 d   1      66.132  71.286 148.088  0.00  0.00     0.031 H 
ATOM     44  H18 AY1 d   1      66.636  70.369 146.628  0.00  0.00     0.031 H 
ENDBRANCH   9  41
BRANCH   4  45
ATOM     45  C18 AY1 d   1      66.537  75.531 145.505  0.00  0.00    -0.051 C 
ATOM     46  H19 AY1 d   1      67.547  75.266 145.159  0.00  0.00     0.034 H 
ATOM     47  H20 AY1 d   1      66.564  75.752 146.582  0.00  0.00     0.034 H 
BRANCH  45  48
ATOM     48  C19 AY1 d   1      66.066  76.785 144.752  0.00  0.00    -0.064 C 
ATOM     49  H21 AY1 d   1      66.061  76.578 143.672  0.00  0.00     0.033 H 
ATOM     50  H22 AY1 d   1      66.756  77.615 144.963  0.00  0.00     0.033 H 
BRANCH  48  51
ATOM     51  C20 AY1 d   1      64.643  77.181 145.201  0.00  0.00    -0.065 C 
ATOM     52  H23 AY1 d   1      64.279  76.422 145.909  0.00  0.00     0.033 H 
ATOM     53  H24 AY1 d   1      63.992  77.198 144.315  0.00  0.00     0.033 H 
BRANCH  51  54
ATOM     54  C21 AY1 d   1      64.568  78.555 145.883  0.00  0.00    -0.065 C 
ATOM     55  H25 AY1 d   1      63.767  79.143 145.411  0.00  0.00     0.033 H 
ATOM     56  H26 AY1 d   1      65.530  79.071 145.749  0.00  0.00     0.033 H 
BRANCH  54  57
ATOM     57  C22 AY1 d   1      64.275  78.435 147.383  0.00  0.00    -0.069 C 
ATOM     58  H27 AY1 d   1      64.091  77.378 147.625  0.00  0.00     0.032 H 
ATOM     59  H28 AY1 d   1      63.378  79.026 147.618  0.00  0.00     0.032 H 
BRANCH  57  60
ATOM     60  C23 AY1 d   1      65.442  78.944 148.239  0.00  0.00    -0.077 C 
ATOM     61  H29 AY1 d   1      65.188  78.839 149.304  0.00  0.00     0.027 H 
ATOM     62  H30 AY1 d   1      65.630  80.003 148.010  0.00  0.00     0.027 H 
ATOM     63  H31 AY1 d   1      66.344  78.355 148.017  0.00  0.00     0.027 H 
ENDBRANCH  57  60
ENDBRANCH  54  57
ENDBRANCH  51  54
ENDBRANCH  48  51
ENDBRANCH  45  48
ENDBRANCH   4  45
BRANCH   5  64
ATOM     64  O8  AY1 d   1      66.495  73.599 147.288  0.00  0.00    -0.312 OA
BRANCH  64  65
ATOM     65  C24 AY1 d   1      67.904  73.564 147.547  0.00  0.00     0.262 C 
ATOM     66  O9  AY1 d   1      68.645  73.218 146.638  0.00  0.00    -0.265 OA
BRANCH  65  67
ATOM     67  C25 AY1 d   1      68.423  73.962 148.887  0.00  0.00     0.023 C 
ATOM     68  H32 AY1 d   1      67.879  73.429 149.681  0.00  0.00     0.054 H 
BRANCH  67  69
ATOM     69  C26 AY1 d   1      69.896  73.567 148.935  0.00  0.00    -0.065 C 
ATOM     70  H33 AY1 d   1      70.318  73.845 149.912  0.00  0.00     0.028 H 
ATOM     71  H34 AY1 d   1      70.442  74.091 148.137  0.00  0.00     0.028 H 
ATOM     72  H35 AY1 d   1      69.989  72.481 148.791  0.00  0.00     0.028 H 
ENDBRANCH  67  69
BRANCH  67  73
ATOM     73  C27 AY1 d   1      68.194  75.474 149.048  0.00  0.00    -0.065 C 
ATOM     74  H36 AY1 d   1      67.116  75.688 149.004  0.00  0.00     0.028 H 
ATOM     75  H37 AY1 d   1      68.708  76.011 148.237  0.00  0.00     0.028 H 
ATOM     76  H38 AY1 d   1      68.594  75.804 150.018  0.00  0.00     0.028 H 
ENDBRANCH  67  73
ENDBRANCH  65  67
ENDBRANCH  64  65
ENDBRANCH   5  64
TORSDOF 16
