REMARK WARNING: 32 MAX_TORS EXCEEDED!!!
REMARK  45 active torsions:
REMARK  status: ('A' for Active; 'I' for Inactive)
REMARK    1  A    between atoms: N_1  and  CA_2 
REMARK    2  A    between atoms: CA_2  and  C_3 
REMARK    3  A    between atoms: CA_2  and  CB_5 
REMARK       I    between atoms: C_3  and  N_9 
REMARK    4  A    between atoms: CB_5  and  CG_6 
REMARK       I    between atoms: CG_6  and  ND2_8 
REMARK    5  A    between atoms: N_9  and  CA_10 
REMARK    6  A    between atoms: CA_10  and  C_11 
REMARK    7  A    between atoms: CA_10  and  CB_13 
REMARK       I    between atoms: C_11  and  N_20 
REMARK    8  A    between atoms: CB_13  and  CG_14 
REMARK    9  A    between atoms: N_20  and  CA_21 
REMARK   10  A    between atoms: CA_21  and  C_22 
REMARK   11  A    between atoms: CA_21  and  CB_24 
REMARK       I    between atoms: C_22  and  N_28 
REMARK   12  A    between atoms: CB_24  and  CG_25 
REMARK   13  A    between atoms: N_28  and  CA_29 
REMARK   14  A    between atoms: CA_29  and  C_30 
REMARK   15  A    between atoms: CA_29  and  CB_32 
REMARK       I    between atoms: C_30  and  N_36 
REMARK   16  A    between atoms: CB_32  and  CG_33 
REMARK       I    between atoms: CG_33  and  ND2_35 
REMARK   17  A    between atoms: CA_37  and  C_38 
REMARK       I    between atoms: C_38  and  N_43 
REMARK   18  A    between atoms: N_43  and  CA_44 
REMARK   19  A    between atoms: CA_44  and  C_45 
REMARK   20  A    between atoms: CA_44  and  CB_47 
REMARK       I    between atoms: C_45  and  N_50 
REMARK   21  A    between atoms: CB_47  and  CG1_48 
REMARK   22  A    between atoms: CB_47  and  CG2_49 
REMARK   23  A    between atoms: N_50  and  CA_51 
REMARK   24  A    between atoms: CA_51  and  C_52 
REMARK   25  A    between atoms: CA_51  and  CB_54 
REMARK       I    between atoms: C_52  and  N_62 
REMARK   26  A    between atoms: CB_54  and  CG_55 
REMARK   27  A    between atoms: CZ_60  and  OH_61 
REMARK   28  A    between atoms: N_62  and  CA_63 
REMARK   29  A    between atoms: CA_63  and  C_64 
REMARK   30  A    between atoms: CA_63  and  CB_66 
REMARK       I    between atoms: C_64  and  N_73 
REMARK   31  A    between atoms: CB_66  and  CG_67 
REMARK   32  A    between atoms: CG_67  and  CD_68 
REMARK   33  A    between atoms: CD_68  and  NE_69 
REMARK       I    between atoms: NE_69  and  CZ_70 
REMARK       I    between atoms: CZ_70  and  NH1_71 
REMARK       I    between atoms: CZ_70  and  NH2_72 
REMARK   34  A    between atoms: N_73  and  CA_74 
REMARK   35  A    between atoms: CA_74  and  C_75 
REMARK   36  A    between atoms: CA_74  and  CB_77 
REMARK       I    between atoms: C_75  and  N_82 
REMARK   37  A    between atoms: CB_77  and  CG_78 
REMARK   38  A    between atoms: CG_78  and  CD_79 
REMARK   39  A    between atoms: CD_79  and  CE_80 
REMARK   40  A    between atoms: CE_80  and  NZ_81 
REMARK   41  A    between atoms: N_82  and  CA_83 
REMARK   42  A    between atoms: CA_83  and  C_84 
REMARK   43  A    between atoms: CA_83  and  CB_86 
REMARK   44  A    between atoms: CB_86  and  OG1_87 
REMARK   45  A    between atoms: CB_86  and  CG2_88 
ROOT
ATOM      1  CA  VAL d   1       2.247 -11.200  12.511  0.00  0.00     0.092 C 
ATOM      2  H36 VAL d   1       2.120 -12.290  12.585  0.00  0.00     0.088 H 
ENDROOT
BRANCH   1   3
ATOM      3  N   VAL d   1       1.569 -10.605  13.656  0.00  0.00    -0.346 N 
ATOM      4  C   PRO d   1       1.240 -11.335  14.718  0.00  0.00     0.241 C 
ATOM      5  O   PRO d   1       1.522 -12.530  14.818  0.00  0.00    -0.271 OA
ATOM      6  H35 VAL d   1       1.347  -9.630  13.643  0.00  0.00     0.163 HD
BRANCH   4   7
ATOM      7  CA  PRO d   1       0.499 -10.616  15.844  0.00  0.00     0.091 C 
ATOM      8  N   PRO d   1       0.614  -9.155  15.826  0.00  0.00    -0.337 N 
ATOM      9  C   ASN d   1       1.801  -8.536  15.933  0.00  0.00     0.243 C 
ATOM     10  CD  PRO d   1      -0.707  -8.532  15.630  0.00  0.00    -0.001 C 
ATOM     11  O   ASN d   1       2.853  -9.158  16.052  0.00  0.00    -0.271 OA
ATOM     12  CG  PRO d   1      -1.496  -9.654  15.004  0.00  0.00    -0.048 C 
ATOM     13  H33 PRO d   1      -0.643  -7.665  14.957  0.00  0.00     0.064 H 
ATOM     14  H34 PRO d   1      -1.148  -8.220  16.588  0.00  0.00     0.064 H 
ATOM     15  CB  PRO d   1      -1.014 -10.842  15.778  0.00  0.00    -0.036 C 
ATOM     16  H31 PRO d   1      -2.578  -9.504  15.135  0.00  0.00     0.035 H 
ATOM     17  H32 PRO d   1      -1.267  -9.755  13.933  0.00  0.00     0.035 H 
ATOM     18  H29 PRO d   1      -1.455 -10.864  16.785  0.00  0.00     0.036 H 
ATOM     19  H30 PRO d   1      -1.252 -11.779  15.253  0.00  0.00     0.036 H 
ATOM     20  H28 PRO d   1       0.893 -11.000  16.797  0.00  0.00     0.087 H 
BRANCH   9  21
ATOM     21  CA  ASN d   1       1.803  -7.013  15.903  0.00  0.00     0.097 C 
ATOM     22  H23 ASN d   1       0.784  -6.644  15.716  0.00  0.00     0.088 H 
BRANCH  21  23
ATOM     23  N   ASN d   1       2.265  -6.535  17.196  0.00  0.00    -0.346 N 
ATOM     24  C   ASP d   1       1.417  -6.378  18.204  0.00  0.00     0.241 C 
ATOM     25  O   ASP d   1       0.208  -6.592  18.093  0.00  0.00    -0.271 OA
ATOM     26  H22 ASN d   1       3.233  -6.322  17.327  0.00  0.00     0.163 HD
BRANCH  24  27
ATOM     27  CA  ASP d   1       2.009  -5.897  19.526  0.00  0.00     0.098 C 
ATOM     28  H19 ASP d   1       2.934  -5.333  19.337  0.00  0.00     0.088 H 
BRANCH  27  29
ATOM     29  N   ASP d   1       1.037  -5.039  20.185  0.00  0.00    -0.345 N 
ATOM     30  C   PHE d   1       0.977  -3.723  20.001  0.00  0.00     0.241 C 
ATOM     31  O   PHE d   1       1.757  -3.090  19.277  0.00  0.00    -0.271 OA
ATOM     32  H18 ASP d   1       0.379  -5.461  20.809  0.00  0.00     0.163 HD
BRANCH  30  33
ATOM     33  CA  PHE d   1      -0.130  -3.020  20.776  0.00  0.00     0.093 C 
ATOM     34  H10 PHE d   1      -0.184  -3.489  21.770  0.00  0.00     0.088 H 
BRANCH  33  35
ATOM     35  N   PHE d   1       0.099  -1.600  20.976  0.00  0.00    -0.346 N 
ATOM     36  C   ASN d   1      -0.587  -0.930  21.895  0.00  0.00     0.249 C 
ATOM     37  O   ASN d   1      -1.428  -1.465  22.621  0.00  0.00    -0.271 OA
ATOM     38  H9  PHE d   1       0.778  -1.123  20.418  0.00  0.00     0.163 HD
BRANCH  36  39
ATOM     39  CA  ASN d   1      -0.278   0.554  22.021  0.00  0.00     0.183 C 
ATOM     40  H4  ASN d   1       0.195   0.900  21.090  0.00  0.00     0.099 H 
BRANCH  39  41
ATOM     41  N   ASN d   1      -1.532   1.335  22.242  0.00  0.00    -0.066 N 
ATOM     42  H1  ASN d   1      -1.308   2.314  22.323  0.00  0.00     0.275 HD
ATOM     43  H2  ASN d   1      -1.978   1.021  23.090  0.00  0.00     0.275 HD
ATOM     44  H3  ASN d   1      -2.156   1.196  21.463  0.00  0.00     0.275 HD
ENDBRANCH  39  41
BRANCH  39  45
ATOM     45  CB  ASN d   1       0.690   0.776  23.185  0.00  0.00     0.044 C 
ATOM     46  H5  ASN d   1       1.541   0.089  23.071  0.00  0.00     0.051 H 
ATOM     47  H6  ASN d   1       0.165   0.556  24.126  0.00  0.00     0.051 H 
BRANCH  45  48
ATOM     48  CG  ASN d   1       1.218   2.199  23.243  0.00  0.00     0.217 C 
ATOM     49  OD1 ASN d   1       0.514   3.150  22.904  0.00  0.00    -0.274 OA
ATOM     50  ND2 ASN d   1       2.458   2.351  23.693  0.00  0.00    -0.370 N 
ATOM     51  H7  ASN d   1       2.859   3.265  23.754  0.00  0.00     0.159 HD
ATOM     52  H8  ASN d   1       2.990   1.552  23.971  0.00  0.00     0.159 HD
ENDBRANCH  45  48
ENDBRANCH  39  45
ENDBRANCH  36  39
ENDBRANCH  33  35
BRANCH  33  53
ATOM     53  CB  PHE d   1      -1.474  -3.227  20.074  0.00  0.00    -0.014 C 
ATOM     54  H11 PHE d   1      -2.273  -2.876  20.744  0.00  0.00     0.043 H 
ATOM     55  H12 PHE d   1      -1.603  -4.302  19.882  0.00  0.00     0.043 H 
BRANCH  53  56
ATOM     56  CG  PHE d   1      -1.596  -2.494  18.767  0.00  0.00    -0.056 A 
ATOM     57  CD1 PHE d   1      -1.116  -3.056  17.591  0.00  0.00    -0.077 A 
ATOM     58  CE1 PHE d   1      -1.222  -2.374  16.379  0.00  0.00    -0.082 A 
ATOM     59  H13 PHE d   1      -0.654  -4.036  17.616  0.00  0.00     0.084 H 
ATOM     60  CZ  PHE d   1      -1.813  -1.117  16.341  0.00  0.00    -0.083 A 
ATOM     61  H15 PHE d   1      -0.844  -2.824  15.468  0.00  0.00     0.083 H 
ATOM     62  CE2 PHE d   1      -2.295  -0.544  17.512  0.00  0.00    -0.082 A 
ATOM     63  H17 PHE d   1      -1.898  -0.585  15.400  0.00  0.00     0.083 H 
ATOM     64  CD2 PHE d   1      -2.185  -1.236  18.718  0.00  0.00    -0.077 A 
ATOM     65  H16 PHE d   1      -2.755   0.437  17.488  0.00  0.00     0.083 H 
ATOM     66  H14 PHE d   1      -2.564  -0.787  19.629  0.00  0.00     0.084 H 
ENDBRANCH  53  56
ENDBRANCH  33  53
ENDBRANCH  30  33
ENDBRANCH  27  29
BRANCH  27  67
ATOM     67  CB  ASP d   1       2.318  -7.110  20.411  0.00  0.00     0.043 C 
ATOM     68  H20 ASP d   1       3.000  -7.779  19.865  0.00  0.00     0.052 H 
ATOM     69  H21 ASP d   1       1.377  -7.639  20.623  0.00  0.00     0.052 H 
BRANCH  67  70
ATOM     70  CG  ASP d   1       2.967  -6.726  21.730  0.00  0.00     0.175 C 
ATOM     71  OD1 ASP d   1       4.183  -6.455  21.741  0.00  0.00    -0.648 OA
ATOM     72  OD2 ASP d   1       2.262  -6.690  22.760  0.00  0.00    -0.648 OA
ENDBRANCH  67  70
ENDBRANCH  27  67
ENDBRANCH  24  27
ENDBRANCH  21  23
BRANCH  21  73
ATOM     73  CB  ASN d   1       2.730  -6.519  14.791  0.00  0.00     0.036 C 
ATOM     74  H24 ASN d   1       3.764  -6.796  15.044  0.00  0.00     0.051 H 
ATOM     75  H25 ASN d   1       2.650  -5.424  14.725  0.00  0.00     0.051 H 
BRANCH  73  76
ATOM     76  CG  ASN d   1       2.384  -7.114  13.442  0.00  0.00     0.217 C 
ATOM     77  OD1 ASN d   1       1.370  -7.793  13.290  0.00  0.00    -0.274 OA
ATOM     78  ND2 ASN d   1       3.229  -6.859  12.449  0.00  0.00    -0.370 N 
ATOM     79  H26 ASN d   1       3.052  -7.226  11.536  0.00  0.00     0.159 HD
ATOM     80  H27 ASN d   1       4.042  -6.301  12.615  0.00  0.00     0.159 HD
ENDBRANCH  73  76
ENDBRANCH  21  73
ENDBRANCH   9  21
ENDBRANCH   4   7
ENDBRANCH   1   3
BRANCH   1  81
ATOM     81  C   VAL d   1       3.748 -10.911  12.457  0.00  0.00     0.241 C 
ATOM     82  O   VAL d   1       4.423 -11.278  11.492  0.00  0.00    -0.271 OA
ATOM     83  N   TYR d   1       4.271 -10.263  13.492  0.00  0.00    -0.346 N 
ATOM     84  H44 TYR d   1       3.677  -9.989  14.249  0.00  0.00     0.163 HD
BRANCH  83  85
ATOM     85  CA  TYR d   1       5.695  -9.942  13.548  0.00  0.00     0.093 C 
ATOM     86  H45 TYR d   1       5.959  -9.362  12.651  0.00  0.00     0.088 H 
BRANCH  85  87
ATOM     87  C   TYR d   1       6.538 -11.212  13.577  0.00  0.00     0.241 C 
ATOM     88  O   TYR d   1       6.175 -12.188  14.236  0.00  0.00    -0.271 OA
ATOM     89  N   ARG d   1       7.655 -11.188  12.854  0.00  0.00    -0.346 N 
ATOM     90  H53 ARG d   1       7.865 -10.361  12.333  0.00  0.00     0.163 HD
BRANCH  89  91
ATOM     91  CA  ARG d   1       8.592 -12.312  12.783  0.00  0.00     0.089 C 
ATOM     92  H54 ARG d   1       8.220 -13.152  13.388  0.00  0.00     0.087 H 
BRANCH  91  93
ATOM     93  C   ARG d   1       9.935 -11.821  13.326  0.00  0.00     0.241 C 
ATOM     94  O   ARG d   1      10.562 -10.949  12.730  0.00  0.00    -0.271 OA
ATOM     95  N   LYS d   1      10.376 -12.383  14.448  0.00  0.00    -0.346 N 
ATOM     96  H66 LYS d   1       9.829 -13.101  14.880  0.00  0.00     0.163 HD
BRANCH  95  97
ATOM     97  CA  LYS d   1      11.639 -11.981  15.069  0.00  0.00     0.089 C 
ATOM     98  H67 LYS d   1      11.602 -10.892  15.217  0.00  0.00     0.087 H 
BRANCH  97  99
ATOM     99  C   LYS d   1      12.874 -12.292  14.225  0.00  0.00     0.241 C 
ATOM    100  O   LYS d   1      13.858 -11.552  14.258  0.00  0.00    -0.271 OA
ATOM    101  N   THR d   1      12.824 -13.388  13.475  0.00  0.00    -0.343 N 
ATOM    102  H79 THR d   1      11.997 -13.950  13.484  0.00  0.00     0.163 HD
BRANCH 101 103
ATOM    103  CA  THR d   1      13.951 -13.788  12.638  0.00  0.00     0.120 C 
ATOM    104  H80 THR d   1      14.779 -13.090  12.830  0.00  0.00     0.093 H 
BRANCH 103 105
ATOM    105  C   THR d   1      13.614 -13.738  11.150  0.00  0.00     0.199 C 
ATOM    106  O   THR d   1      12.464 -13.383  10.814  0.00  0.00    -0.646 OA
ATOM    107  OXT THR d   1      14.508 -14.056  10.337  0.00  0.00    -0.646 OA
ENDBRANCH 103 105
BRANCH 103 108
ATOM    108  CB  THR d   1      14.418 -15.215  12.986  0.00  0.00     0.061 C 
ATOM    109  H81 THR d   1      15.274 -15.480  12.348  0.00  0.00     0.086 H 
BRANCH 108 110
ATOM    110  OG1 THR d   1      13.348 -16.140  12.754  0.00  0.00    -0.393 OA
ATOM    111  H82 THR d   1      13.638 -17.019  12.969  0.00  0.00     0.210 HD
ENDBRANCH 108 110
BRANCH 108 112
ATOM    112  CG2 THR d   1      14.840 -15.294  14.446  0.00  0.00    -0.050 C 
ATOM    113  H83 THR d   1      15.170 -16.317  14.677  0.00  0.00     0.031 H 
ATOM    114  H84 THR d   1      13.988 -15.029  15.089  0.00  0.00     0.031 H 
ATOM    115  H85 THR d   1      15.668 -14.592  14.627  0.00  0.00     0.031 H 
ENDBRANCH 108 112
ENDBRANCH 103 108
ENDBRANCH 101 103
ENDBRANCH  97  99
BRANCH  97 116
ATOM    116  CB  LYS d   1      11.788 -12.652  16.439  0.00  0.00    -0.038 C 
ATOM    117  H68 LYS d   1      12.751 -12.343  16.871  0.00  0.00     0.036 H 
ATOM    118  H69 LYS d   1      11.786 -13.742  16.291  0.00  0.00     0.036 H 
BRANCH 116 119
ATOM    119  CG  LYS d   1      10.690 -12.305  17.430  0.00  0.00    -0.061 C 
ATOM    120  H70 LYS d   1       9.720 -12.620  17.017  0.00  0.00     0.033 H 
ATOM    121  H71 LYS d   1      10.683 -11.217  17.593  0.00  0.00     0.033 H 
BRANCH 119 122
ATOM    122  CD  LYS d   1      10.916 -13.006  18.762  0.00  0.00    -0.043 C 
ATOM    123  H72 LYS d   1      11.885 -12.688  19.174  0.00  0.00     0.035 H 
ATOM    124  H73 LYS d   1      10.926 -14.094  18.597  0.00  0.00     0.035 H 
BRANCH 122 125
ATOM    125  CE  LYS d   1       9.819 -12.667  19.761  0.00  0.00     0.080 C 
ATOM    126  H74 LYS d   1       8.851 -12.989  19.349  0.00  0.00     0.075 H 
ATOM    127  H75 LYS d   1       9.806 -11.579  19.920  0.00  0.00     0.075 H 
BRANCH 125 128
ATOM    128  NZ  LYS d   1      10.033 -13.343  21.073  0.00  0.00    -0.079 N 
ATOM    129  H76 LYS d   1       9.288 -13.094  21.705  0.00  0.00     0.274 HD
ATOM    130  H77 LYS d   1      10.915 -13.050  21.462  0.00  0.00     0.274 HD
ATOM    131  H78 LYS d   1      10.040 -14.342  20.939  0.00  0.00     0.274 HD
ENDBRANCH 125 128
ENDBRANCH 122 125
ENDBRANCH 119 122
ENDBRANCH 116 119
ENDBRANCH  97 116
ENDBRANCH  95  97
ENDBRANCH  91  93
BRANCH  91 132
ATOM    132  CB  ARG d   1       8.772 -12.762  11.329  0.00  0.00    -0.036 C 
ATOM    133  H55 ARG d   1       9.509 -13.579  11.314  0.00  0.00     0.036 H 
ATOM    134  H56 ARG d   1       9.159 -11.908  10.753  0.00  0.00     0.036 H 
BRANCH 132 135
ATOM    135  CG  ARG d   1       7.505 -13.257  10.645  0.00  0.00    -0.048 C 
ATOM    136  H57 ARG d   1       7.620 -13.140   9.557  0.00  0.00     0.035 H 
ATOM    137  H58 ARG d   1       6.654 -12.652  10.991  0.00  0.00     0.035 H 
BRANCH 135 138
ATOM    138  CD  ARG d   1       7.225 -14.720  10.955  0.00  0.00     0.009 C 
ATOM    139  H59 ARG d   1       8.078 -15.322  10.609  0.00  0.00     0.064 H 
ATOM    140  H60 ARG d   1       6.317 -15.026  10.415  0.00  0.00     0.064 H 
BRANCH 138 141
ATOM    141  NE  ARG d   1       7.026 -14.969  12.380  0.00  0.00    -0.227 N 
ATOM    142  CZ  ARG d   1       6.811 -16.172  12.902  0.00  0.00     0.665 C 
ATOM    143  NH1 ARG d   1       6.767 -17.241  12.117  0.00  0.00    -0.235 N 
ATOM    144  NH2 ARG d   1       6.639 -16.309  14.211  0.00  0.00    -0.235 N 
ATOM    145  H62 ARG d   1       6.600 -18.172  12.524  0.00  0.00     0.174 HD
ATOM    146  H63 ARG d   1       6.900 -17.139  11.101  0.00  0.00     0.174 HD
ATOM    147  H64 ARG d   1       6.672 -15.482  14.824  0.00  0.00     0.174 HD
ATOM    148  H65 ARG d   1       6.472 -17.242  14.614  0.00  0.00     0.174 HD
ATOM    149  H61 ARG d   1       7.054 -14.162  13.020  0.00  0.00     0.177 HD
ENDBRANCH 138 141
ENDBRANCH 135 138
ENDBRANCH 132 135
ENDBRANCH  91 132
ENDBRANCH  89  91
ENDBRANCH  85  87
BRANCH  85 150
ATOM    150  CB  TYR d   1       6.006  -9.102  14.791  0.00  0.00    -0.014 C 
ATOM    151  H46 TYR d   1       5.623  -9.634  15.675  0.00  0.00     0.043 H 
ATOM    152  H47 TYR d   1       5.492  -8.134  14.694  0.00  0.00     0.043 H 
BRANCH 150 153
ATOM    153  CG  TYR d   1       7.486  -8.840  14.993  0.00  0.00    -0.056 A 
ATOM    154  CD1 TYR d   1       8.219  -8.103  14.061  0.00  0.00    -0.074 A 
ATOM    155  CE1 TYR d   1       9.580  -7.872  14.237  0.00  0.00    -0.051 A 
ATOM    156  H48 TYR d   1       7.720  -7.704  13.185  0.00  0.00     0.084 H 
ATOM    157  CZ  TYR d   1      10.222  -8.381  15.356  0.00  0.00     0.065 A 
ATOM    158  H50 TYR d   1      10.135  -7.298  13.504  0.00  0.00     0.087 H 
ATOM    159  CE2 TYR d   1       9.516  -9.116  16.295  0.00  0.00    -0.051 A 
ATOM    160  CD2 TYR d   1       8.155  -9.340  16.110  0.00  0.00    -0.074 A 
ATOM    161  H51 TYR d   1      10.021  -9.514  17.168  0.00  0.00     0.087 H 
ATOM    162  H49 TYR d   1       7.605  -9.913  16.847  0.00  0.00     0.084 H 
BRANCH 157 163
ATOM    163  OH  TYR d   1      11.565  -8.146  15.539  0.00  0.00    -0.361 OA
ATOM    164  H52 TYR d   1      11.897  -7.632  14.812  0.00  0.00     0.217 HD
ENDBRANCH 157 163
ENDBRANCH 150 153
ENDBRANCH  85 150
ENDBRANCH  83  85
ENDBRANCH   1  81
BRANCH   1 165
ATOM    165  CB  VAL d   1       1.595 -10.722  11.191  0.00  0.00    -0.033 C 
ATOM    166  H37 VAL d   1       1.962  -9.711  10.960  0.00  0.00     0.042 H 
BRANCH 165 167
ATOM    167  CG1 VAL d   1       1.975 -11.649  10.054  0.00  0.00    -0.071 C 
ATOM    168  H38 VAL d   1       1.506 -11.299   9.123  0.00  0.00     0.028 H 
ATOM    169  H39 VAL d   1       1.627 -12.668  10.279  0.00  0.00     0.028 H 
ATOM    170  H40 VAL d   1       3.068 -11.653   9.934  0.00  0.00     0.028 H 
ENDBRANCH 165 167
BRANCH 165 171
ATOM    171  CG2 VAL d   1       0.084 -10.670  11.348  0.00  0.00    -0.071 C 
ATOM    172  H41 VAL d   1      -0.175  -9.994  12.176  0.00  0.00     0.028 H 
ATOM    173  H42 VAL d   1      -0.297 -11.679  11.565  0.00  0.00     0.028 H 
ATOM    174  H43 VAL d   1      -0.369 -10.300  10.417  0.00  0.00     0.028 H 
ENDBRANCH 165 171
ENDBRANCH   1 165
TORSDOF 45
