REMARK  7 active torsions:
REMARK  status: ('A' for Active; 'I' for Inactive)
REMARK    1  A    between atoms: C5_1  and  C4_2 
REMARK    2  A    between atoms: C4_2  and  C3_3 
REMARK    3  A    between atoms: C3_3  and  C2_4 
REMARK    4  A    between atoms: C2_4  and  C3A_5 
REMARK    5  A    between atoms: C2_4  and  C1_8 
REMARK    6  A    between atoms: C3A_5  and  C4A_6 
REMARK    7  A    between atoms: C4A_6  and  C5A_7 
REMARK       I    between atoms: C1_8  and  N_9 
ROOT
ATOM      1  C2  VPR d   1      16.074  23.229   9.029  0.00  0.00     0.023 C 
ATOM      2  H8  VPR d   1      15.710  24.071   8.421  0.00  0.00     0.054 H 
ENDROOT
BRANCH   1   3
ATOM      3  C3  VPR d   1      15.710  21.958   8.265  0.00  0.00    -0.054 C 
ATOM      4  H6  VPR d   1      15.872  21.100   8.934  0.00  0.00     0.034 H 
ATOM      5  H7  VPR d   1      14.645  22.016   7.995  0.00  0.00     0.034 H 
BRANCH   3   6
ATOM      6  C4  VPR d   1      16.503  21.722   6.999  0.00  0.00    -0.068 C 
ATOM      7  H4  VPR d   1      16.872  22.697   6.648  0.00  0.00     0.032 H 
ATOM      8  H5  VPR d   1      17.357  21.076   7.253  0.00  0.00     0.032 H 
BRANCH   6   9
ATOM      9  C5  VPR d   1      15.767  21.081   5.872  0.00  0.00    -0.076 C 
ATOM     10  H1  VPR d   1      16.444  20.962   5.013  0.00  0.00     0.027 H 
ATOM     11  H2  VPR d   1      14.915  21.714   5.583  0.00  0.00     0.027 H 
ATOM     12  H3  VPR d   1      15.399  20.094   6.189  0.00  0.00     0.027 H 
ENDBRANCH   6   9
ENDBRANCH   3   6
ENDBRANCH   1   3
BRANCH   1  13
ATOM     13  C3A VPR d   1      17.573  23.416   9.166  0.00  0.00    -0.054 C 
ATOM     14  H9  VPR d   1      18.020  23.508   8.165  0.00  0.00     0.034 H 
ATOM     15  H10 VPR d   1      18.002  22.543   9.680  0.00  0.00     0.034 H 
BRANCH  13  16
ATOM     16  C4A VPR d   1      17.881  24.671   9.969  0.00  0.00    -0.068 C 
ATOM     17  H11 VPR d   1      17.723  24.442  11.033  0.00  0.00     0.032 H 
ATOM     18  H12 VPR d   1      17.179  25.457   9.655  0.00  0.00     0.032 H 
BRANCH  16  19
ATOM     19  C5A VPR d   1      19.290  25.208   9.809  0.00  0.00    -0.076 C 
ATOM     20  H13 VPR d   1      19.411  26.110  10.426  0.00  0.00     0.027 H 
ATOM     21  H14 VPR d   1      19.469  25.459   8.753  0.00  0.00     0.027 H 
ATOM     22  H15 VPR d   1      20.012  24.444  10.132  0.00  0.00     0.027 H 
ENDBRANCH  16  19
ENDBRANCH  13  16
ENDBRANCH   1  13
BRANCH   1  23
ATOM     23  C1  VPR d   1      15.356  23.326  10.378  0.00  0.00     0.219 C 
ATOM     24  N   VPR d   1      15.798  22.750  11.526  0.00  0.00    -0.370 N 
ATOM     25  H16 VPR d   1      15.275  22.856  12.372  0.00  0.00     0.159 HD
ATOM     26  H17 VPR d   1      16.646  22.220  11.525  0.00  0.00     0.159 HD
ATOM     27  O   VPR d   1      14.360  24.021  10.419  0.00  0.00    -0.273 OA
ENDBRANCH   1  23
TORSDOF 7
