REMARK  8 active torsions:
REMARK  status: ('A' for Active; 'I' for Inactive)
REMARK    1  A    between atoms: CAE_5  and  CAG_6 
REMARK    2  A    between atoms: CAG_6  and  CAH_7 
REMARK       I    between atoms: CAH_7  and  NAJ_9 
REMARK    3  A    between atoms: NAJ_9  and  CAK_10 
REMARK    4  A    between atoms: CAK_10  and  B_11 
REMARK    5  A    between atoms: CAK_10  and  CAL_14 
REMARK    6  A    between atoms: B_11  and  OAT_12 
REMARK    7  A    between atoms: B_11  and  OAO_13 
REMARK    8  A    between atoms: CAR_19  and  CAU_20 
ROOT
ATOM      1  CAK SM2 d   1      35.357  10.553  21.269  0.00  0.00     0.071 C 
ATOM      2  H7  SM2 d   1      36.398  10.705  21.588  0.00  0.00     0.072 H 
ENDROOT
BRANCH   1   3
ATOM      3  NAJ SM2 d   1      34.847   9.279  21.793  0.00  0.00    -0.355 N 
ATOM      4  CAH SM2 d   1      35.538   8.589  22.755  0.00  0.00     0.222 C 
ATOM      5  OAI SM2 d   1      36.601   8.987  23.215  0.00  0.00    -0.273 OA
ATOM      6  H6  SM2 d   1      33.985   8.911  21.444  0.00  0.00     0.162 HD
BRANCH   4   7
ATOM      7  CAG SM2 d   1      34.870   7.273  23.214  0.00  0.00     0.039 C 
ATOM      8  H4  SM2 d   1      35.368   6.428  22.715  0.00  0.00     0.055 H 
ATOM      9  H5  SM2 d   1      34.987   7.176  24.303  0.00  0.00     0.055 H 
BRANCH   7  10
ATOM     10  CAE SM2 d   1      33.378   7.241  22.871  0.00  0.00    -0.009 A 
ATOM     11  CAF SM2 d   1      32.770   6.198  22.248  0.00  0.00    -0.069 A 
ATOM     12  CAC SM2 d   1      31.380   6.435  22.045  0.00  0.00    -0.076 A 
ATOM     13  H1  SM2 d   1      33.284   5.289  21.940  0.00  0.00     0.085 H 
ATOM     14  CAB SM2 d   1      30.984   7.669  22.530  0.00  0.00    -0.045 A 
ATOM     15  H2  SM2 d   1      30.707   5.727  21.564  0.00  0.00     0.084 H 
ATOM     16  SAD SM2 d   1      32.298   8.517  23.226  0.00  0.00    -0.106 SA
ATOM     17  H3  SM2 d   1      29.966   8.052  22.476  0.00  0.00     0.095 H 
ENDBRANCH   7  10
ENDBRANCH   4   7
ENDBRANCH   1   3
BRANCH   1  18
ATOM     18  B   SM2 d   1      34.439  11.705  21.879  0.00  0.00     0.519 B 
BRANCH  18  19
ATOM     19  OAT SM2 d   1      35.052  12.895  22.493  0.00  0.00    -0.436 OA
ATOM     20  H8  SM2 d   1      34.809  12.938  23.410  0.00  0.00     0.184 HD
ENDBRANCH  18  19
BRANCH  18  21
ATOM     21  OAO SM2 d   1      32.966  11.569  21.875  0.00  0.00    -0.436 OA
ATOM     22  H9  SM2 d   1      32.725  10.756  21.447  0.00  0.00     0.184 HD
ENDBRANCH  18  21
ENDBRANCH   1  18
BRANCH   1  23
ATOM     23  CAL SM2 d   1      35.302  10.520  19.747  0.00  0.00    -0.038 A 
ATOM     24  CAQ SM2 d   1      35.776   9.381  19.033  0.00  0.00    -0.059 A 
ATOM     25  CAR SM2 d   1      35.715   9.340  17.608  0.00  0.00     0.041 A 
ATOM     26  H10 SM2 d   1      36.187   8.538  19.578  0.00  0.00     0.086 H 
ATOM     27  CAS SM2 d   1      35.172  10.456  16.893  0.00  0.00    -0.066 A 
ATOM     28  CAN SM2 d   1      34.698  11.604  17.609  0.00  0.00    -0.081 A 
ATOM     29  H13 SM2 d   1      35.120  10.433  15.810  0.00  0.00     0.085 H 
ATOM     30  CAM SM2 d   1      34.764  11.634  19.035  0.00  0.00    -0.075 A 
ATOM     31  H12 SM2 d   1      34.289  12.450  17.068  0.00  0.00     0.083 H 
ATOM     32  H11 SM2 d   1      34.406  12.502  19.576  0.00  0.00     0.084 H 
BRANCH  25  33
ATOM     33  CAU SM2 d   1      36.223   8.113  16.864  0.00  0.00     0.209 C 
ATOM     34  OAW SM2 d   1      36.555   7.098  17.526  0.00  0.00    -0.644 OA
ATOM     35  OAV SM2 d   1      36.288   8.138  15.610  0.00  0.00    -0.644 OA
ENDBRANCH  25  33
ENDBRANCH   1  23
TORSDOF 8
