REMARK  8 active torsions:
REMARK  status: ('A' for Active; 'I' for Inactive)
REMARK    1  A    between atoms: C25_1  and  C24_2 
REMARK    2  A    between atoms: C24_2  and  O23_3 
REMARK    3  A    between atoms: O23_3  and  C15_4 
REMARK    4  A    between atoms: C13_5  and  C11_6 
REMARK       I    between atoms: C11_6  and  N10_8 
REMARK    5  A    between atoms: N10_8  and  C7_9 
REMARK    6  A    between atoms: C7_9  and  B_10 
REMARK    7  A    between atoms: B_10  and  O1_11 
REMARK    8  A    between atoms: B_10  and  O2_12 
ROOT
ATOM      1  C15 NBF d   1      13.579  11.977  36.420  0.00  0.00     0.085 A 
ATOM      2  C13 NBF d   1      14.220  10.863  37.113  0.00  0.00     0.076 A 
ATOM      3  C14 NBF d   1      15.628  10.620  36.915  0.00  0.00    -0.007 A 
ATOM      4  C16 NBF d   1      16.391  11.494  36.025  0.00  0.00    -0.025 A 
ATOM      5  C18 NBF d   1      17.779  11.264  35.824  0.00  0.00    -0.072 A 
ATOM      6  C20 NBF d   1      18.440  10.172  36.497  0.00  0.00    -0.082 A 
ATOM      7  C22 NBF d   1      17.703   9.309  37.370  0.00  0.00    -0.082 A 
ATOM      8  C17 NBF d   1      16.299   9.526  37.583  0.00  0.00    -0.071 A 
ATOM      9  C19 NBF d   1      15.745  12.579  35.354  0.00  0.00    -0.070 A 
ATOM     10  C21 NBF d   1      14.350  12.821  35.548  0.00  0.00    -0.049 A 
ATOM     11  H11 NBF d   1      18.343  11.911  35.163  0.00  0.00     0.084 H 
ATOM     12  H12 NBF d   1      19.500  10.004  36.341  0.00  0.00     0.083 H 
ATOM     13  H13 NBF d   1      18.206   8.490  37.871  0.00  0.00     0.083 H 
ATOM     14  H14 NBF d   1      15.743   8.871  38.244  0.00  0.00     0.084 H 
ATOM     15  H15 NBF d   1      16.317  13.222  34.694  0.00  0.00     0.085 H 
ATOM     16  H16 NBF d   1      13.870  13.646  35.034  0.00  0.00     0.087 H 
ENDROOT
BRANCH   2  17
ATOM     17  C11 NBF d   1      13.399   9.965  38.027  0.00  0.00     0.254 C 
ATOM     18  O12 NBF d   1      13.603   9.917  39.246  0.00  0.00    -0.268 OA
ATOM     19  N10 NBF d   1      12.469   9.261  37.392  0.00  0.00    -0.360 N 
ATOM     20  H6  NBF d   1      12.395   9.386  36.403  0.00  0.00     0.161 HD
BRANCH  19  21
ATOM     21  C7  NBF d   1      11.549   8.323  38.017  0.00  0.00     0.030 C 
ATOM     22  H7  NBF d   1      10.889   8.817  38.745  0.00  0.00     0.057 H 
ATOM     23  H8  NBF d   1      12.078   7.492  38.506  0.00  0.00     0.057 H 
BRANCH  21  24
ATOM     24  B   NBF d   1      10.755   7.844  36.722  0.00  0.00     0.510 B 
BRANCH  24  25
ATOM     25  O1  NBF d   1      11.681   7.226  35.717  0.00  0.00    -0.436 OA
ATOM     26  H9  NBF d   1      12.302   7.879  35.417  0.00  0.00     0.184 HD
ENDBRANCH  24  25
BRANCH  24  27
ATOM     27  O2  NBF d   1      10.030   8.973  36.072  0.00  0.00    -0.436 OA
ATOM     28  H10 NBF d   1       9.440   9.372  36.700  0.00  0.00     0.184 HD
ENDBRANCH  24  27
ENDBRANCH  21  24
ENDBRANCH  19  21
ENDBRANCH   2  17
BRANCH   1  29
ATOM     29  O23 NBF d   1      12.223  12.233  36.592  0.00  0.00    -0.350 OA
BRANCH  29  30
ATOM     30  C24 NBF d   1      11.701  12.856  37.791  0.00  0.00     0.023 C 
ATOM     31  H4  NBF d   1      10.735  13.324  37.549  0.00  0.00     0.074 H 
ATOM     32  H5  NBF d   1      11.550  12.076  38.552  0.00  0.00     0.074 H 
BRANCH  30  33
ATOM     33  C25 NBF d   1      12.637  13.938  38.377  0.00  0.00    -0.056 C 
ATOM     34  H1  NBF d   1      12.181  14.367  39.281  0.00  0.00     0.030 H 
ATOM     35  H2  NBF d   1      12.791  14.732  37.632  0.00  0.00     0.030 H 
ATOM     36  H3  NBF d   1      13.605  13.485  38.635  0.00  0.00     0.030 H 
ENDBRANCH  30  33
ENDBRANCH  29  30
ENDBRANCH   1  29
TORSDOF 8
