REMARK  10 active torsions:
REMARK  status: ('A' for Active; 'I' for Inactive)
REMARK    1  A    between atoms: N_1  and  CA_2 
REMARK    2  A    between atoms: CA_2  and  C_3 
REMARK    3  A    between atoms: CA_2  and  CB_5 
REMARK    4  A    between atoms: CB_5  and  CG_6 
REMARK    5  A    between atoms: CG_6  and  CD_7 
REMARK    6  A    between atoms: CD_7  and  NE_8 
REMARK       I    between atoms: NE_8  and  CZ_9 
REMARK       I    between atoms: CZ_9  and  NH1_10 
REMARK    7  A    between atoms: CA_13  and  C_14 
REMARK       I    between atoms: C_14  and  N_19 
REMARK    8  A    between atoms: CA_20  and  C_21 
REMARK       I    between atoms: C_21  and  N_26 
REMARK    9  A    between atoms: N_26  and  CA_27 
REMARK   10  A    between atoms: CA_27  and  C_28 
ROOT
ATOM      1  C   ARG d   1      35.722  38.713   4.062  0.00  0.00     0.185 C 
ATOM      2  O   ARG d   1      36.420  39.806   4.154  0.00  0.00    -0.175 OA
ATOM      3  N   PRO d   1      34.790  38.487   3.125  0.00  0.00    -0.348 N 
ATOM      4  CA  PRO d   1      34.623  39.328   1.939  0.00  0.00     0.091 C 
ATOM      5  CB  PRO d   1      33.955  38.452   0.868  0.00  0.00    -0.036 C 
ATOM      6  CG  PRO d   1      34.171  37.054   1.399  0.00  0.00    -0.048 C 
ATOM      7  CD  PRO d   1      34.021  37.251   2.935  0.00  0.00    -0.002 C 
ATOM      8  H16 PRO d   1      35.629  39.593   1.581  0.00  0.00     0.087 H 
ATOM      9  H17 PRO d   1      34.440  38.584  -0.111  0.00  0.00     0.036 H 
ATOM     10  H18 PRO d   1      32.883  38.681   0.780  0.00  0.00     0.036 H 
ATOM     11  H19 PRO d   1      35.174  36.681   1.142  0.00  0.00     0.035 H 
ATOM     12  H20 PRO d   1      33.411  36.359   1.011  0.00  0.00     0.035 H 
ATOM     13  H21 PRO d   1      32.968  37.379   3.227  0.00  0.00     0.064 H 
ATOM     14  H22 PRO d   1      34.457  36.411   3.496  0.00  0.00     0.064 H 
ENDROOT
BRANCH   1  15
ATOM     15  CA  ARG d   1      35.849  37.738   5.229  0.00  0.00     0.163 C 
ATOM     16  H4  ARG d   1      34.888  37.732   5.765  0.00  0.00     0.097 H 
BRANCH  15  17
ATOM     17  N   ARG d   1      36.117  36.364   4.803  0.00  0.00    -0.068 N 
ATOM     18  H1  ARG d   1      36.190  35.769   5.614  0.00  0.00     0.275 HD
ATOM     19  H2  ARG d   1      36.982  36.335   4.286  0.00  0.00     0.275 HD
ATOM     20  H3  ARG d   1      35.364  36.041   4.216  0.00  0.00     0.275 HD
ENDBRANCH  15  17
BRANCH  15  21
ATOM     21  CB  ARG d   1      36.940  38.247   6.207  0.00  0.00    -0.030 C 
ATOM     22  H5  ARG d   1      37.364  39.167   5.778  0.00  0.00     0.036 H 
ATOM     23  H6  ARG d   1      37.721  37.474   6.261  0.00  0.00     0.036 H 
BRANCH  21  24
ATOM     24  CG  ARG d   1      36.520  38.560   7.614  0.00  0.00    -0.048 C 
ATOM     25  H7  ARG d   1      37.349  39.106   8.088  0.00  0.00     0.035 H 
ATOM     26  H8  ARG d   1      36.370  37.600   8.130  0.00  0.00     0.035 H 
BRANCH  24  27
ATOM     27  CD  ARG d   1      35.307  39.354   7.815  0.00  0.00     0.009 C 
ATOM     28  H9  ARG d   1      34.784  38.898   8.668  0.00  0.00     0.064 H 
ATOM     29  H10 ARG d   1      34.705  39.224   6.904  0.00  0.00     0.064 H 
BRANCH  27  30
ATOM     30  NE  ARG d   1      35.331  40.758   8.073  0.00  0.00    -0.227 N 
ATOM     31  CZ  ARG d   1      35.336  41.633   9.063  0.00  0.00     0.665 C 
ATOM     32  NH1 ARG d   1      35.316  41.361  10.382  0.00  0.00    -0.235 N 
ATOM     33  NH2 ARG d   1      35.369  42.959   8.774  0.00  0.00    -0.235 N 
ATOM     34  H12 ARG d   1      35.322  42.130  11.067  0.00  0.00     0.174 HD
ATOM     35  H13 ARG d   1      35.294  40.383  10.706  0.00  0.00     0.174 HD
ATOM     36  H14 ARG d   1      35.386  43.272   7.793  0.00  0.00     0.174 HD
ATOM     37  H15 ARG d   1      35.377  43.652   9.536  0.00  0.00     0.174 HD
ATOM     38  H11 ARG d   1      35.352  41.264   7.176  0.00  0.00     0.177 HD
ENDBRANCH  27  30
ENDBRANCH  24  27
ENDBRANCH  21  24
ENDBRANCH  15  21
ENDBRANCH   1  15
BRANCH   4  39
ATOM     39  C   PRO d   1      33.903  40.624   2.156  0.00  0.00     0.243 C 
ATOM     40  O   PRO d   1      32.860  40.684   2.763  0.00  0.00    -0.271 OA
ATOM     41  N   PRO d   1      34.505  41.680   1.643  0.00  0.00    -0.337 N 
ATOM     42  CA  PRO d   1      33.904  43.022   1.598  0.00  0.00     0.091 C 
ATOM     43  CD  PRO d   1      35.808  41.679   0.897  0.00  0.00    -0.001 C 
ATOM     44  CB  PRO d   1      35.121  43.926   1.302  0.00  0.00    -0.036 C 
ATOM     45  H23 PRO d   1      33.424  43.293   2.550  0.00  0.00     0.087 H 
ATOM     46  CG  PRO d   1      35.803  43.082   0.218  0.00  0.00    -0.048 C 
ATOM     47  H24 PRO d   1      35.762  44.054   2.187  0.00  0.00     0.036 H 
ATOM     48  H25 PRO d   1      34.817  44.913   0.923  0.00  0.00     0.036 H 
ATOM     49  H26 PRO d   1      36.824  43.436   0.013  0.00  0.00     0.035 H 
ATOM     50  H27 PRO d   1      35.222  43.077  -0.716  0.00  0.00     0.035 H 
ATOM     51  H28 PRO d   1      35.838  40.874   0.148  0.00  0.00     0.064 H 
ATOM     52  H29 PRO d   1      36.660  41.572   1.584  0.00  0.00     0.064 H 
BRANCH  42  53
ATOM     53  C   PRO d   1      32.860  43.059   0.434  0.00  0.00     0.241 C 
ATOM     54  O   PRO d   1      32.968  42.412  -0.646  0.00  0.00    -0.271 OA
ATOM     55  N   GLY d   1      31.868  43.937   0.677  0.00  0.00    -0.349 N 
ATOM     56  H30 GLY d   1      31.891  44.434   1.545  0.00  0.00     0.163 HD
BRANCH  55  57
ATOM     57  CA  GLY d   1      30.758  44.218  -0.236  0.00  0.00     0.075 C 
ATOM     58  H31 GLY d   1      29.842  44.424   0.337  0.00  0.00     0.080 H 
ATOM     59  H32 GLY d   1      30.590  43.358  -0.901  0.00  0.00     0.080 H 
BRANCH  57  60
ATOM     60  C   GLY d   1      31.153  45.458  -1.065  0.00  0.00     0.191 C 
ATOM     61  O   GLY d   1      32.181  45.390  -1.835  0.00  0.00    -0.647 OA
ATOM     62  O1  GLY d   1      30.479  46.520  -0.989  0.00  0.00    -0.647 OA
ENDBRANCH  57  60
ENDBRANCH  55  57
ENDBRANCH  42  53
ENDBRANCH   4  39
TORSDOF 10
