REMARK  7 active torsions:
REMARK  status: ('A' for Active; 'I' for Inactive)
REMARK    1  A    between atoms: B_1  and  O1_2 
REMARK    2  A    between atoms: B_1  and  O2_3 
REMARK    3  A    between atoms: C3_4  and  B_1 
REMARK    4  A    between atoms: N4_5  and  C3_4 
REMARK       I    between atoms: C5_6  and  N4_5 
REMARK    5  A    between atoms: C7_8  and  C5_6 
REMARK    6  A    between atoms: C8_11  and  C9_13 
REMARK    7  A    between atoms: C12_12  and  C13_14 
ROOT
ATOM      1  C7  105 d   1      12.682  11.825  38.172  0.00  0.00     0.095 A 
ATOM      2  N11 105 d   1      12.658  14.036  37.664  0.00  0.00    -0.127 NA
ATOM      3  O10 105 d   1      13.837  13.746  38.558  0.00  0.00    -0.217 OA
ATOM      4  C8  105 d   1      13.704  12.408  38.757  0.00  0.00     0.093 A 
ATOM      5  C12 105 d   1      12.036  12.886  37.462  0.00  0.00     0.114 A 
ENDROOT
BRANCH   1   6
ATOM      6  C5  105 d   1      12.288  10.328  38.282  0.00  0.00     0.256 C 
ATOM      7  N4  105 d   1      11.509   9.720  37.381  0.00  0.00    -0.360 N 
ATOM      8  H5  105 d   1      11.156  10.224  36.593  0.00  0.00     0.161 HD
ATOM      9  O6  105 d   1      12.712   9.671  39.238  0.00  0.00    -0.268 OA
BRANCH   7  10
ATOM     10  C3  105 d   1      11.178   8.292  37.568  0.00  0.00     0.030 C 
ATOM     11  H3  105 d   1      12.114   7.715  37.603  0.00  0.00     0.057 H 
ATOM     12  H4  105 d   1      10.640   8.177  38.521  0.00  0.00     0.057 H 
BRANCH  10  13
ATOM     13  B   105 d   1      10.275   7.721  36.405  0.00  0.00     0.510 B 
BRANCH  13  14
ATOM     14  O1  105 d   1      11.129   7.294  35.283  0.00  0.00    -0.436 OA
ATOM     15  H1  105 d   1      11.620   8.040  34.959  0.00  0.00     0.184 HD
ENDBRANCH  13  14
BRANCH  13  16
ATOM     16  O2  105 d   1       9.331   8.772  35.942  0.00  0.00    -0.436 OA
ATOM     17  H2  105 d   1       8.782   9.045  36.668  0.00  0.00     0.184 HD
ENDBRANCH  13  16
ENDBRANCH  10  13
ENDBRANCH   7  10
ENDBRANCH   1   6
BRANCH   4  18
ATOM     18  C9  105 d   1      14.701  11.660  39.605  0.00  0.00    -0.028 C 
ATOM     19  H6  105 d   1      15.460  12.361  39.983  0.00  0.00     0.036 H 
ATOM     20  H7  105 d   1      15.189  10.883  38.998  0.00  0.00     0.036 H 
ATOM     21  H8  105 d   1      14.181  11.190  40.453  0.00  0.00     0.036 H 
ENDBRANCH   4  18
BRANCH   5  22
ATOM     22  C13 105 d   1      10.838  12.787  36.570  0.00  0.00     0.018 A 
ATOM     23  C14 105 d   1      10.976  13.031  35.162  0.00  0.00     0.046 A 
ATOM     24 CL1  105 d   1      12.531  13.358  34.489  0.00  0.00    -0.083 Cl
ATOM     25  C15 105 d   1       9.839  13.016  34.309  0.00  0.00    -0.061 A 
ATOM     26  C16 105 d   1       8.556  12.751  34.852  0.00  0.00    -0.081 A 
ATOM     27  H9  105 d   1       9.952  13.206  33.248  0.00  0.00     0.086 H 
ATOM     28  C17 105 d   1       8.409  12.498  36.247  0.00  0.00    -0.082 A 
ATOM     29  H10 105 d   1       7.686  12.741  34.205  0.00  0.00     0.083 H 
ATOM     30  C18 105 d   1       9.549  12.515  37.106  0.00  0.00    -0.069 A 
ATOM     31  H11 105 d   1       7.427  12.292  36.657  0.00  0.00     0.083 H 
ATOM     32  H12 105 d   1       9.432  12.321  38.166  0.00  0.00     0.085 H 
ENDBRANCH   5  22
TORSDOF 7
