REMARK WARNING: 32 MAX_TORS EXCEEDED!!!
REMARK  33 active torsions:
REMARK  status: ('A' for Active; 'I' for Inactive)
REMARK    1  A    between atoms: CA_2  and  C_3 
REMARK       I    between atoms: C_3  and  N_8 
REMARK    2  A    between atoms: N_8  and  CA_9 
REMARK    3  A    between atoms: CA_9  and  C_10 
REMARK    4  A    between atoms: CA_9  and  CB_12 
REMARK       I    between atoms: C_10  and  N_17 
REMARK    5  A    between atoms: CB_12  and  CG_13 
REMARK    6  A    between atoms: CG_13  and  CD_14 
REMARK       I    between atoms: CD_14  and  NE2_16 
REMARK    7  A    between atoms: N_17  and  CA_18 
REMARK    8  A    between atoms: CA_18  and  C_19 
REMARK    9  A    between atoms: CA_18  and  CB_21 
REMARK       I    between atoms: C_19  and  N_33 
REMARK   10  A    between atoms: CB_21  and  CG_22 
REMARK   11  A    between atoms: CZ_27  and  OH_28 
REMARK   12  A    between atoms: OH_28  and  P_29 
REMARK   13  A    between atoms: N_33  and  CA_34 
REMARK   14  A    between atoms: CA_34  and  C_35 
REMARK   15  A    between atoms: CA_34  and  CB_37 
REMARK       I    between atoms: C_35  and  N_42 
REMARK   16  A    between atoms: CB_37  and  CG_38 
REMARK   17  A    between atoms: CG_38  and  CD_39 
REMARK   18  A    between atoms: N_42  and  CA_43 
REMARK   19  A    between atoms: CA_43  and  C_44 
REMARK   20  A    between atoms: CA_43  and  CB_46 
REMARK       I    between atoms: C_44  and  N_58 
REMARK   21  A    between atoms: CB_46  and  CG_47 
REMARK   22  A    between atoms: CZ_52  and  OH_53 
REMARK   23  A    between atoms: OH_53  and  P_54 
REMARK   24  A    between atoms: N_58  and  CA_59 
REMARK   25  A    between atoms: CA_59  and  C_60 
REMARK   26  A    between atoms: CA_59  and  CB_62 
REMARK       I    between atoms: C_60  and  N_66 
REMARK   27  A    between atoms: CB_62  and  CG1_63 
REMARK   28  A    between atoms: CB_62  and  CG2_64 
REMARK   29  A    between atoms: CG1_63  and  CD1_65 
REMARK   30  A    between atoms: CA_67  and  C_68 
REMARK       I    between atoms: C_68  and  N_73 
REMARK   31  A    between atoms: N_73  and  CA_74 
REMARK   32  A    between atoms: CA_74  and  C_75 
REMARK   33  A    between atoms: CA_74  and  CB_77 
ROOT
ATOM      1  CA  GLU d   1      16.542  35.305  12.096  0.00  0.00     0.090 C 
ATOM      2  H27 GLU d   1      15.830  35.513  11.284  0.00  0.00     0.087 H 
ENDROOT
BRANCH   1   3
ATOM      3  N   GLU d   1      17.620  34.476  11.582  0.00  0.00    -0.346 N 
ATOM      4  C   PTR d   1      18.116  34.647  10.361  0.00  0.00     0.241 C 
ATOM      5  O   PTR d   1      17.709  35.515   9.588  0.00  0.00    -0.271 OA
ATOM      6  H26 GLU d   1      17.999  33.757  12.164  0.00  0.00     0.163 HD
BRANCH   4   7
ATOM      7  CA  PTR d   1      19.231  33.695   9.944  0.00  0.00     0.093 C 
ATOM      8  H19 PTR d   1      19.139  32.751  10.501  0.00  0.00     0.088 H 
BRANCH   7   9
ATOM      9  N   PTR d   1      19.091  33.432   8.515  0.00  0.00    -0.346 N 
ATOM     10  C   GLN d   1      18.676  32.264   8.031  0.00  0.00     0.241 C 
ATOM     11  O   GLN d   1      18.391  31.290   8.736  0.00  0.00    -0.271 OA
ATOM     12  H18 PTR d   1      19.317  34.163   7.871  0.00  0.00     0.163 HD
BRANCH  10  13
ATOM     13  CA  GLN d   1      18.575  32.216   6.513  0.00  0.00     0.090 C 
ATOM     14  H11 GLN d   1      19.459  32.738   6.118  0.00  0.00     0.087 H 
BRANCH  13  15
ATOM     15  N   GLN d   1      18.564  30.888   5.885  0.00  0.00    -0.346 N 
ATOM     16  C   PRO d   1      19.588  30.466   5.137  0.00  0.00     0.249 C 
ATOM     17  O   PRO d   1      20.579  31.161   4.889  0.00  0.00    -0.271 OA
ATOM     18  H10 GLN d   1      17.775  30.288   6.020  0.00  0.00     0.163 HD
BRANCH  16  19
ATOM     19  CA  PRO d   1      19.450  29.067   4.546  0.00  0.00     0.178 C 
ATOM     20  N   PRO d   1      18.016  28.824   4.476  0.00  0.00    -0.062 N 
ATOM     21  CD  PRO d   1      17.538  29.068   3.102  0.00  0.00     0.083 C 
ATOM     22  H1  PRO d   1      17.539  29.444   5.112  0.00  0.00     0.278 HD
ATOM     23  H2  PRO d   1      17.825  27.868   4.733  0.00  0.00     0.278 HD
ATOM     24  CG  PRO d   1      18.764  29.739   2.431  0.00  0.00    -0.040 C 
ATOM     25  H8  PRO d   1      16.667  29.739   3.098  0.00  0.00     0.075 H 
ATOM     26  H9  PRO d   1      17.277  28.125   2.599  0.00  0.00     0.075 H 
ATOM     27  CB  PRO d   1      19.923  29.022   3.120  0.00  0.00    -0.028 C 
ATOM     28  H6  PRO d   1      18.773  29.564   1.345  0.00  0.00     0.035 H 
ATOM     29  H7  PRO d   1      18.787  30.821   2.628  0.00  0.00     0.035 H 
ATOM     30  H4  PRO d   1      20.035  27.989   2.760  0.00  0.00     0.036 H 
ATOM     31  H5  PRO d   1      20.872  29.561   2.988  0.00  0.00     0.036 H 
ATOM     32  H3  PRO d   1      19.974  28.322   5.162  0.00  0.00     0.099 H 
ENDBRANCH  16  19
ENDBRANCH  13  15
BRANCH  13  33
ATOM     33  CB  GLN d   1      17.340  33.003   6.111  0.00  0.00    -0.030 C 
ATOM     34  H12 GLN d   1      17.451  34.038   6.467  0.00  0.00     0.037 H 
ATOM     35  H13 GLN d   1      16.461  32.544   6.587  0.00  0.00     0.037 H 
BRANCH  33  36
ATOM     36  CG  GLN d   1      17.130  33.026   4.665  0.00  0.00     0.011 C 
ATOM     37  H14 GLN d   1      17.187  31.996   4.283  0.00  0.00     0.047 H 
ATOM     38  H15 GLN d   1      17.922  33.633   4.202  0.00  0.00     0.047 H 
BRANCH  36  39
ATOM     39  CD  GLN d   1      15.808  33.602   4.293  0.00  0.00     0.215 C 
ATOM     40  OE1 GLN d   1      15.040  34.033   5.143  0.00  0.00    -0.274 OA
ATOM     41  NE2 GLN d   1      15.519  33.614   3.010  0.00  0.00    -0.370 N 
ATOM     42  H16 GLN d   1      14.646  33.988   2.698  0.00  0.00     0.159 HD
ATOM     43  H17 GLN d   1      16.172  33.249   2.347  0.00  0.00     0.159 HD
ENDBRANCH  36  39
ENDBRANCH  33  36
ENDBRANCH  13  33
ENDBRANCH  10  13
ENDBRANCH   7   9
BRANCH   7  44
ATOM     44  CB  PTR d   1      20.594  34.325  10.248  0.00  0.00    -0.014 C 
ATOM     45  H20 PTR d   1      20.533  34.835  11.221  0.00  0.00     0.043 H 
ATOM     46  H21 PTR d   1      20.822  35.060   9.462  0.00  0.00     0.043 H 
BRANCH  44  47
ATOM     47  CG  PTR d   1      21.718  33.322  10.304  0.00  0.00    -0.056 A 
ATOM     48  CD1 PTR d   1      21.986  32.614  11.471  0.00  0.00    -0.074 A 
ATOM     49  CE1 PTR d   1      22.991  31.667  11.516  0.00  0.00    -0.050 A 
ATOM     50  H22 PTR d   1      21.397  32.809  12.360  0.00  0.00     0.084 H 
ATOM     51  CZ  PTR d   1      23.742  31.418  10.383  0.00  0.00     0.082 A 
ATOM     52  H24 PTR d   1      23.189  31.124  12.433  0.00  0.00     0.087 H 
ATOM     53  CE2 PTR d   1      23.494  32.107   9.215  0.00  0.00    -0.050 A 
ATOM     54  CD2 PTR d   1      22.488  33.054   9.182  0.00  0.00    -0.074 A 
ATOM     55  H25 PTR d   1      24.084  31.907   8.328  0.00  0.00     0.087 H 
ATOM     56  H23 PTR d   1      22.297  33.597   8.263  0.00  0.00     0.084 H 
BRANCH  51  57
ATOM     57  OH  PTR d   1      24.750  30.485  10.413  0.00  0.00    -0.240 OA
BRANCH  57  58
ATOM     58  P   PTR d   1      24.551  28.948  10.081  0.00  0.00     0.427 P 
ATOM     59  O1P PTR d   1      24.733  28.700   8.630  0.00  0.00    -0.617 OA
ATOM     60  O2P PTR d   1      23.192  28.502  10.448  0.00  0.00    -0.617 OA
ATOM     61  O3P PTR d   1      25.583  28.226  10.857  0.00  0.00    -0.617 OA
ENDBRANCH  57  58
ENDBRANCH  51  57
ENDBRANCH  44  47
ENDBRANCH   7  44
ENDBRANCH   4   7
ENDBRANCH   1   3
BRANCH   1  62
ATOM     62  C   GLU d   1      17.103  36.621  12.611  0.00  0.00     0.241 C 
ATOM     63  O   GLU d   1      18.150  36.650  13.258  0.00  0.00    -0.271 OA
ATOM     64  N   PTR d   1      16.409  37.709  12.305  0.00  0.00    -0.346 N 
ATOM     65  H32 PTR d   1      15.578  37.622  11.755  0.00  0.00     0.163 HD
BRANCH  64  66
ATOM     66  CA  PTR d   1      16.833  39.024  12.753  0.00  0.00     0.093 C 
ATOM     67  H33 PTR d   1      17.862  38.963  13.136  0.00  0.00     0.088 H 
BRANCH  66  68
ATOM     68  C   PTR d   1      15.903  39.502  13.848  0.00  0.00     0.241 C 
ATOM     69  O   PTR d   1      14.701  39.232  13.815  0.00  0.00    -0.271 OA
ATOM     70  N   ILE d   1      16.459  40.207  14.828  0.00  0.00    -0.346 N 
ATOM     71  H40 ILE d   1      17.449  40.350  14.835  0.00  0.00     0.163 HD
BRANCH  70  72
ATOM     72  CA  ILE d   1      15.642  40.772  15.889  0.00  0.00     0.092 C 
ATOM     73  H41 ILE d   1      14.830  40.085  16.169  0.00  0.00     0.088 H 
BRANCH  72  74
ATOM     74  C   ILE d   1      15.090  42.048  15.252  0.00  0.00     0.243 C 
ATOM     75  O   ILE d   1      15.842  42.842  14.685  0.00  0.00    -0.271 OA
ATOM     76  N   PRO d   1      13.763  42.236  15.298  0.00  0.00    -0.337 N 
ATOM     77  CA  PRO d   1      13.121  43.420  14.716  0.00  0.00     0.091 C 
ATOM     78  CD  PRO d   1      12.766  41.346  15.920  0.00  0.00    -0.001 C 
ATOM     79  CB  PRO d   1      11.632  43.129  14.902  0.00  0.00    -0.036 C 
ATOM     80  H51 PRO d   1      13.357  43.474  13.643  0.00  0.00     0.087 H 
ATOM     81  CG  PRO d   1      11.605  42.285  16.152  0.00  0.00    -0.048 C 
ATOM     82  H52 PRO d   1      11.227  42.575  14.042  0.00  0.00     0.036 H 
ATOM     83  H53 PRO d   1      11.062  44.059  15.041  0.00  0.00     0.036 H 
ATOM     84  H54 PRO d   1      10.657  41.734  16.242  0.00  0.00     0.035 H 
ATOM     85  H55 PRO d   1      11.760  42.898  17.052  0.00  0.00     0.035 H 
ATOM     86  H56 PRO d   1      13.138  40.930  16.868  0.00  0.00     0.064 H 
ATOM     87  H57 PRO d   1      12.486  40.525  15.243  0.00  0.00     0.064 H 
BRANCH  77  88
ATOM     88  C   PRO d   1      13.553  44.743  15.349  0.00  0.00     0.241 C 
ATOM     89  O   PRO d   1      13.791  44.816  16.554  0.00  0.00    -0.271 OA
ATOM     90  N   ALA d   1      13.659  45.772  14.508  0.00  0.00    -0.345 N 
ATOM     91  H58 ALA d   1      13.442  45.607  13.546  0.00  0.00     0.163 HD
BRANCH  90  92
ATOM     92  CA  ALA d   1      14.070  47.126  14.887  0.00  0.00     0.093 C 
ATOM     93  H59 ALA d   1      13.578  47.830  14.200  0.00  0.00     0.089 H 
BRANCH  92  94
ATOM     94  C   ALA d   1      15.580  47.309  14.748  0.00  0.00     0.196 C 
ATOM     95  O   ALA d   1      15.975  48.190  13.958  0.00  0.00    -0.646 OA
ATOM     96  OXT ALA d   1      16.355  46.576  15.411  0.00  0.00    -0.646 OA
ENDBRANCH  92  94
BRANCH  92  97
ATOM     97  CB  ALA d   1      13.621  47.468  16.319  0.00  0.00    -0.048 C 
ATOM     98  H60 ALA d   1      13.945  48.489  16.571  0.00  0.00     0.030 H 
ATOM     99  H61 ALA d   1      14.072  46.755  17.025  0.00  0.00     0.030 H 
ATOM    100  H62 ALA d   1      12.525  47.404  16.385  0.00  0.00     0.030 H 
ENDBRANCH  92  97
ENDBRANCH  90  92
ENDBRANCH  77  88
ENDBRANCH  72  74
BRANCH  72 101
ATOM    101  CB  ILE d   1      16.489  41.109  17.142  0.00  0.00    -0.030 C 
ATOM    102  H42 ILE d   1      17.356  41.711  16.832  0.00  0.00     0.043 H 
BRANCH 101 103
ATOM    103  CG1 ILE d   1      16.991  39.812  17.785  0.00  0.00    -0.063 C 
ATOM    104  H43 ILE d   1      17.632  39.292  17.058  0.00  0.00     0.033 H 
ATOM    105  H44 ILE d   1      16.120  39.184  18.021  0.00  0.00     0.033 H 
BRANCH 103 106
ATOM    106  CD1 ILE d   1      17.791  40.022  19.066  0.00  0.00    -0.076 C 
ATOM    107  H48 ILE d   1      18.112  39.047  19.462  0.00  0.00     0.027 H 
ATOM    108  H49 ILE d   1      17.163  40.531  19.812  0.00  0.00     0.027 H 
ATOM    109  H50 ILE d   1      18.675  40.639  18.849  0.00  0.00     0.027 H 
ENDBRANCH 103 106
ENDBRANCH 101 103
BRANCH 101 110
ATOM    110  CG2 ILE d   1      15.668  41.916  18.150  0.00  0.00    -0.071 C 
ATOM    111  H45 ILE d   1      15.314  42.843  17.676  0.00  0.00     0.028 H 
ATOM    112  H46 ILE d   1      16.295  42.164  19.019  0.00  0.00     0.028 H 
ATOM    113  H47 ILE d   1      14.804  41.320  18.480  0.00  0.00     0.028 H 
ENDBRANCH 101 110
ENDBRANCH  72 101
ENDBRANCH  70  72
ENDBRANCH  66  68
BRANCH  66 114
ATOM    114  CB  PTR d   1      16.773  40.035  11.610  0.00  0.00    -0.014 C 
ATOM    115  H34 PTR d   1      16.841  41.044  12.042  0.00  0.00     0.043 H 
ATOM    116  H35 PTR d   1      15.805  39.919  11.101  0.00  0.00     0.043 H 
BRANCH 114 117
ATOM    117  CG  PTR d   1      17.863  39.890  10.583  0.00  0.00    -0.056 A 
ATOM    118  CD1 PTR d   1      19.080  40.539  10.739  0.00  0.00    -0.074 A 
ATOM    119  CE1 PTR d   1      20.079  40.409   9.800  0.00  0.00    -0.050 A 
ATOM    120  H36 PTR d   1      19.247  41.158  11.613  0.00  0.00     0.084 H 
ATOM    121  CZ  PTR d   1      19.869  39.620   8.688  0.00  0.00     0.082 A 
ATOM    122  H38 PTR d   1      21.024  40.923   9.934  0.00  0.00     0.087 H 
ATOM    123  CE2 PTR d   1      18.670  38.968   8.514  0.00  0.00    -0.050 A 
ATOM    124  CD2 PTR d   1      17.677  39.105   9.458  0.00  0.00    -0.074 A 
ATOM    125  H39 PTR d   1      18.508  38.350   7.638  0.00  0.00     0.087 H 
ATOM    126  H37 PTR d   1      16.734  38.590   9.318  0.00  0.00     0.084 H 
BRANCH 121 127
ATOM    127  OH  PTR d   1      20.853  39.463   7.740  0.00  0.00    -0.240 OA
BRANCH 127 128
ATOM    128  P   PTR d   1      22.356  40.031   7.742  0.00  0.00     0.427 P 
ATOM    129  O1P PTR d   1      22.997  39.610   6.485  0.00  0.00    -0.617 OA
ATOM    130  O2P PTR d   1      23.103  39.517   8.908  0.00  0.00    -0.617 OA
ATOM    131  O3P PTR d   1      22.335  41.514   7.813  0.00  0.00    -0.617 OA
ENDBRANCH 127 128
ENDBRANCH 121 127
ENDBRANCH 114 117
ENDBRANCH  66 114
ENDBRANCH  64  66
ENDBRANCH   1  62
BRANCH   1 132
ATOM    132  CB  GLU d   1      15.812  34.565  13.224  0.00  0.00    -0.029 C 
ATOM    133  H28 GLU d   1      16.500  34.491  14.079  0.00  0.00     0.037 H 
ATOM    134  H29 GLU d   1      15.567  33.556  12.861  0.00  0.00     0.037 H 
BRANCH 132 135
ATOM    135  CG  GLU d   1      14.517  35.212  13.720  0.00  0.00     0.018 C 
ATOM    136  H30 GLU d   1      14.704  36.283  13.889  0.00  0.00     0.049 H 
ATOM    137  H31 GLU d   1      14.230  34.736  14.669  0.00  0.00     0.049 H 
BRANCH 135 138
ATOM    138  CD  GLU d   1      13.360  35.073  12.741  0.00  0.00     0.172 C 
ATOM    139  OE1 GLU d   1      13.426  34.197  11.853  0.00  0.00    -0.648 OA
ATOM    140  OE2 GLU d   1      12.376  35.832  12.875  0.00  0.00    -0.648 OA
ENDBRANCH 135 138
ENDBRANCH 132 135
ENDBRANCH   1 132
TORSDOF 33
