REMARK  12 active torsions:
REMARK  status: ('A' for Active; 'I' for Inactive)
REMARK    1  A    between atoms: N_1  and  C_2 
REMARK    2  A    between atoms: C_2  and  C1_4 
REMARK    3  A    between atoms: N2_5  and  C2_6 
REMARK    4  A    between atoms: C5_9  and  C6_10 
REMARK    5  A    between atoms: C6_10  and  N3_11 
REMARK       I    between atoms: N3_11  and  C7_12 
REMARK    6  A    between atoms: C7_12  and  C8_14 
REMARK       I    between atoms: N4_18  and  C12_19 
REMARK    7  A    between atoms: C12_19  and  C13_21 
REMARK    8  A    between atoms: C13_21  and  C14_22 
REMARK    9  A    between atoms: C13_21  and  N5_29 
REMARK   10  A    between atoms: C14_22  and  C15_23 
REMARK   11  A    between atoms: N5_29  and  C21_30 
REMARK   12  A    between atoms: C21_30  and  C22_31 
ROOT
ATOM      1  C8  162 d   1      18.107  21.490  21.088  0.00  0.00     0.108 A 
ATOM      2  C9  162 d   1      19.089  21.531  19.941  0.00  0.00    -0.075 A 
ATOM      3  C10 162 d   1      19.760  20.408  19.876  0.00  0.00    -0.087 A 
ATOM      4  C11 162 d   1      19.313  19.472  20.970  0.00  0.00     0.014 A 
ATOM      5  N4  162 d   1      18.197  20.137  21.697  0.00  0.00    -0.330 N 
ATOM      6  C12 162 d   1      17.413  19.627  22.703  0.00  0.00     0.252 C 
ATOM      7  O1  162 d   1      16.532  20.312  23.187  0.00  0.00    -0.271 OA
ATOM      8  H13 162 d   1      18.363  22.262  21.829  0.00  0.00     0.094 H 
ATOM      9  H14 162 d   1      19.220  22.374  19.264  0.00  0.00     0.080 H 
ATOM     10  H15 162 d   1      20.529  20.183  19.139  0.00  0.00     0.079 H 
ATOM     11  H16 162 d   1      20.147  19.275  21.660  0.00  0.00     0.070 H 
ATOM     12  H17 162 d   1      18.965  18.523  20.535  0.00  0.00     0.070 H 
ENDROOT
BRANCH   1  13
ATOM     13  C7  162 d   1      16.694  21.707  20.595  0.00  0.00     0.244 C 
ATOM     14  N3  162 d   1      16.009  22.831  20.963  0.00  0.00    -0.355 N 
ATOM     15  H12 162 d   1      16.462  23.508  21.543  0.00  0.00     0.162 HD
ATOM     16  O   162 d   1      16.171  20.850  19.890  0.00  0.00    -0.271 OA
BRANCH  14  17
ATOM     17  C6  162 d   1      14.604  23.075  20.523  0.00  0.00     0.020 C 
ATOM     18  H10 162 d   1      14.398  24.155  20.544  0.00  0.00     0.071 H 
ATOM     19  H11 162 d   1      14.472  22.696  19.499  0.00  0.00     0.071 H 
BRANCH  17  20
ATOM     20  C5  162 d   1      13.641  22.361  21.452  0.00  0.00    -0.023 A 
ATOM     21  C3  162 d   1      13.467  21.024  21.543  0.00  0.00    -0.013 A 
ATOM     22  N2  162 d   1      12.535  20.759  22.482  0.00  0.00    -0.358 N 
ATOM     23  H8  162 d   1      13.996  20.278  20.952  0.00  0.00     0.112 H 
ATOM     24  C1  162 d   1      12.094  21.970  23.009  0.00  0.00     0.078 A 
ATOM     25  C4  162 d   1      12.782  22.966  22.370  0.00  0.00    -0.044 A 
ATOM     26  H9  162 d   1      12.678  24.036  22.546  0.00  0.00     0.088 H 
BRANCH  22  27
ATOM     27  C2  162 d   1      12.089  19.401  22.855  0.00  0.00    -0.014 C 
ATOM     28  H5  162 d   1      12.632  18.658  22.252  0.00  0.00     0.057 H 
ATOM     29  H6  162 d   1      11.009  19.306  22.669  0.00  0.00     0.057 H 
ATOM     30  H7  162 d   1      12.294  19.228  23.922  0.00  0.00     0.057 H 
ENDBRANCH  22  27
BRANCH  24  31
ATOM     31  C   162 d   1      11.081  22.181  24.060  0.00  0.00     0.119 C 
ATOM     32  N1  162 d   1      11.032  23.355  24.701  0.00  0.00    -0.384 N 
ATOM     33  H3  162 d   1      11.707  24.097  24.469  0.00  0.00     0.157 HD
ATOM     34  H4  162 d   1      10.319  23.516  25.427  0.00  0.00     0.157 HD
BRANCH  31  35
ATOM     35  N   162 d   1      10.196  21.216  24.368  0.00  0.00    -0.384 N 
ATOM     36  H1  162 d   1      10.230  20.311  23.878  0.00  0.00     0.157 HD
ATOM     37  H2  162 d   1       9.485  21.382  25.094  0.00  0.00     0.157 HD
ENDBRANCH  31  35
ENDBRANCH  24  31
ENDBRANCH  17  20
ENDBRANCH  14  17
ENDBRANCH   1  13
BRANCH   6  38
ATOM     38  C13 162 d   1      17.608  18.219  23.229  0.00  0.00     0.179 C 
ATOM     39  H18 162 d   1      18.277  17.660  22.559  0.00  0.00     0.099 H 
BRANCH  38  40
ATOM     40  C14 162 d   1      18.222  18.251  24.653  0.00  0.00    -0.026 C 
ATOM     41  H19 162 d   1      18.312  17.220  25.027  0.00  0.00     0.037 H 
ATOM     42  H20 162 d   1      17.558  18.825  25.316  0.00  0.00     0.037 H 
BRANCH  40  43
ATOM     43  C15 162 d   1      19.610  18.904  24.651  0.00  0.00    -0.052 C 
ATOM     44  C16 162 d   1      19.892  19.532  26.030  0.00  0.00    -0.062 C 
ATOM     45  C17 162 d   1      21.273  20.240  26.015  0.00  0.00    -0.065 C 
ATOM     46  H22 162 d   1      19.895  18.743  26.797  0.00  0.00     0.033 H 
ATOM     47  H23 162 d   1      19.108  20.267  26.263  0.00  0.00     0.033 H 
ATOM     48  C18 162 d   1      22.394  19.237  25.642  0.00  0.00    -0.065 C 
ATOM     49  H24 162 d   1      21.477  20.656  27.012  0.00  0.00     0.033 H 
ATOM     50  H25 162 d   1      21.255  21.054  25.275  0.00  0.00     0.033 H 
ATOM     51  C19 162 d   1      22.083  18.547  24.287  0.00  0.00    -0.065 C 
ATOM     52  H26 162 d   1      22.470  18.471  26.428  0.00  0.00     0.033 H 
ATOM     53  H27 162 d   1      23.349  19.776  25.562  0.00  0.00     0.033 H 
ATOM     54  C20 162 d   1      20.697  17.853  24.333  0.00  0.00    -0.062 C 
ATOM     55  H28 162 d   1      22.857  17.794  24.079  0.00  0.00     0.033 H 
ATOM     56  H29 162 d   1      22.082  19.303  23.488  0.00  0.00     0.033 H 
ATOM     57  H30 162 d   1      20.486  17.389  23.358  0.00  0.00     0.033 H 
ATOM     58  H31 162 d   1      20.700  17.079  25.114  0.00  0.00     0.033 H 
ATOM     59  H21 162 d   1      19.635  19.691  23.883  0.00  0.00     0.040 H 
ENDBRANCH  40  43
ENDBRANCH  38  40
BRANCH  38  60
ATOM     60  N5  162 d   1      16.278  17.578  23.261  0.00  0.00    -0.053 N 
ATOM     61  H32 162 d   1      15.802  17.771  22.394  0.00  0.00     0.278 HD
ATOM     62  H33 162 d   1      15.749  17.963  24.028  0.00  0.00     0.278 HD
BRANCH  60  63
ATOM     63  C21 162 d   1      16.376  16.125  23.435  0.00  0.00     0.161 C 
ATOM     64  H34 162 d   1      16.920  15.896  24.364  0.00  0.00     0.092 H 
ATOM     65  H35 162 d   1      16.908  15.682  22.580  0.00  0.00     0.092 H 
BRANCH  63  66
ATOM     66  C22 162 d   1      14.979  15.568  23.511  0.00  0.00     0.199 C 
ATOM     67  O2  162 d   1      14.807  14.390  23.785  0.00  0.00    -0.647 OA
ATOM     68  O3  162 d   1      14.016  16.295  23.297  0.00  0.00    -0.647 OA
ENDBRANCH  63  66
ENDBRANCH  60  63
ENDBRANCH  38  60
ENDBRANCH   6  38
TORSDOF 12
