REMARK WARNING: 32 MAX_TORS EXCEEDED!!!
REMARK  33 active torsions:
REMARK  status: ('A' for Active; 'I' for Inactive)
REMARK    1  A    between atoms: CA_2  and  C_3 
REMARK       I    between atoms: C_3  and  N_8 
REMARK    2  A    between atoms: N_8  and  CA_9 
REMARK    3  A    between atoms: CA_9  and  C_10 
REMARK    4  A    between atoms: CA_9  and  CB_12 
REMARK       I    between atoms: C_10  and  N_17 
REMARK    5  A    between atoms: CB_12  and  CG_13 
REMARK    6  A    between atoms: CG_13  and  CD_14 
REMARK       I    between atoms: CD_14  and  NE2_16 
REMARK    7  A    between atoms: N_17  and  CA_18 
REMARK    8  A    between atoms: CA_18  and  C_19 
REMARK    9  A    between atoms: CA_18  and  CB_21 
REMARK       I    between atoms: C_19  and  N_33 
REMARK   10  A    between atoms: CB_21  and  CG_22 
REMARK   11  A    between atoms: CZ_27  and  OH_28 
REMARK   12  A    between atoms: OH_28  and  P_29 
REMARK   13  A    between atoms: N_33  and  CA_34 
REMARK   14  A    between atoms: CA_34  and  C_35 
REMARK   15  A    between atoms: CA_34  and  CB_37 
REMARK       I    between atoms: C_35  and  N_41 
REMARK   16  A    between atoms: CB_37  and  CG1_38 
REMARK   17  A    between atoms: CB_37  and  CG2_39 
REMARK   18  A    between atoms: CG1_38  and  CD1_40 
REMARK   19  A    between atoms: N_41  and  CA_42 
REMARK   20  A    between atoms: CA_42  and  C_43 
REMARK   21  A    between atoms: CA_42  and  CB_45 
REMARK       I    between atoms: C_43  and  N_57 
REMARK   22  A    between atoms: CB_45  and  CG_46 
REMARK   23  A    between atoms: CZ_51  and  OH_52 
REMARK   24  A    between atoms: OH_52  and  P_53 
REMARK   25  A    between atoms: N_57  and  CA_58 
REMARK   26  A    between atoms: CA_58  and  C_59 
REMARK   27  A    between atoms: CA_58  and  CB_61 
REMARK       I    between atoms: C_59  and  N_64 
REMARK   28  A    between atoms: CB_61  and  CG1_62 
REMARK   29  A    between atoms: CB_61  and  CG2_63 
REMARK   30  A    between atoms: CA_65  and  C_66 
REMARK       I    between atoms: C_66  and  N_71 
REMARK   31  A    between atoms: N_71  and  CA_72 
REMARK   32  A    between atoms: CA_72  and  C_73 
REMARK   33  A    between atoms: CA_72  and  CB_75 
ROOT
ATOM      1  CA  ILE d   1      16.817  35.399  12.018  0.00  0.00     0.092 C 
ATOM      2  H27 ILE d   1      16.272  35.682  11.105  0.00  0.00     0.088 H 
ENDROOT
BRANCH   1   3
ATOM      3  N   ILE d   1      17.873  34.488  11.629  0.00  0.00    -0.346 N 
ATOM      4  C   PTR d   1      18.123  34.292  10.343  0.00  0.00     0.241 C 
ATOM      5  O   PTR d   1      17.487  34.867   9.455  0.00  0.00    -0.271 OA
ATOM      6  H26 ILE d   1      18.409  34.011  12.325  0.00  0.00     0.163 HD
BRANCH   4   7
ATOM      7  CA  PTR d   1      19.227  33.302   9.987  0.00  0.00     0.093 C 
ATOM      8  H19 PTR d   1      19.064  32.350  10.514  0.00  0.00     0.088 H 
BRANCH   7   9
ATOM      9  N   PTR d   1      19.124  33.114   8.564  0.00  0.00    -0.346 N 
ATOM     10  C   GLN d   1      18.704  31.963   8.065  0.00  0.00     0.241 C 
ATOM     11  O   GLN d   1      18.377  31.006   8.764  0.00  0.00    -0.271 OA
ATOM     12  H18 PTR d   1      19.372  33.860   7.947  0.00  0.00     0.163 HD
BRANCH  10  13
ATOM     13  CA  GLN d   1      18.605  31.922   6.557  0.00  0.00     0.090 C 
ATOM     14  H11 GLN d   1      19.473  32.447   6.131  0.00  0.00     0.087 H 
BRANCH  13  15
ATOM     15  N   GLN d   1      18.583  30.575   6.012  0.00  0.00    -0.346 N 
ATOM     16  C   PRO d   1      19.484  30.155   5.133  0.00  0.00     0.249 C 
ATOM     17  O   PRO d   1      20.399  30.866   4.736  0.00  0.00    -0.271 OA
ATOM     18  H10 GLN d   1      17.866  29.944   6.309  0.00  0.00     0.163 HD
BRANCH  16  19
ATOM     19  CA  PRO d   1      19.318  28.709   4.636  0.00  0.00     0.178 C 
ATOM     20  N   PRO d   1      17.871  28.387   4.566  0.00  0.00    -0.062 N 
ATOM     21  CD  PRO d   1      17.421  28.379   3.159  0.00  0.00     0.083 C 
ATOM     22  H1  PRO d   1      17.350  29.081   5.079  0.00  0.00     0.278 HD
ATOM     23  H2  PRO d   1      17.711  27.478   4.972  0.00  0.00     0.278 HD
ATOM     24  CG  PRO d   1      18.632  28.944   2.403  0.00  0.00    -0.040 C 
ATOM     25  H8  PRO d   1      16.537  29.019   3.023  0.00  0.00     0.075 H 
ATOM     26  H9  PRO d   1      17.188  27.357   2.825  0.00  0.00     0.075 H 
ATOM     27  CB  PRO d   1      19.853  28.546   3.227  0.00  0.00    -0.028 C 
ATOM     28  H6  PRO d   1      18.692  28.510   1.394  0.00  0.00     0.035 H 
ATOM     29  H7  PRO d   1      18.560  30.039   2.327  0.00  0.00     0.035 H 
ATOM     30  H4  PRO d   1      20.154  27.507   3.027  0.00  0.00     0.036 H 
ATOM     31  H5  PRO d   1      20.704  29.217   3.038  0.00  0.00     0.036 H 
ATOM     32  H3  PRO d   1      19.836  28.021   5.321  0.00  0.00     0.099 H 
ENDBRANCH  16  19
ENDBRANCH  13  15
BRANCH  13  33
ATOM     33  CB  GLN d   1      17.334  32.666   6.187  0.00  0.00    -0.030 C 
ATOM     34  H12 GLN d   1      17.295  33.585   6.790  0.00  0.00     0.037 H 
ATOM     35  H13 GLN d   1      16.480  32.022   6.445  0.00  0.00     0.037 H 
BRANCH  33  36
ATOM     36  CG  GLN d   1      17.194  33.055   4.753  0.00  0.00     0.011 C 
ATOM     37  H14 GLN d   1      17.425  32.190   4.114  0.00  0.00     0.047 H 
ATOM     38  H15 GLN d   1      17.891  33.875   4.526  0.00  0.00     0.047 H 
BRANCH  36  39
ATOM     39  CD  GLN d   1      15.791  33.506   4.495  0.00  0.00     0.215 C 
ATOM     40  OE1 GLN d   1      15.210  34.230   5.307  0.00  0.00    -0.274 OA
ATOM     41  NE2 GLN d   1      15.227  33.084   3.377  0.00  0.00    -0.370 N 
ATOM     42  H16 GLN d   1      14.290  33.356   3.156  0.00  0.00     0.159 HD
ATOM     43  H17 GLN d   1      15.737  32.493   2.752  0.00  0.00     0.159 HD
ENDBRANCH  36  39
ENDBRANCH  33  36
ENDBRANCH  13  33
ENDBRANCH  10  13
ENDBRANCH   7   9
BRANCH   7  44
ATOM     44  CB  PTR d   1      20.611  33.838  10.338  0.00  0.00    -0.014 C 
ATOM     45  H20 PTR d   1      20.567  34.278  11.345  0.00  0.00     0.043 H 
ATOM     46  H21 PTR d   1      20.876  34.618   9.609  0.00  0.00     0.043 H 
BRANCH  44  47
ATOM     47  CG  PTR d   1      21.700  32.779  10.324  0.00  0.00    -0.056 A 
ATOM     48  CD1 PTR d   1      21.946  31.998  11.446  0.00  0.00    -0.074 A 
ATOM     49  CE1 PTR d   1      22.970  31.084  11.465  0.00  0.00    -0.050 A 
ATOM     50  H22 PTR d   1      21.318  32.112  12.322  0.00  0.00     0.084 H 
ATOM     51  CZ  PTR d   1      23.777  30.931  10.351  0.00  0.00     0.082 A 
ATOM     52  H24 PTR d   1      23.146  30.484  12.350  0.00  0.00     0.087 H 
ATOM     53  CE2 PTR d   1      23.556  31.674   9.215  0.00  0.00    -0.050 A 
ATOM     54  CD2 PTR d   1      22.516  32.598   9.205  0.00  0.00    -0.074 A 
ATOM     55  H25 PTR d   1      24.183  31.542   8.341  0.00  0.00     0.087 H 
ATOM     56  H23 PTR d   1      22.336  33.188   8.313  0.00  0.00     0.084 H 
BRANCH  51  57
ATOM     57  OH  PTR d   1      24.840  30.075  10.410  0.00  0.00    -0.240 OA
BRANCH  57  58
ATOM     58  P   PTR d   1      24.631  28.561  10.071  0.00  0.00     0.427 P 
ATOM     59  O1P PTR d   1      24.904  28.484   8.620  0.00  0.00    -0.617 OA
ATOM     60  O2P PTR d   1      23.239  28.106  10.373  0.00  0.00    -0.617 OA
ATOM     61  O3P PTR d   1      25.522  27.733  10.937  0.00  0.00    -0.617 OA
ENDBRANCH  57  58
ENDBRANCH  51  57
ENDBRANCH  44  47
ENDBRANCH   7  44
ENDBRANCH   4   7
ENDBRANCH   1   3
BRANCH   1  62
ATOM     62  C   ILE d   1      17.334  36.661  12.660  0.00  0.00     0.241 C 
ATOM     63  O   ILE d   1      18.316  36.656  13.409  0.00  0.00    -0.271 OA
ATOM     64  N   PTR d   1      16.645  37.750  12.357  0.00  0.00    -0.346 N 
ATOM     65  H37 PTR d   1      15.857  37.672  11.746  0.00  0.00     0.163 HD
BRANCH  64  66
ATOM     66  CA  PTR d   1      16.996  39.040  12.881  0.00  0.00     0.093 C 
ATOM     67  H38 PTR d   1      17.996  38.982  13.336  0.00  0.00     0.088 H 
BRANCH  66  68
ATOM     68  C   PTR d   1      15.993  39.463  13.921  0.00  0.00     0.241 C 
ATOM     69  O   PTR d   1      14.786  39.214  13.792  0.00  0.00    -0.271 OA
ATOM     70  N   VAL d   1      16.512  40.097  14.961  0.00  0.00    -0.346 N 
ATOM     71  H45 VAL d   1      17.505  40.202  15.018  0.00  0.00     0.163 HD
BRANCH  70  72
ATOM     72  CA  VAL d   1      15.695  40.638  16.010  0.00  0.00     0.092 C 
ATOM     73  H46 VAL d   1      14.868  39.964  16.276  0.00  0.00     0.088 H 
BRANCH  72  74
ATOM     74  C   VAL d   1      15.173  41.932  15.361  0.00  0.00     0.243 C 
ATOM     75  O   VAL d   1      15.908  42.628  14.652  0.00  0.00    -0.271 OA
ATOM     76  N   PRO d   1      13.870  42.214  15.514  0.00  0.00    -0.337 N 
ATOM     77  CA  PRO d   1      13.226  43.407  14.942  0.00  0.00     0.091 C 
ATOM     78  CD  PRO d   1      12.851  41.207  15.873  0.00  0.00    -0.001 C 
ATOM     79  CB  PRO d   1      11.742  43.123  15.135  0.00  0.00    -0.036 C 
ATOM     80  H54 PRO d   1      13.454  43.433  13.866  0.00  0.00     0.087 H 
ATOM     81  CG  PRO d   1      11.667  41.623  15.012  0.00  0.00    -0.048 C 
ATOM     82  H55 PRO d   1      11.140  43.614  14.356  0.00  0.00     0.036 H 
ATOM     83  H56 PRO d   1      11.401  43.456  16.126  0.00  0.00     0.036 H 
ATOM     84  H57 PRO d   1      11.790  41.296  13.969  0.00  0.00     0.035 H 
ATOM     85  H58 PRO d   1      10.719  41.231  15.410  0.00  0.00     0.035 H 
ATOM     86  H59 PRO d   1      12.602  41.256  16.943  0.00  0.00     0.064 H 
ATOM     87  H60 PRO d   1      13.189  40.191  15.621  0.00  0.00     0.064 H 
BRANCH  77  88
ATOM     88  C   PRO d   1      13.616  44.754  15.489  0.00  0.00     0.241 C 
ATOM     89  O   PRO d   1      13.845  44.919  16.717  0.00  0.00    -0.271 OA
ATOM     90  N   ALA d   1      13.688  45.734  14.591  0.00  0.00    -0.345 N 
ATOM     91  H61 ALA d   1      13.466  45.513  13.641  0.00  0.00     0.163 HD
BRANCH  90  92
ATOM     92  CA  ALA d   1      14.069  47.109  14.898  0.00  0.00     0.093 C 
ATOM     93  H62 ALA d   1      13.567  47.769  14.175  0.00  0.00     0.089 H 
BRANCH  92  94
ATOM     94  C   ALA d   1      15.571  47.311  14.757  0.00  0.00     0.196 C 
ATOM     95  O   ALA d   1      15.961  48.204  13.976  0.00  0.00    -0.646 OA
ATOM     96  OXT ALA d   1      16.341  46.553  15.402  0.00  0.00    -0.646 OA
ENDBRANCH  92  94
BRANCH  92  97
ATOM     97  CB  ALA d   1      13.598  47.514  16.335  0.00  0.00    -0.048 C 
ATOM     98  H63 ALA d   1      13.897  48.552  16.540  0.00  0.00     0.030 H 
ATOM     99  H64 ALA d   1      14.062  46.846  17.075  0.00  0.00     0.030 H 
ATOM    100  H65 ALA d   1      12.503  47.428  16.400  0.00  0.00     0.030 H 
ENDBRANCH  92  97
ENDBRANCH  90  92
ENDBRANCH  77  88
ENDBRANCH  72  74
BRANCH  72 101
ATOM    101  CB  VAL d   1      16.571  40.908  17.259  0.00  0.00    -0.033 C 
ATOM    102  H47 VAL d   1      17.425  41.537  16.968  0.00  0.00     0.042 H 
BRANCH 101 103
ATOM    103  CG1 VAL d   1      15.779  41.628  18.339  0.00  0.00    -0.071 C 
ATOM    104  H48 VAL d   1      16.426  41.806  19.211  0.00  0.00     0.028 H 
ATOM    105  H49 VAL d   1      14.921  41.009  18.639  0.00  0.00     0.028 H 
ATOM    106  H50 VAL d   1      15.418  42.591  17.948  0.00  0.00     0.028 H 
ENDBRANCH 101 103
BRANCH 101 107
ATOM    107  CG2 VAL d   1      17.083  39.586  17.793  0.00  0.00    -0.071 C 
ATOM    108  H51 VAL d   1      17.655  39.070  17.008  0.00  0.00     0.028 H 
ATOM    109  H52 VAL d   1      16.232  38.959  18.098  0.00  0.00     0.028 H 
ATOM    110  H53 VAL d   1      17.734  39.768  18.661  0.00  0.00     0.028 H 
ENDBRANCH 101 107
ENDBRANCH  72 101
ENDBRANCH  70  72
ENDBRANCH  66  68
BRANCH  66 111
ATOM    111  CB  PTR d   1      17.005  40.085  11.778  0.00  0.00    -0.014 C 
ATOM    112  H39 PTR d   1      17.150  41.072  12.241  0.00  0.00     0.043 H 
ATOM    113  H40 PTR d   1      16.029  40.058  11.271  0.00  0.00     0.043 H 
BRANCH 111 114
ATOM    114  CG  PTR d   1      18.082  39.889  10.738  0.00  0.00    -0.056 A 
ATOM    115  CD1 PTR d   1      19.339  40.465  10.891  0.00  0.00    -0.074 A 
ATOM    116  CE1 PTR d   1      20.314  40.306   9.928  0.00  0.00    -0.050 A 
ATOM    117  H41 PTR d   1      19.555  41.047  11.780  0.00  0.00     0.084 H 
ATOM    118  CZ  PTR d   1      20.039  39.557   8.799  0.00  0.00     0.082 A 
ATOM    119  H43 PTR d   1      21.288  40.765  10.056  0.00  0.00     0.087 H 
ATOM    120  CE2 PTR d   1      18.801  38.973   8.634  0.00  0.00    -0.050 A 
ATOM    121  CD2 PTR d   1      17.834  39.140   9.594  0.00  0.00    -0.074 A 
ATOM    122  H44 PTR d   1      18.592  38.384   7.749  0.00  0.00     0.087 H 
ATOM    123  H42 PTR d   1      16.862  38.680   9.458  0.00  0.00     0.084 H 
BRANCH 118 124
ATOM    124  OH  PTR d   1      20.992  39.377   7.815  0.00  0.00    -0.240 OA
BRANCH 124 125
ATOM    125  P   PTR d   1      22.511  39.986   7.813  0.00  0.00     0.427 P 
ATOM    126  O1P PTR d   1      23.168  39.671   6.501  0.00  0.00    -0.617 OA
ATOM    127  O2P PTR d   1      23.294  39.403   8.936  0.00  0.00    -0.617 OA
ATOM    128  O3P PTR d   1      22.464  41.473   8.001  0.00  0.00    -0.617 OA
ENDBRANCH 124 125
ENDBRANCH 118 124
ENDBRANCH 111 114
ENDBRANCH  66 111
ENDBRANCH  64  66
ENDBRANCH   1  62
BRANCH   1 129
ATOM    129  CB  ILE d   1      15.833  34.727  12.977  0.00  0.00    -0.030 C 
ATOM    130  H28 ILE d   1      16.326  34.582  13.950  0.00  0.00     0.043 H 
BRANCH 129 131
ATOM    131  CG1 ILE d   1      15.468  33.353  12.410  0.00  0.00    -0.063 C 
ATOM    132  H29 ILE d   1      15.947  32.587  13.038  0.00  0.00     0.033 H 
ATOM    133  H30 ILE d   1      15.867  33.290  11.387  0.00  0.00     0.033 H 
BRANCH 131 134
ATOM    134  CD1 ILE d   1      13.995  33.054  12.354  0.00  0.00    -0.076 C 
ATOM    135  H34 ILE d   1      13.841  32.049  11.934  0.00  0.00     0.027 H 
ATOM    136  H35 ILE d   1      13.494  33.798  11.718  0.00  0.00     0.027 H 
ATOM    137  H36 ILE d   1      13.573  33.096  13.369  0.00  0.00     0.027 H 
ENDBRANCH 131 134
ENDBRANCH 129 131
BRANCH 129 138
ATOM    138  CG2 ILE d   1      14.604  35.627  13.195  0.00  0.00    -0.071 C 
ATOM    139  H31 ILE d   1      14.927  36.596  13.602  0.00  0.00     0.028 H 
ATOM    140  H32 ILE d   1      13.916  35.143  13.904  0.00  0.00     0.028 H 
ATOM    141  H33 ILE d   1      14.090  35.785  12.235  0.00  0.00     0.028 H 
ENDBRANCH 129 138
ENDBRANCH   1 129
TORSDOF 33
