REMARK  12 active torsions:
REMARK  status: ('A' for Active; 'I' for Inactive)
REMARK    1  A    between atoms: N_1  and  C_2 
REMARK    2  A    between atoms: C_2  and  C1_4 
REMARK    3  A    between atoms: N2_5  and  C2_6 
REMARK    4  A    between atoms: C5_9  and  C6_10 
REMARK    5  A    between atoms: C6_10  and  N3_11 
REMARK       I    between atoms: N3_11  and  C7_12 
REMARK    6  A    between atoms: C7_12  and  C8_14 
REMARK       I    between atoms: N4_18  and  C12_19 
REMARK    7  A    between atoms: C12_19  and  C13_21 
REMARK    8  A    between atoms: C13_21  and  C14_22 
REMARK    9  A    between atoms: C13_21  and  N5_29 
REMARK   10  A    between atoms: C14_22  and  C15_23 
REMARK   11  A    between atoms: N5_29  and  C21_30 
REMARK   12  A    between atoms: C21_30  and  C22_31 
ROOT
ATOM      1  C8  163 d   1      17.817  21.476  21.054  0.00  0.00     0.108 C 
ATOM      2  C9  163 d   1      18.975  21.632  20.099  0.00  0.00    -0.075 C 
ATOM      3  C10 163 d   1      19.666  20.527  20.044  0.00  0.00    -0.087 C 
ATOM      4  C11 163 d   1      19.057  19.492  20.952  0.00  0.00     0.014 C 
ATOM      5  N4  163 d   1      17.956  20.150  21.698  0.00  0.00    -0.330 N 
ATOM      6  C12 163 d   1      17.228  19.644  22.751  0.00  0.00     0.252 C 
ATOM      7  O1  163 d   1      16.349  20.313  23.263  0.00  0.00    -0.271 OA
ATOM      8  H13 163 d   1      17.871  22.262  21.821  0.00  0.00     0.094 H 
ATOM      9  H14 163 d   1      19.201  22.537  19.537  0.00  0.00     0.080 H 
ATOM     10  H15 163 d   1      20.553  20.375  19.431  0.00  0.00     0.079 H 
ATOM     11  H16 163 d   1      19.815  19.115  21.655  0.00  0.00     0.070 H 
ATOM     12  H17 163 d   1      18.661  18.656  20.357  0.00  0.00     0.070 H 
ENDROOT
BRANCH   1  13
ATOM     13  C7  163 d   1      16.481  21.591  20.338  0.00  0.00     0.244 C 
ATOM     14  N3  163 d   1      15.565  22.478  20.811  0.00  0.00    -0.353 N 
ATOM     15  H12 163 d   1      15.797  23.035  21.608  0.00  0.00     0.162 HD
ATOM     16  O   163 d   1      16.241  20.891  19.367  0.00  0.00    -0.271 OA
BRANCH  14  17
ATOM     17  C6  163 d   1      14.240  22.644  20.186  0.00  0.00     0.033 C 
ATOM     18  H10 163 d   1      14.051  23.711  19.995  0.00  0.00     0.073 H 
ATOM     19  H11 163 d   1      14.205  22.090  19.236  0.00  0.00     0.073 H 
BRANCH  17  20
ATOM     20  C5  163 d   1      13.194  22.102  21.131  0.00  0.00     0.029 A 
ATOM     21  N2  163 d   1      12.661  22.755  22.197  0.00  0.00    -0.350 N 
ATOM     22  C1  163 d   1      11.738  21.918  22.808  0.00  0.00     0.078 A 
ATOM     23  C3  163 d   1      11.724  20.753  22.093  0.00  0.00    -0.051 A 
ATOM     24  C4  163 d   1      12.638  20.883  21.048  0.00  0.00    -0.057 A 
ATOM     25  H8  163 d   1      11.109  19.879  22.302  0.00  0.00     0.087 H 
ATOM     26  H9  163 d   1      12.862  20.128  20.296  0.00  0.00     0.086 H 
BRANCH  21  27
ATOM     27  C2  163 d   1      13.012  24.132  22.635  0.00  0.00    -0.014 C 
ATOM     28  H5  163 d   1      12.422  24.395  23.525  0.00  0.00     0.057 H 
ATOM     29  H6  163 d   1      12.790  24.842  21.825  0.00  0.00     0.057 H 
ATOM     30  H7  163 d   1      14.084  24.177  22.879  0.00  0.00     0.057 H 
ENDBRANCH  21  27
BRANCH  22  31
ATOM     31  C   163 d   1      10.906  22.211  24.012  0.00  0.00     0.119 C 
ATOM     32  N1  163 d   1      10.781  21.290  24.961  0.00  0.00    -0.384 N 
ATOM     33  H3  163 d   1      11.260  20.383  24.865  0.00  0.00     0.157 HD
ATOM     34  H4  163 d   1      10.205  21.483  25.793  0.00  0.00     0.157 HD
BRANCH  31  35
ATOM     35  N   163 d   1      10.289  23.388  24.128  0.00  0.00    -0.384 N 
ATOM     36  H1  163 d   1      10.390  24.098  23.388  0.00  0.00     0.157 HD
ATOM     37  H2  163 d   1       9.711  23.587  24.957  0.00  0.00     0.157 HD
ENDBRANCH  31  35
ENDBRANCH  22  31
ENDBRANCH  17  20
ENDBRANCH  14  17
ENDBRANCH   1  13
BRANCH   6  38
ATOM     38  C13 163 d   1      17.506  18.250  23.291  0.00  0.00     0.179 C 
ATOM     39  H18 163 d   1      18.169  17.719  22.593  0.00  0.00     0.099 H 
BRANCH  38  40
ATOM     40  C14 163 d   1      18.189  18.334  24.674  0.00  0.00    -0.026 C 
ATOM     41  H19 163 d   1      18.128  17.352  25.165  0.00  0.00     0.037 H 
ATOM     42  H20 163 d   1      17.668  19.084  25.288  0.00  0.00     0.037 H 
BRANCH  40  43
ATOM     43  C15 163 d   1      19.668  18.737  24.535  0.00  0.00    -0.052 C 
ATOM     44  C16 163 d   1      20.141  19.430  25.833  0.00  0.00    -0.062 C 
ATOM     45  C17 163 d   1      21.629  19.841  25.707  0.00  0.00    -0.065 C 
ATOM     46  H22 163 d   1      20.026  18.736  26.678  0.00  0.00     0.033 H 
ATOM     47  H23 163 d   1      19.530  20.327  26.010  0.00  0.00     0.033 H 
ATOM     48  C18 163 d   1      22.508  18.600  25.412  0.00  0.00    -0.065 C 
ATOM     49  H24 163 d   1      21.959  20.303  26.649  0.00  0.00     0.033 H 
ATOM     50  H25 163 d   1      21.737  20.565  24.886  0.00  0.00     0.033 H 
ATOM     51  C19 163 d   1      22.022  17.888  24.126  0.00  0.00    -0.065 C 
ATOM     52  H26 163 d   1      22.445  17.901  26.259  0.00  0.00     0.033 H 
ATOM     53  H27 163 d   1      23.552  18.919  25.277  0.00  0.00     0.033 H 
ATOM     54  C20 163 d   1      20.536  17.482  24.268  0.00  0.00    -0.062 C 
ATOM     55  H28 163 d   1      22.630  16.987  23.958  0.00  0.00     0.033 H 
ATOM     56  H29 163 d   1      22.132  18.570  23.270  0.00  0.00     0.033 H 
ATOM     57  H30 163 d   1      20.200  16.997  23.339  0.00  0.00     0.033 H 
ATOM     58  H31 163 d   1      20.429  16.779  25.108  0.00  0.00     0.033 H 
ATOM     59  H21 163 d   1      19.774  19.435  23.692  0.00  0.00     0.040 H 
ENDBRANCH  40  43
ENDBRANCH  38  40
BRANCH  38  60
ATOM     60  N5  163 d   1      16.241  17.512  23.418  0.00  0.00    -0.053 N 
ATOM     61  H32 163 d   1      15.521  18.198  23.583  0.00  0.00     0.278 HD
ATOM     62  H33 163 d   1      16.332  16.920  24.229  0.00  0.00     0.278 HD
BRANCH  60  63
ATOM     63  C21 163 d   1      15.764  16.657  22.324  0.00  0.00     0.161 C 
ATOM     64  H34 163 d   1      16.617  16.122  21.881  0.00  0.00     0.092 H 
ATOM     65  H35 163 d   1      15.284  17.281  21.556  0.00  0.00     0.092 H 
BRANCH  63  66
ATOM     66  C22 163 d   1      14.764  15.656  22.853  0.00  0.00     0.199 C 
ATOM     67  O2  163 d   1      14.749  15.370  24.040  0.00  0.00    -0.647 OA
ATOM     68  O3  163 d   1      13.970  15.129  22.092  0.00  0.00    -0.647 OA
ENDBRANCH  63  66
ENDBRANCH  60  63
ENDBRANCH  38  60
ENDBRANCH   6  38
TORSDOF 12
