REMARK  5 active torsions:
REMARK  status: ('A' for Active; 'I' for Inactive)
REMARK    1  A    between atoms: C1_1  and  C7_7 
REMARK    2  A    between atoms: C7_7  and  N1_8 
REMARK    3  A    between atoms: C8_12  and  C1'_13 
REMARK    4  A    between atoms: C5'_17  and  C1''_20 
REMARK    5  A    between atoms: C6'_18  and  O6'_19 
ROOT
ATOM      1  C1' 696 d   1      14.849 -13.309  18.082  0.00  0.00     0.025 A 
ATOM      2  C2' 696 d   1      14.817 -14.704  17.836  0.00  0.00    -0.068 A 
ATOM      3  C3' 696 d   1      15.650 -15.264  16.883  0.00  0.00    -0.081 A 
ATOM      4  C4' 696 d   1      16.544 -14.463  16.191  0.00  0.00    -0.070 A 
ATOM      5  C5' 696 d   1      16.646 -13.083  16.451  0.00  0.00     0.008 A 
ATOM      6  C6' 696 d   1      15.782 -12.517  17.416  0.00  0.00     0.089 A 
ATOM      7  H10 696 d   1      14.137 -15.335  18.397  0.00  0.00     0.085 H 
ATOM      8  H11 696 d   1      15.603 -16.328  16.678  0.00  0.00     0.083 H 
ATOM      9  H12 696 d   1      17.178 -14.908  15.433  0.00  0.00     0.085 H 
ENDROOT
BRANCH   1  10
ATOM     10  C8  696 d   1      13.976 -12.763  19.007  0.00  0.00     0.046 A 
ATOM     11  N3  696 d   1      13.986 -11.473  19.366  0.00  0.00    -0.355 N 
ATOM     12  C4  696 d   1      13.238 -11.341  20.405  0.00  0.00     0.043 A 
ATOM     13  H8  696 d   1      14.502 -10.718  18.893  0.00  0.00     0.166 HD
ATOM     14  C3  696 d   1      12.859 -10.206  21.108  0.00  0.00    -0.055 A 
ATOM     15  C5  696 d   1      12.768 -12.575  20.786  0.00  0.00    -0.006 A 
ATOM     16  C2  696 d   1      11.996 -10.358  22.189  0.00  0.00    -0.067 A 
ATOM     17  H2  696 d   1      13.226  -9.227  20.823  0.00  0.00     0.087 H 
ATOM     18  C1  696 d   1      11.510 -11.647  22.577  0.00  0.00     0.008 A 
ATOM     19  H1  696 d   1      11.686  -9.483  22.748  0.00  0.00     0.085 H 
ATOM     20  C6  696 d   1      11.906 -12.754  21.826  0.00  0.00    -0.057 A 
ATOM     21  H3  696 d   1      11.533 -13.743  22.067  0.00  0.00     0.086 H 
ATOM     22  CN4 696 d   1      13.151 -13.600  19.820  0.00  0.00    -0.044 A 
ATOM     23  H9  696 d   1      12.893 -14.655  19.744  0.00  0.00     0.088 H 
BRANCH  18  24
ATOM     24  C7  696 d   1      10.697 -11.762  23.705  0.00  0.00     0.102 C 
ATOM     25  N2  696 d   1      10.596 -10.746  24.532  0.00  0.00    -0.385 N 
ATOM     26  H6  696 d   1      11.151  -9.893  24.371  0.00  0.00     0.157 HD
ATOM     27  H7  696 d   1       9.962 -10.802  25.342  0.00  0.00     0.157 HD
BRANCH  24  28
ATOM     28  N1  696 d   1       9.991 -12.858  23.902  0.00  0.00    -0.385 N 
ATOM     29  H4  696 d   1       9.391 -12.941  24.735  0.00  0.00     0.157 HD
ATOM     30  H5  696 d   1      10.039 -13.631  23.223  0.00  0.00     0.157 HD
ENDBRANCH  24  28
ENDBRANCH  18  24
ENDBRANCH   1  10
BRANCH   6  31
ATOM     31  O6' 696 d   1      15.785 -11.163  17.666  0.00  0.00    -0.359 OA
ATOM     32  H13 696 d   1      15.145 -10.965  18.340  0.00  0.00     0.217 HD
ENDBRANCH   6  31
BRANCH   5  33
ATOM     33  C1' 696 d   1      17.636 -12.360  15.735  0.00  0.00    -0.023 A 
ATOM     34  C2' 696 d   1      17.341 -11.205  15.003  0.00  0.00    -0.072 A 
ATOM     35  C3' 696 d   1      18.340 -10.546  14.272  0.00  0.00    -0.082 A 
ATOM     36  H14 696 d   1      16.329 -10.815  15.001  0.00  0.00     0.084 H 
ATOM     37  C4' 696 d   1      19.655 -11.037  14.259  0.00  0.00    -0.083 A 
ATOM     38  H15 696 d   1      18.095  -9.650  13.713  0.00  0.00     0.083 H 
ATOM     39  C5' 696 d   1      19.965 -12.178  14.997  0.00  0.00    -0.082 A 
ATOM     40  H16 696 d   1      20.422 -10.534  13.681  0.00  0.00     0.083 H 
ATOM     41  C6' 696 d   1      18.968 -12.834  15.726  0.00  0.00    -0.072 A 
ATOM     42  H17 696 d   1      20.980 -12.557  15.006  0.00  0.00     0.083 H 
ATOM     43  H18 696 d   1      19.221 -13.722  16.294  0.00  0.00     0.084 H 
ENDBRANCH   5  33
TORSDOF 5
