REMARK  9 active torsions:
REMARK  status: ('A' for Active; 'I' for Inactive)
REMARK    1  A    between atoms: C1_1  and  C7_7 
REMARK    2  A    between atoms: C7_7  and  N1_8 
REMARK    3  A    between atoms: C8_12  and  C1'_13 
REMARK    4  A    between atoms: C5'_17  and  O5'_20 
REMARK    5  A    between atoms: C6'_18  and  O6'_19 
REMARK    6  A    between atoms: O5'_20  and  C10_21 
REMARK    7  A    between atoms: C10_21  and  C20_22 
REMARK    8  A    between atoms: C20_22  and  C30_23 
REMARK    9  A    between atoms: C20_22  and  C40_24 
ROOT
ATOM      1  C1' 656 d   1      43.758  -2.147  31.827  0.00  0.00     0.046 A 
ATOM      2  C2' 656 d   1      43.357  -3.248  32.564  0.00  0.00    -0.066 A 
ATOM      3  C3' 656 d   1      43.181  -3.147  33.933  0.00  0.00    -0.079 A 
ATOM      4  C4' 656 d   1      43.404  -1.952  34.581  0.00  0.00    -0.048 A 
ATOM      5  C5' 656 d   1      43.805  -0.844  33.864  0.00  0.00     0.102 A 
ATOM      6  C6' 656 d   1      43.977  -0.938  32.487  0.00  0.00     0.113 A 
ATOM      7  H9  656 d   1      43.180  -4.194  32.066  0.00  0.00     0.085 H 
ATOM      8  H10 656 d   1      42.865  -4.015  34.500  0.00  0.00     0.083 H 
ATOM      9  H11 656 d   1      43.264  -1.883  35.654  0.00  0.00     0.087 H 
ENDROOT
BRANCH   1  10
ATOM     10  C8  656 d   1      43.959  -2.264  30.452  0.00  0.00     0.142 A 
ATOM     11  N3  656 d   1      44.348  -1.254  29.733  0.00  0.00    -0.338 N 
ATOM     12  C4  656 d   1      44.460  -1.663  28.528  0.00  0.00     0.062 A 
ATOM     13  H8  656 d   1      44.532  -0.299  30.072  0.00  0.00     0.167 HD
ATOM     14  C3  656 d   1      44.836  -0.999  27.401  0.00  0.00    -0.054 A 
ATOM     15  C5  656 d   1      44.121  -2.960  28.548  0.00  0.00     0.086 A 
ATOM     16  C2  656 d   1      44.865  -1.710  26.208  0.00  0.00    -0.067 A 
ATOM     17  H2  656 d   1      45.104   0.051  27.433  0.00  0.00     0.087 H 
ATOM     18  C1  656 d   1      44.518  -3.073  26.158  0.00  0.00     0.009 A 
ATOM     19  H1  656 d   1      45.161  -1.204  25.296  0.00  0.00     0.085 H 
ATOM     20  C6  656 d   1      44.137  -3.710  27.373  0.00  0.00    -0.039 A 
ATOM     21  H3  656 d   1      43.864  -4.759  27.384  0.00  0.00     0.088 H 
ATOM     22  N4  656 d   1      43.797  -3.383  29.754  0.00  0.00    -0.228 NA
BRANCH  18  23
ATOM     23  C7  656 d   1      44.555  -3.754  24.910  0.00  0.00     0.102 C 
ATOM     24  N2  656 d   1      44.812  -3.087  23.810  0.00  0.00    -0.385 N 
ATOM     25  H6  656 d   1      44.995  -2.074  23.853  0.00  0.00     0.157 HD
ATOM     26  H7  656 d   1      44.831  -3.576  22.904  0.00  0.00     0.157 HD
BRANCH  23  27
ATOM     27  N1  656 d   1      44.324  -5.044  24.842  0.00  0.00    -0.385 N 
ATOM     28  H4  656 d   1      44.354  -5.525  23.932  0.00  0.00     0.157 HD
ATOM     29  H5  656 d   1      44.113  -5.575  25.699  0.00  0.00     0.157 HD
ENDBRANCH  23  27
ENDBRANCH  18  23
ENDBRANCH   1  10
BRANCH   6  30
ATOM     30  O6' 656 d   1      44.350   0.197  31.789  0.00  0.00    -0.357 OA
ATOM     31  H12 656 d   1      44.430  -0.012  30.866  0.00  0.00     0.217 HD
ENDBRANCH   6  30
BRANCH   5  32
ATOM     32  O5' 656 d   1      44.084   0.356  34.500  0.00  0.00    -0.348 OA
BRANCH  32  33
ATOM     33  C10 656 d   1      43.712   0.701  35.827  0.00  0.00     0.029 C 
ATOM     34  H13 656 d   1      44.218   0.031  36.538  0.00  0.00     0.075 H 
ATOM     35  H14 656 d   1      42.623   0.603  35.942  0.00  0.00     0.075 H 
BRANCH  33  36
ATOM     36  C20 656 d   1      44.139   2.185  36.107  0.00  0.00    -0.040 C 
ATOM     37  H15 656 d   1      44.624   2.628  35.225  0.00  0.00     0.042 H 
BRANCH  36  38
ATOM     38  C30 656 d   1      42.887   2.981  36.542  0.00  0.00    -0.071 C 
ATOM     39  H16 656 d   1      43.168   4.025  36.743  0.00  0.00     0.028 H 
ATOM     40  H17 656 d   1      42.466   2.533  37.454  0.00  0.00     0.028 H 
ATOM     41  H18 656 d   1      42.136   2.951  35.739  0.00  0.00     0.028 H 
ENDBRANCH  36  38
BRANCH  36  42
ATOM     42  C40 656 d   1      45.047   2.225  37.335  0.00  0.00    -0.071 C 
ATOM     43  H19 656 d   1      45.977   1.678  37.121  0.00  0.00     0.028 H 
ATOM     44  H20 656 d   1      44.533   1.756  38.187  0.00  0.00     0.028 H 
ATOM     45  H21 656 d   1      45.285   3.270  37.581  0.00  0.00     0.028 H 
ENDBRANCH  36  42
ENDBRANCH  33  36
ENDBRANCH  32  33
ENDBRANCH   5  32
TORSDOF 9
