REMARK  9 active torsions:
REMARK  status: ('A' for Active; 'I' for Inactive)
REMARK    1  A    between atoms: C1_1  and  C7_8 
REMARK    2  A    between atoms: C7_8  and  N1_9 
REMARK    3  A    between atoms: C8_13  and  C1'_14 
REMARK    4  A    between atoms: C5'_18  and  O5'_21 
REMARK    5  A    between atoms: C6'_19  and  O6'_20 
REMARK    6  A    between atoms: O5'_21  and  C10_22 
REMARK    7  A    between atoms: C10_22  and  C20_23 
REMARK    8  A    between atoms: C20_23  and  C30_24 
REMARK    9  A    between atoms: C20_23  and  C40_25 
ROOT
ATOM      1  C1' 972 d   1      43.259  -1.981  31.460  0.00  0.00     0.046 A 
ATOM      2  C2' 972 d   1      43.147  -3.127  32.260  0.00  0.00    -0.066 A 
ATOM      3  C3' 972 d   1      42.948  -3.023  33.636  0.00  0.00    -0.079 A 
ATOM      4  C4' 972 d   1      42.857  -1.786  34.228  0.00  0.00    -0.048 A 
ATOM      5  C5' 972 d   1      42.962  -0.611  33.459  0.00  0.00     0.102 A 
ATOM      6  C6' 972 d   1      43.161  -0.702  32.071  0.00  0.00     0.113 A 
ATOM      7  H8  972 d   1      43.216  -4.107  31.802  0.00  0.00     0.085 H 
ATOM      8  H9  972 d   1      42.865  -3.919  34.240  0.00  0.00     0.083 H 
ATOM      9  H10 972 d   1      42.703  -1.714  35.299  0.00  0.00     0.087 H 
ENDROOT
BRANCH   1  10
ATOM     10  C8  972 d   1      43.456  -2.095  30.068  0.00  0.00     0.142 A 
ATOM     11  N3  972 d   1      43.409  -1.061  29.276  0.00  0.00    -0.338 N 
ATOM     12  C4  972 d   1      43.570  -1.480  28.067  0.00  0.00     0.064 A 
ATOM     13  H7  972 d   1      43.268  -0.082  29.565  0.00  0.00     0.167 HD
ATOM     14  C3  972 d   1      43.609  -0.818  26.851  0.00  0.00    -0.033 A 
ATOM     15  C5  972 d   1      43.716  -2.809  28.177  0.00  0.00     0.086 A 
ATOM     16  C2  972 d   1      43.809  -1.564  25.674  0.00  0.00     0.050 A 
ATOM     17  H1  972 d   1      43.487   0.258  26.806  0.00  0.00     0.089 H 
ATOM     18  C1  972 d   1      43.972  -2.983  25.779  0.00  0.00     0.031 A 
ATOM     19 CL2  972 d   1      43.788  -0.699  24.103  0.00  0.00    -0.083 Cl
ATOM     20  C6  972 d   1      43.921  -3.597  27.046  0.00  0.00    -0.038 A 
ATOM     21  H2  972 d   1      44.040  -4.670  27.140  0.00  0.00     0.088 H 
ATOM     22  N4  972 d   1      43.648  -3.233  29.421  0.00  0.00    -0.228 NA
BRANCH  18  23
ATOM     23  C7  972 d   1      44.194  -3.791  24.649  0.00  0.00     0.104 C 
ATOM     24  N2  972 d   1      44.835  -3.267  23.625  0.00  0.00    -0.385 N 
ATOM     25  H5  972 d   1      45.143  -2.285  23.658  0.00  0.00     0.157 HD
ATOM     26  H6  972 d   1      45.028  -3.839  22.791  0.00  0.00     0.157 HD
BRANCH  23  27
ATOM     27  N1  972 d   1      43.787  -5.046  24.636  0.00  0.00    -0.385 N 
ATOM     28  H3  972 d   1      43.953  -5.633  23.806  0.00  0.00     0.157 HD
ATOM     29  H4  972 d   1      43.304  -5.439  25.456  0.00  0.00     0.157 HD
ENDBRANCH  23  27
ENDBRANCH  18  23
ENDBRANCH   1  10
BRANCH   6  30
ATOM     30  O6' 972 d   1      43.261   0.463  31.307  0.00  0.00    -0.357 OA
ATOM     31  H11 972 d   1      43.393   0.232  30.395  0.00  0.00     0.217 HD
ENDBRANCH   6  30
BRANCH   5  32
ATOM     32  O5' 972 d   1      42.872   0.649  34.047  0.00  0.00    -0.348 OA
BRANCH  32  33
ATOM     33  C10 972 d   1      42.882   0.841  35.474  0.00  0.00     0.029 C 
ATOM     34  H12 972 d   1      43.650   0.185  35.911  0.00  0.00     0.075 H 
ATOM     35  H13 972 d   1      41.894   0.566  35.872  0.00  0.00     0.075 H 
BRANCH  33  36
ATOM     36  C20 972 d   1      43.196   2.333  35.890  0.00  0.00    -0.040 C 
ATOM     37  H14 972 d   1      42.262   2.809  36.223  0.00  0.00     0.042 H 
BRANCH  36  38
ATOM     38  C30 972 d   1      44.242   2.367  37.043  0.00  0.00    -0.071 C 
ATOM     39  H15 972 d   1      44.449   3.411  37.320  0.00  0.00     0.028 H 
ATOM     40  H16 972 d   1      45.173   1.885  36.708  0.00  0.00     0.028 H 
ATOM     41  H17 972 d   1      43.844   1.828  37.916  0.00  0.00     0.028 H 
ENDBRANCH  36  38
BRANCH  36  42
ATOM     42  C40 972 d   1      43.783   3.128  34.750  0.00  0.00    -0.071 C 
ATOM     43  H18 972 d   1      43.078   3.134  33.906  0.00  0.00     0.028 H 
ATOM     44  H19 972 d   1      44.731   2.669  34.433  0.00  0.00     0.028 H 
ATOM     45  H20 972 d   1      43.968   4.161  35.080  0.00  0.00     0.028 H 
ENDBRANCH  36  42
ENDBRANCH  33  36
ENDBRANCH  32  33
ENDBRANCH   5  32
TORSDOF 9
