REMARK  4 active torsions:
REMARK  status: ('A' for Active; 'I' for Inactive)
REMARK    1  A    between atoms: C1_1  and  C7_7 
REMARK    2  A    between atoms: C7_7  and  N1_8 
REMARK    3  A    between atoms: C8_12  and  C1'_13 
REMARK    4  A    between atoms: C6'_18  and  O6'_19 
ROOT
ATOM      1  C1  CR4 d   1      44.432  -3.100  26.209  0.00  0.00     0.009 A 
ATOM      2  C2  CR4 d   1      44.853  -1.757  26.278  0.00  0.00    -0.067 A 
ATOM      3  C3  CR4 d   1      44.820  -1.055  27.474  0.00  0.00    -0.054 A 
ATOM      4  C4  CR4 d   1      44.369  -1.707  28.579  0.00  0.00     0.062 A 
ATOM      5  C5  CR4 d   1      43.951  -2.988  28.569  0.00  0.00     0.086 A 
ATOM      6  C6  CR4 d   1      43.968  -3.726  27.386  0.00  0.00    -0.039 A 
ATOM      7  N3  CR4 d   1      44.241  -1.306  29.781  0.00  0.00    -0.338 N 
ATOM      8  N4  CR4 d   1      43.557  -3.406  29.752  0.00  0.00    -0.228 NA
ATOM      9  C8  CR4 d   1      43.771  -2.300  30.457  0.00  0.00     0.141 A 
ATOM     10  H1  CR4 d   1      45.209  -1.264  25.381  0.00  0.00     0.085 H 
ATOM     11  H2  CR4 d   1      45.143  -0.021  27.526  0.00  0.00     0.087 H 
ATOM     12  H3  CR4 d   1      43.633  -4.757  27.371  0.00  0.00     0.088 H 
ATOM     13  H8  CR4 d   1      44.469  -0.369  30.144  0.00  0.00     0.167 HD
ENDROOT
BRANCH   9  14
ATOM     14  C1' CR4 d   1      43.575  -2.158  31.827  0.00  0.00     0.043 A 
ATOM     15  C2' CR4 d   1      43.379  -3.315  32.602  0.00  0.00    -0.067 A 
ATOM     16  C3' CR4 d   1      43.184  -3.216  33.969  0.00  0.00    -0.082 A 
ATOM     17  H9  CR4 d   1      43.381  -4.289  32.127  0.00  0.00     0.085 H 
ATOM     18  C4' CR4 d   1      43.185  -1.966  34.571  0.00  0.00    -0.080 A 
ATOM     19  H10 CR4 d   1      43.032  -4.109  34.565  0.00  0.00     0.083 H 
ATOM     20  C5' CR4 d   1      43.380  -0.799  33.816  0.00  0.00    -0.050 A 
ATOM     21  H11 CR4 d   1      43.033  -1.889  35.642  0.00  0.00     0.083 H 
ATOM     22  C6' CR4 d   1      43.574  -0.866  32.437  0.00  0.00     0.079 A 
ATOM     23  H12 CR4 d   1      43.380   0.166  34.311  0.00  0.00     0.087 H 
BRANCH  22  24
ATOM     24  O6' CR4 d   1      43.732   0.326  31.719  0.00  0.00    -0.360 OA
ATOM     25  H13 CR4 d   1      44.492   0.793  32.046  0.00  0.00     0.217 HD
ENDBRANCH  22  24
ENDBRANCH   9  14
BRANCH   1  26
ATOM     26  C7  CR4 d   1      44.489  -3.789  24.988  0.00  0.00     0.102 C 
ATOM     27  N2  CR4 d   1      44.811  -3.134  23.896  0.00  0.00    -0.385 N 
ATOM     28  H6  CR4 d   1      45.022  -2.127  23.943  0.00  0.00     0.157 HD
ATOM     29  H7  CR4 d   1      44.852  -3.627  22.993  0.00  0.00     0.157 HD
BRANCH  26  30
ATOM     30  N1  CR4 d   1      44.216  -5.075  24.950  0.00  0.00    -0.385 N 
ATOM     31  H4  CR4 d   1      44.257  -5.584  24.055  0.00  0.00     0.157 HD
ATOM     32  H5  CR4 d   1      43.961  -5.573  25.815  0.00  0.00     0.157 HD
ENDBRANCH  26  30
ENDBRANCH   1  26
TORSDOF 4
