REMARK  7 active torsions:
REMARK  status: ('A' for Active; 'I' for Inactive)
REMARK    1  A    between atoms: C1_1  and  C7_7 
REMARK    2  A    between atoms: C7_7  and  N1_8 
REMARK    3  A    between atoms: C8_12  and  C1'_13 
REMARK    4  A    between atoms: C3'_15  and  O3'_16 
REMARK    5  A    between atoms: O3'_16  and  CM3'_17 
REMARK    6  A    between atoms: C5'_19  and  C1''_22 
REMARK    7  A    between atoms: C6'_20  and  O6'_21 
ROOT
ATOM      1  C1' 783 d   1      43.393  -1.893  31.816  0.00  0.00     0.027 A 
ATOM      2  C2' 783 d   1      43.083  -2.986  32.626  0.00  0.00    -0.036 A 
ATOM      3  C3' 783 d   1      42.838  -2.849  33.975  0.00  0.00     0.070 A 
ATOM      4  C4' 783 d   1      42.900  -1.607  34.535  0.00  0.00    -0.037 A 
ATOM      5  C5' 783 d   1      43.202  -0.476  33.801  0.00  0.00     0.011 A 
ATOM      6  C6' 783 d   1      43.447  -0.620  32.413  0.00  0.00     0.089 A 
ATOM      7  H10 783 d   1      43.033  -3.973  32.181  0.00  0.00     0.089 H 
ATOM      8  H14 783 d   1      42.705  -1.503  35.596  0.00  0.00     0.089 H 
ENDROOT
BRANCH   1   9
ATOM      9  C8  783 d   1      43.626  -2.135  30.470  0.00  0.00     0.046 C 
ATOM     10  N3  783 d   1      44.050  -1.202  29.633  0.00  0.00    -0.355 N 
ATOM     11  C4  783 d   1      44.173  -1.667  28.405  0.00  0.00     0.043 A 
ATOM     12  H8  783 d   1      44.258  -0.231  29.907  0.00  0.00     0.166 HD
ATOM     13  C3  783 d   1      44.584  -1.018  27.288  0.00  0.00    -0.055 A 
ATOM     14  C5  783 d   1      43.819  -2.960  28.428  0.00  0.00    -0.006 A 
ATOM     15  C2  783 d   1      44.632  -1.764  26.109  0.00  0.00    -0.067 A 
ATOM     16  H2  783 d   1      44.862   0.030  27.309  0.00  0.00     0.087 H 
ATOM     17  C1  783 d   1      44.278  -3.134  26.059  0.00  0.00     0.008 A 
ATOM     18  H1  783 d   1      44.953  -1.275  25.196  0.00  0.00     0.085 H 
ATOM     19  C6  783 d   1      43.859  -3.722  27.264  0.00  0.00    -0.057 A 
ATOM     20  H3  783 d   1      43.568  -4.766  27.287  0.00  0.00     0.086 H 
ATOM     21  CN4 783 d   1      43.396  -3.229  29.672  0.00  0.00    -0.044 C 
ATOM     22  H9  783 d   1      42.943  -4.164  29.997  0.00  0.00     0.088 H 
BRANCH  17  23
ATOM     23  C7  783 d   1      44.349  -3.864  24.865  0.00  0.00     0.102 C 
ATOM     24  N2  783 d   1      44.782  -3.251  23.792  0.00  0.00    -0.385 N 
ATOM     25  H6  783 d   1      45.053  -2.258  23.840  0.00  0.00     0.157 HD
ATOM     26  H7  783 d   1      44.852  -3.761  22.900  0.00  0.00     0.157 HD
BRANCH  23  27
ATOM     27  N1  783 d   1      43.997  -5.133  24.827  0.00  0.00    -0.385 N 
ATOM     28  H4  783 d   1      44.054  -5.657  23.942  0.00  0.00     0.157 HD
ATOM     29  H5  783 d   1      43.664  -5.601  25.682  0.00  0.00     0.157 HD
ENDBRANCH  23  27
ENDBRANCH  17  23
ENDBRANCH   1   9
BRANCH   6  30
ATOM     30  O6' 783 d   1      43.719   0.455  31.584  0.00  0.00    -0.359 OA
ATOM     31  H15 783 d   1      44.504   0.896  31.887  0.00  0.00     0.217 HD
ENDBRANCH   6  30
BRANCH   3  32
ATOM     32  O3' 783 d   1      42.518  -3.937  34.775  0.00  0.00    -0.356 OA
BRANCH  32  33
ATOM     33  CM3 783 d   1      41.147  -3.956  35.158  0.00  0.00     0.010 C 
ATOM     34  H11 783 d   1      40.955  -4.837  35.788  0.00  0.00     0.066 H 
ATOM     35  H12 783 d   1      40.516  -4.003  34.258  0.00  0.00     0.066 H 
ATOM     36  H13 783 d   1      40.912  -3.042  35.724  0.00  0.00     0.066 H 
ENDBRANCH  32  33
ENDBRANCH   3  32
BRANCH   5  37
ATOM     37  C1' 783 d   1      43.259   0.701  34.533  0.00  0.00    -0.023 A 
ATOM     38  C2' 783 d   1      44.419   1.482  34.583  0.00  0.00    -0.072 A 
ATOM     39  C3' 783 d   1      44.482   2.638  35.346  0.00  0.00    -0.082 A 
ATOM     40  H16 783 d   1      45.288   1.176  34.012  0.00  0.00     0.084 H 
ATOM     41  C4' 783 d   1      43.382   3.029  36.088  0.00  0.00    -0.083 A 
ATOM     42  H17 783 d   1      45.389   3.232  35.361  0.00  0.00     0.083 H 
ATOM     43  C5' 783 d   1      42.215   2.280  36.065  0.00  0.00    -0.082 A 
ATOM     44  H18 783 d   1      43.432   3.928  36.692  0.00  0.00     0.083 H 
ATOM     45  C6' 783 d   1      42.160   1.125  35.295  0.00  0.00    -0.072 A 
ATOM     46  H19 783 d   1      41.353   2.593  36.643  0.00  0.00     0.083 H 
ATOM     47  H20 783 d   1      41.248   0.539  35.283  0.00  0.00     0.084 H 
ENDBRANCH   5  37
TORSDOF 7
