REMARK  8 active torsions:
REMARK  status: ('A' for Active; 'I' for Inactive)
REMARK    1  A    between atoms: C1_1  and  C7_7 
REMARK    2  A    between atoms: C7_7  and  N1_8 
REMARK    3  A    between atoms: C8_12  and  C1'_13 
REMARK    4  A    between atoms: C3'_15  and  C31'_16 
REMARK    5  A    between atoms: C31'_16  and  C32'_17 
REMARK    6  A    between atoms: C31'_16  and  C42'_20 
REMARK    7  A    between atoms: C42'_20  and  C43'_21 
REMARK    8  A    between atoms: C6'_26  and  O6'_27 
ROOT
ATOM      1  C1' 847 d   1      43.034  -3.205  31.653  0.00  0.00     0.045 A 
ATOM      2  C2' 847 d   1      42.441  -4.410  32.124  0.00  0.00    -0.060 A 
ATOM      3  C3' 847 d   1      42.139  -4.626  33.490  0.00  0.00    -0.041 A 
ATOM      4  C4' 847 d   1      42.444  -3.637  34.376  0.00  0.00    -0.056 A 
ATOM      5  C5' 847 d   1      43.016  -2.487  33.949  0.00  0.00     0.045 A 
ATOM      6  C6' 847 d   1      43.319  -2.226  32.626  0.00  0.00     0.097 A 
ATOM      7 BR5' 847 d   1      43.492  -1.344  35.414  0.00  0.00    -0.048 Br
ATOM      8  H9  847 d   1      42.212  -5.192  31.409  0.00  0.00     0.086 H 
ATOM      9  H13 847 d   1      42.227  -3.772  35.429  0.00  0.00     0.086 H 
ENDROOT
BRANCH   1  10
ATOM     10  C8  847 d   1      43.339  -2.982  30.291  0.00  0.00     0.142 A 
ATOM     11  N3  847 d   1      43.776  -1.847  29.824  0.00  0.00    -0.338 N 
ATOM     12  C4  847 d   1      43.978  -2.046  28.566  0.00  0.00     0.062 A 
ATOM     13  H8  847 d   1      43.928  -0.974  30.349  0.00  0.00     0.167 HD
ATOM     14  C3  847 d   1      44.435  -1.203  27.590  0.00  0.00    -0.054 A 
ATOM     15  C5  847 d   1      43.642  -3.325  28.329  0.00  0.00     0.086 A 
ATOM     16  C2  847 d   1      44.544  -1.756  26.298  0.00  0.00    -0.067 A 
ATOM     17  H2  847 d   1      44.697  -0.172  27.798  0.00  0.00     0.087 H 
ATOM     18  C1  847 d   1      44.198  -3.117  26.000  0.00  0.00     0.009 A 
ATOM     19  H1  847 d   1      44.905  -1.125  25.494  0.00  0.00     0.085 H 
ATOM     20  C6  847 d   1      43.728  -3.911  27.082  0.00  0.00    -0.039 A 
ATOM     21  H3  847 d   1      43.445  -4.947  26.932  0.00  0.00     0.088 H 
ATOM     22  N4  847 d   1      43.227  -3.955  29.407  0.00  0.00    -0.228 NA
BRANCH  18  23
ATOM     23  C7  847 d   1      44.322  -3.652  24.693  0.00  0.00     0.102 C 
ATOM     24  N2  847 d   1      44.754  -2.889  23.714  0.00  0.00    -0.385 N 
ATOM     25  H6  847 d   1      45.000  -1.906  23.898  0.00  0.00     0.157 HD
ATOM     26  H7  847 d   1      44.846  -3.274  22.763  0.00  0.00     0.157 HD
BRANCH  23  27
ATOM     27  N1  847 d   1      44.006  -4.908  24.464  0.00  0.00    -0.385 N 
ATOM     28  H4  847 d   1      44.096  -5.297  23.515  0.00  0.00     0.157 HD
ATOM     29  H5  847 d   1      43.669  -5.503  25.234  0.00  0.00     0.157 HD
ENDBRANCH  23  27
ENDBRANCH  18  23
ENDBRANCH   1  10
BRANCH   6  30
ATOM     30  O6' 847 d   1      43.869  -0.999  32.301  0.00  0.00    -0.358 OA
ATOM     31  H14 847 d   1      44.691  -0.889  32.764  0.00  0.00     0.217 HD
ENDBRANCH   6  30
BRANCH   3  32
ATOM     32  C31 847 d   1      41.462  -5.910  34.024  0.00  0.00     0.065 C 
ATOM     33  H10 847 d   1      41.809  -6.786  33.457  0.00  0.00     0.065 H 
BRANCH  32  34
ATOM     34  C32 847 d   1      39.957  -5.595  33.724  0.00  0.00     0.182 C 
ATOM     35  O33 847 d   1      39.412  -6.249  32.850  0.00  0.00    -0.647 OA
ATOM     36  O34 847 d   1      39.418  -4.702  34.370  0.00  0.00    -0.647 OA
ENDBRANCH  32  34
BRANCH  32  37
ATOM     37  C42 847 d   1      41.670  -6.213  35.623  0.00  0.00     0.032 C 
ATOM     38  H11 847 d   1      40.864  -6.899  35.922  0.00  0.00     0.051 H 
ATOM     39  H12 847 d   1      41.547  -5.253  36.145  0.00  0.00     0.051 H 
BRANCH  37  40
ATOM     40  C43 847 d   1      43.032  -6.850  36.151  0.00  0.00     0.173 C 
ATOM     41  O44 847 d   1      43.274  -8.018  35.928  0.00  0.00    -0.648 OA
ATOM     42  O45 847 d   1      43.816  -6.173  36.801  0.00  0.00    -0.648 OA
ENDBRANCH  37  40
ENDBRANCH  32  37
ENDBRANCH   3  32
TORSDOF 8
