REMARK  8 active torsions:
REMARK  status: ('A' for Active; 'I' for Inactive)
REMARK    1  A    between atoms: C1_1  and  C7_7 
REMARK    2  A    between atoms: C7_7  and  N1_8 
REMARK    3  A    between atoms: C8_12  and  C1'_13 
REMARK    4  A    between atoms: C3'_15  and  C31'_16 
REMARK    5  A    between atoms: C31'_16  and  C32'_17 
REMARK    6  A    between atoms: C31'_16  and  C42'_20 
REMARK    7  A    between atoms: C42'_20  and  C43'_21 
REMARK    8  A    between atoms: C6'_26  and  O6'_27 
ROOT
ATOM      1  C1' 847 d   1      43.163  -1.565  32.136  0.00  0.00     0.045 A 
ATOM      2  C2' 847 d   1      42.783  -2.628  32.954  0.00  0.00    -0.060 A 
ATOM      3  C3' 847 d   1      42.492  -2.503  34.322  0.00  0.00    -0.041 A 
ATOM      4  C4' 847 d   1      42.596  -1.229  34.907  0.00  0.00    -0.056 A 
ATOM      5  C5' 847 d   1      42.977  -0.083  34.137  0.00  0.00     0.045 A 
ATOM      6  C6' 847 d   1      43.252  -0.296  32.752  0.00  0.00     0.097 A 
ATOM      7 BR5' 847 d   1      43.084   1.746  34.927  0.00  0.00    -0.048 Br
ATOM      8  H9  847 d   1      42.708  -3.612  32.506  0.00  0.00     0.086 H 
ATOM      9  H13 847 d   1      42.383  -1.111  35.963  0.00  0.00     0.086 H 
ENDROOT
BRANCH   1  10
ATOM     10  C8  847 d   1      43.429  -1.770  30.765  0.00  0.00     0.142 A 
ATOM     11  N3  847 d   1      43.854  -0.814  30.008  0.00  0.00    -0.338 N 
ATOM     12  C4  847 d   1      43.989  -1.319  28.837  0.00  0.00     0.062 A 
ATOM     13  H8  847 d   1      44.046   0.158  30.288  0.00  0.00     0.167 HD
ATOM     14  C3  847 d   1      44.407  -0.728  27.681  0.00  0.00    -0.054 A 
ATOM     15  C5  847 d   1      43.629  -2.603  28.924  0.00  0.00     0.086 A 
ATOM     16  C2  847 d   1      44.454  -1.542  26.540  0.00  0.00    -0.067 A 
ATOM     17  H2  847 d   1      44.689   0.318  27.646  0.00  0.00     0.087 H 
ATOM     18  C1  847 d   1      44.089  -2.916  26.563  0.00  0.00     0.009 A 
ATOM     19  H1  847 d   1      44.782  -1.106  25.603  0.00  0.00     0.085 H 
ATOM     20  C6  847 d   1      43.662  -3.456  27.812  0.00  0.00    -0.039 A 
ATOM     21  H3  847 d   1      43.371  -4.497  27.899  0.00  0.00     0.088 H 
ATOM     22  N4  847 d   1      43.267  -2.936  30.154  0.00  0.00    -0.228 NA
BRANCH  18  23
ATOM     23  C7  847 d   1      44.161  -3.676  25.389  0.00  0.00     0.102 C 
ATOM     24  N2  847 d   1      44.347  -3.068  24.228  0.00  0.00    -0.385 N 
ATOM     25  H6  847 d   1      44.439  -2.043  24.192  0.00  0.00     0.157 HD
ATOM     26  H7  847 d   1      44.399  -3.620  23.360  0.00  0.00     0.157 HD
BRANCH  23  27
ATOM     27  N1  847 d   1      44.041  -4.979  25.456  0.00  0.00    -0.385 N 
ATOM     28  H4  847 d   1      44.093  -5.546  24.598  0.00  0.00     0.157 HD
ATOM     29  H5  847 d   1      43.895  -5.437  26.367  0.00  0.00     0.157 HD
ENDBRANCH  23  27
ENDBRANCH  18  23
ENDBRANCH   1  10
BRANCH   6  30
ATOM     30  O6' 847 d   1      43.603   0.801  32.005  0.00  0.00    -0.358 OA
ATOM     31  H14 847 d   1      43.760   0.534  31.107  0.00  0.00     0.217 HD
ENDBRANCH   6  30
BRANCH   3  32
ATOM     32  C31 847 d   1      42.010  -3.834  35.012  0.00  0.00     0.065 C 
ATOM     33  H10 847 d   1      42.686  -4.636  34.681  0.00  0.00     0.065 H 
BRANCH  32  34
ATOM     34  C32 847 d   1      40.572  -4.141  34.425  0.00  0.00     0.182 C 
ATOM     35  O33 847 d   1      40.414  -5.168  33.787  0.00  0.00    -0.647 OA
ATOM     36  O34 847 d   1      39.664  -3.351  34.605  0.00  0.00    -0.647 OA
ENDBRANCH  32  34
BRANCH  32  37
ATOM     37  C42 847 d   1      42.061  -3.853  36.621  0.00  0.00     0.032 C 
ATOM     38  H11 847 d   1      41.040  -4.036  36.987  0.00  0.00     0.051 H 
ATOM     39  H12 847 d   1      42.399  -2.862  36.957  0.00  0.00     0.051 H 
BRANCH  37  40
ATOM     40  C43 847 d   1      43.016  -4.942  37.284  0.00  0.00     0.173 C 
ATOM     41  O44 847 d   1      43.343  -5.955  36.689  0.00  0.00    -0.648 OA
ATOM     42  O45 847 d   1      43.430  -4.754  38.417  0.00  0.00    -0.648 OA
ENDBRANCH  37  40
ENDBRANCH  32  37
ENDBRANCH   3  32
TORSDOF 8
