REMARK  8 active torsions:
REMARK  status: ('A' for Active; 'I' for Inactive)
REMARK    1  A    between atoms: C1_1  and  C7_7 
REMARK    2  A    between atoms: C7_7  and  N1_8 
REMARK    3  A    between atoms: C8_12  and  C1'_13 
REMARK    4  A    between atoms: C3'_15  and  C31'_16 
REMARK    5  A    between atoms: C31'_16  and  C32'_17 
REMARK    6  A    between atoms: C31'_16  and  C42'_20 
REMARK    7  A    between atoms: C42'_20  and  C43'_21 
REMARK    8  A    between atoms: C6'_26  and  O6'_27 
ROOT
ATOM      1  C1' 847 d   1      42.977  -1.716  31.974  0.00  0.00     0.045 A 
ATOM      2  C2' 847 d   1      42.569  -2.810  32.754  0.00  0.00    -0.060 A 
ATOM      3  C3' 847 d   1      42.306  -2.717  34.129  0.00  0.00    -0.041 A 
ATOM      4  C4' 847 d   1      42.469  -1.470  34.746  0.00  0.00    -0.056 A 
ATOM      5  C5' 847 d   1      42.880  -0.380  33.998  0.00  0.00     0.045 A 
ATOM      6  C6' 847 d   1      43.130  -0.492  32.639  0.00  0.00     0.097 A 
ATOM      7 BR5' 847 d   1      43.059   1.326  34.898  0.00  0.00    -0.048 Br
ATOM      8  H9  847 d   1      42.452  -3.773  32.270  0.00  0.00     0.086 H 
ATOM      9  H13 847 d   1      42.274  -1.359  35.806  0.00  0.00     0.086 H 
ENDROOT
BRANCH   1  10
ATOM     10  C8  847 d   1      43.231  -1.845  30.592  0.00  0.00     0.142 A 
ATOM     11  N3  847 d   1      43.699  -0.863  29.891  0.00  0.00    -0.338 N 
ATOM     12  C4  847 d   1      43.883  -1.330  28.704  0.00  0.00     0.062 A 
ATOM     13  H8  847 d   1      43.886   0.096  30.216  0.00  0.00     0.167 HD
ATOM     14  C3  847 d   1      44.355  -0.717  27.569  0.00  0.00    -0.054 A 
ATOM     15  C5  847 d   1      43.501  -2.614  28.733  0.00  0.00     0.086 A 
ATOM     16  C2  847 d   1      44.430  -1.511  26.421  0.00  0.00    -0.067 A 
ATOM     17  H2  847 d   1      44.653   0.325  27.564  0.00  0.00     0.087 H 
ATOM     18  C1  847 d   1      44.040  -2.875  26.408  0.00  0.00     0.009 A 
ATOM     19  H1  847 d   1      44.801  -1.067  25.504  0.00  0.00     0.085 H 
ATOM     20  C6  847 d   1      43.554  -3.437  27.624  0.00  0.00    -0.039 A 
ATOM     21  H3  847 d   1      43.237  -4.472  27.677  0.00  0.00     0.088 H 
ATOM     22  N4  847 d   1      43.070  -2.985  29.925  0.00  0.00    -0.228 NA
BRANCH  18  23
ATOM     23  C7  847 d   1      44.134  -3.639  25.230  0.00  0.00     0.102 C 
ATOM     24  N2  847 d   1      44.418  -3.042  24.072  0.00  0.00    -0.385 N 
ATOM     25  H6  847 d   1      44.564  -2.023  24.040  0.00  0.00     0.157 HD
ATOM     26  H7  847 d   1      44.491  -3.600  23.209  0.00  0.00     0.157 HD
BRANCH  23  27
ATOM     27  N1  847 d   1      43.945  -4.928  25.293  0.00  0.00    -0.385 N 
ATOM     28  H4  847 d   1      44.011  -5.500  24.439  0.00  0.00     0.157 HD
ATOM     29  H5  847 d   1      43.730  -5.373  26.197  0.00  0.00     0.157 HD
ENDBRANCH  23  27
ENDBRANCH  18  23
ENDBRANCH   1  10
BRANCH   6  30
ATOM     30  O6' 847 d   1      43.517   0.636  31.959  0.00  0.00    -0.358 OA
ATOM     31  H14 847 d   1      43.654   0.421  31.044  0.00  0.00     0.217 HD
ENDBRANCH   6  30
BRANCH   3  32
ATOM     32  C31 847 d   1      41.810  -4.015  34.870  0.00  0.00     0.065 C 
ATOM     33  H10 847 d   1      42.433  -4.857  34.533  0.00  0.00     0.065 H 
BRANCH  32  34
ATOM     34  C32 847 d   1      40.364  -4.239  34.338  0.00  0.00     0.182 C 
ATOM     35  O33 847 d   1      40.127  -5.287  33.778  0.00  0.00    -0.647 OA
ATOM     36  O34 847 d   1      39.533  -3.367  34.486  0.00  0.00    -0.647 OA
ENDBRANCH  32  34
BRANCH  32  37
ATOM     37  C42 847 d   1      41.939  -3.982  36.510  0.00  0.00     0.032 C 
ATOM     38  H11 847 d   1      40.935  -4.151  36.927  0.00  0.00     0.051 H 
ATOM     39  H12 847 d   1      42.292  -2.981  36.797  0.00  0.00     0.051 H 
BRANCH  37  40
ATOM     40  C43 847 d   1      42.920  -5.046  37.168  0.00  0.00     0.173 C 
ATOM     41  O44 847 d   1      43.270  -6.044  36.567  0.00  0.00    -0.648 OA
ATOM     42  O45 847 d   1      43.339  -4.851  38.296  0.00  0.00    -0.648 OA
ENDBRANCH  37  40
ENDBRANCH  32  37
ENDBRANCH   3  32
TORSDOF 8
