REMARK  8 active torsions:
REMARK  status: ('A' for Active; 'I' for Inactive)
REMARK    1  A    between atoms: C1_1  and  C7_7 
REMARK    2  A    between atoms: C7_7  and  N1_8 
REMARK    3  A    between atoms: C8_12  and  C1'_13 
REMARK    4  A    between atoms: C3'_15  and  C31'_16 
REMARK    5  A    between atoms: C31'_16  and  C32'_17 
REMARK    6  A    between atoms: C31'_16  and  C42'_20 
REMARK    7  A    between atoms: C42'_20  and  C43'_21 
REMARK    8  A    between atoms: C6'_26  and  O6'_27 
ROOT
ATOM      1  C1' 847 d   1      43.128  -1.792  31.821  0.00  0.00     0.045 A 
ATOM      2  C2' 847 d   1      42.555  -2.828  32.599  0.00  0.00    -0.060 A 
ATOM      3  C3' 847 d   1      42.257  -2.682  33.982  0.00  0.00    -0.041 A 
ATOM      4  C4' 847 d   1      42.553  -1.451  34.587  0.00  0.00    -0.056 A 
ATOM      5  C5' 847 d   1      43.124  -0.393  33.871  0.00  0.00     0.045 A 
ATOM      6  C6' 847 d   1      43.397  -0.570  32.510  0.00  0.00     0.097 A 
ATOM      7 BR5' 847 d   1      43.594   1.311  34.746  0.00  0.00    -0.048 Br
ATOM      8  H9  847 d   1      42.334  -3.774  32.119  0.00  0.00     0.086 H 
ATOM      9  H13 847 d   1      42.333  -1.316  35.640  0.00  0.00     0.086 H 
ENDROOT
BRANCH   1  10
ATOM     10  C8  847 d   1      43.440  -1.936  30.444  0.00  0.00     0.142 A 
ATOM     11  N3  847 d   1      44.050  -0.999  29.774  0.00  0.00    -0.338 N 
ATOM     12  C4  847 d   1      44.186  -1.439  28.570  0.00  0.00     0.062 A 
ATOM     13  H8  847 d   1      44.362  -0.086  30.136  0.00  0.00     0.167 HD
ATOM     14  C3  847 d   1      44.758  -0.846  27.475  0.00  0.00    -0.054 A 
ATOM     15  C5  847 d   1      43.644  -2.658  28.551  0.00  0.00     0.086 A 
ATOM     16  C2  847 d   1      44.767  -1.591  26.292  0.00  0.00    -0.067 A 
ATOM     17  H2  847 d   1      45.182   0.150  27.524  0.00  0.00     0.087 H 
ATOM     18  C1  847 d   1      44.204  -2.907  26.202  0.00  0.00     0.009 A 
ATOM     19  H1  847 d   1      45.218  -1.156  25.407  0.00  0.00     0.085 H 
ATOM     20  C6  847 d   1      43.626  -3.441  27.398  0.00  0.00    -0.039 A 
ATOM     21  H3  847 d   1      43.185  -4.431  27.407  0.00  0.00     0.088 H 
ATOM     22  N4  847 d   1      43.144  -3.023  29.727  0.00  0.00    -0.228 NA
BRANCH  18  23
ATOM     23  C7  847 d   1      44.229  -3.614  24.981  0.00  0.00     0.102 C 
ATOM     24  N2  847 d   1      44.717  -3.040  23.900  0.00  0.00    -0.385 N 
ATOM     25  H6  847 d   1      45.065  -2.072  23.944  0.00  0.00     0.157 HD
ATOM     26  H7  847 d   1      44.750  -3.560  23.011  0.00  0.00     0.157 HD
BRANCH  23  27
ATOM     27  N1  847 d   1      43.785  -4.848  24.926  0.00  0.00    -0.385 N 
ATOM     28  H4  847 d   1      43.804  -5.363  24.034  0.00  0.00     0.157 HD
ATOM     29  H5  847 d   1      43.418  -5.301  25.775  0.00  0.00     0.157 HD
ENDBRANCH  23  27
ENDBRANCH  18  23
ENDBRANCH   1  10
BRANCH   6  30
ATOM     30  O6' 847 d   1      43.946   0.501  31.850  0.00  0.00    -0.358 OA
ATOM     31  H14 847 d   1      44.775   0.729  32.254  0.00  0.00     0.217 HD
ENDBRANCH   6  30
BRANCH   3  32
ATOM     32  C31 847 d   1      41.592  -3.865  34.784  0.00  0.00     0.065 C 
ATOM     33  H10 847 d   1      42.062  -4.809  34.470  0.00  0.00     0.065 H 
BRANCH  32  34
ATOM     34  C32 847 d   1      40.090  -3.862  34.278  0.00  0.00     0.182 C 
ATOM     35  O33 847 d   1      39.760  -4.755  33.516  0.00  0.00    -0.647 OA
ATOM     36  O34 847 d   1      39.324  -2.987  34.632  0.00  0.00    -0.647 OA
ENDBRANCH  32  34
BRANCH  32  37
ATOM     37  C42 847 d   1      41.790  -3.771  36.441  0.00  0.00     0.032 C 
ATOM     38  H11 847 d   1      40.797  -3.911  36.893  0.00  0.00     0.051 H 
ATOM     39  H12 847 d   1      42.156  -2.758  36.666  0.00  0.00     0.051 H 
BRANCH  37  40
ATOM     40  C43 847 d   1      42.786  -4.803  37.162  0.00  0.00     0.173 C 
ATOM     41  O44 847 d   1      43.087  -5.865  36.652  0.00  0.00    -0.648 OA
ATOM     42  O45 847 d   1      43.260  -4.519  38.254  0.00  0.00    -0.648 OA
ENDBRANCH  37  40
ENDBRANCH  32  37
ENDBRANCH   3  32
TORSDOF 8
