REMARK  4 active torsions:
REMARK  status: ('A' for Active; 'I' for Inactive)
REMARK    1  A    between atoms: C1_1  and  C7_7 
REMARK    2  A    between atoms: C7_7  and  N1_8 
REMARK    3  A    between atoms: C8_12  and  C1'_13 
REMARK    4  A    between atoms: C6'_18  and  O6'_19 
ROOT
ATOM      1  C1  801 d   1      44.281  -3.123  26.062  0.00  0.00     0.009 A 
ATOM      2  C2  801 d   1      44.663  -1.791  26.349  0.00  0.00    -0.067 A 
ATOM      3  C3  801 d   1      44.553  -1.279  27.662  0.00  0.00    -0.054 A 
ATOM      4  C4  801 d   1      44.071  -2.118  28.636  0.00  0.00     0.062 A 
ATOM      5  C5  801 d   1      43.693  -3.385  28.373  0.00  0.00     0.086 A 
ATOM      6  C6  801 d   1      43.782  -3.916  27.104  0.00  0.00    -0.039 A 
ATOM      7  N3  801 d   1      43.866  -1.953  29.887  0.00  0.00    -0.337 N 
ATOM      8  N4  801 d   1      43.257  -4.030  29.424  0.00  0.00    -0.227 NA
ATOM      9  C8  801 d   1      43.397  -3.084  30.340  0.00  0.00     0.160 A 
ATOM     10  H1  801 d   1      45.043  -1.158  25.555  0.00  0.00     0.085 H 
ATOM     11  H2  801 d   1      44.839  -0.259  27.892  0.00  0.00     0.087 H 
ATOM     12  H3  801 d   1      43.469  -4.936  26.914  0.00  0.00     0.088 H 
ATOM     13  H8  801 d   1      44.037  -1.095  30.431  0.00  0.00     0.167 HD
ENDROOT
BRANCH   9  14
ATOM     14  C1' 801 d   1      43.130  -3.232  31.712  0.00  0.00     0.135 A 
ATOM     15  N2' 801 d   1      43.128  -2.125  32.452  0.00  0.00    -0.254 NA
ATOM     16  C3' 801 d   1      42.899  -2.136  33.753  0.00  0.00     0.003 A 
ATOM     17  C4' 801 d   1      42.643  -3.332  34.418  0.00  0.00    -0.063 A 
ATOM     18  H9  801 d   1      42.910  -1.205  34.308  0.00  0.00     0.114 H 
ATOM     19  C5' 801 d   1      42.636  -4.516  33.692  0.00  0.00    -0.047 A 
ATOM     20  H10 801 d   1      42.452  -3.339  35.485  0.00  0.00     0.085 H 
ATOM     21  C6' 801 d   1      42.878  -4.492  32.322  0.00  0.00     0.098 A 
ATOM     22  H11 801 d   1      42.442  -5.458  34.192  0.00  0.00     0.087 H 
BRANCH  21  23
ATOM     23  O6' 801 d   1      42.855  -5.720  31.661  0.00  0.00    -0.358 OA
ATOM     24  H12 801 d   1      43.032  -5.585  30.737  0.00  0.00     0.217 HD
ENDBRANCH  21  23
ENDBRANCH   9  14
BRANCH   1  25
ATOM     25  C7  801 d   1      44.391  -3.667  24.772  0.00  0.00     0.102 C 
ATOM     26  N2  801 d   1      44.779  -2.901  23.785  0.00  0.00    -0.385 N 
ATOM     27  H6  801 d   1      44.996  -1.909  23.957  0.00  0.00     0.157 HD
ATOM     28  H7  801 d   1      44.868  -3.290  22.835  0.00  0.00     0.157 HD
BRANCH  25  29
ATOM     29  N1  801 d   1      44.111  -4.934  24.568  0.00  0.00    -0.385 N 
ATOM     30  H4  801 d   1      44.192  -5.333  23.622  0.00  0.00     0.157 HD
ATOM     31  H5  801 d   1      43.811  -5.528  25.354  0.00  0.00     0.157 HD
ENDBRANCH  25  29
ENDBRANCH   1  25
TORSDOF 4
