REMARK  4 active torsions:
REMARK  status: ('A' for Active; 'I' for Inactive)
REMARK    1  A    between atoms: C1_1  and  C7_7 
REMARK    2  A    between atoms: C7_7  and  N1_8 
REMARK    3  A    between atoms: C8_12  and  C1'_13 
REMARK    4  A    between atoms: C6'_18  and  O6'_19 
ROOT
ATOM      1  C1  801 d   1      43.981  -3.023  26.216  0.00  0.00     0.009 A 
ATOM      2  C2  801 d   1      44.511  -1.714  26.264  0.00  0.00    -0.067 A 
ATOM      3  C3  801 d   1      44.486  -0.962  27.413  0.00  0.00    -0.054 A 
ATOM      4  C4  801 d   1      43.931  -1.530  28.524  0.00  0.00     0.062 A 
ATOM      5  C5  801 d   1      43.397  -2.774  28.520  0.00  0.00     0.086 A 
ATOM      6  C6  801 d   1      43.405  -3.560  27.367  0.00  0.00    -0.039 A 
ATOM      7  N3  801 d   1      43.778  -1.092  29.722  0.00  0.00    -0.337 N 
ATOM      8  N4  801 d   1      42.921  -3.112  29.700  0.00  0.00    -0.227 NA
ATOM      9  C8  801 d   1      43.186  -2.021  30.393  0.00  0.00     0.160 A 
ATOM     10  H1  801 d   1      44.950  -1.291  25.368  0.00  0.00     0.085 H 
ATOM     11  H2  801 d   1      44.891   0.043  27.437  0.00  0.00     0.087 H 
ATOM     12  H3  801 d   1      42.977  -4.556  27.366  0.00  0.00     0.088 H 
ATOM     13  H8  801 d   1      44.073  -0.172  30.079  0.00  0.00     0.167 HD
ENDROOT
BRANCH   9  14
ATOM     14  C1' 801 d   1      42.983  -1.894  31.753  0.00  0.00     0.135 A 
ATOM     15  N2' 801 d   1      42.690  -2.980  32.436  0.00  0.00    -0.254 NA
ATOM     16  C3' 801 d   1      42.489  -2.990  33.738  0.00  0.00     0.003 A 
ATOM     17  C4' 801 d   1      42.570  -1.794  34.443  0.00  0.00    -0.063 A 
ATOM     18  H9  801 d   1      42.264  -3.917  34.252  0.00  0.00     0.114 H 
ATOM     19  C5' 801 d   1      42.878  -0.615  33.767  0.00  0.00    -0.047 A 
ATOM     20  H10 801 d   1      42.395  -1.779  35.513  0.00  0.00     0.085 H 
ATOM     21  C6' 801 d   1      43.101  -0.660  32.402  0.00  0.00     0.098 A 
ATOM     22  H11 801 d   1      42.942   0.325  34.303  0.00  0.00     0.087 H 
BRANCH  21  23
ATOM     23  O6' 801 d   1      43.418   0.485  31.702  0.00  0.00    -0.358 OA
ATOM     24  H12 801 d   1      44.222   0.854  32.048  0.00  0.00     0.217 HD
ENDBRANCH  21  23
ENDBRANCH   9  14
BRANCH   1  25
ATOM     25  C7  801 d   1      44.054  -3.769  25.035  0.00  0.00     0.102 C 
ATOM     26  N2  801 d   1      44.423  -3.135  23.935  0.00  0.00    -0.385 N 
ATOM     27  H6  801 d   1      44.637  -2.128  23.968  0.00  0.00     0.157 HD
ATOM     28  H7  801 d   1      44.496  -3.648  23.045  0.00  0.00     0.157 HD
BRANCH  25  29
ATOM     29  N1  801 d   1      43.767  -5.059  25.053  0.00  0.00    -0.385 N 
ATOM     30  H4  801 d   1      43.820  -5.611  24.185  0.00  0.00     0.157 HD
ATOM     31  H5  801 d   1      43.490  -5.513  25.935  0.00  0.00     0.157 HD
ENDBRANCH  25  29
ENDBRANCH   1  25
TORSDOF 4
