REMARK  8 active torsions:
REMARK  status: ('A' for Active; 'I' for Inactive)
REMARK    1  A    between atoms: C1_1  and  C7_7 
REMARK    2  A    between atoms: C7_7  and  N1_8 
REMARK    3  A    between atoms: C8_12  and  C1'_13 
REMARK    4  A    between atoms: C3'_15  and  C31'_16 
REMARK    5  A    between atoms: C31'_16  and  C32'_17 
REMARK    6  A    between atoms: C32'_17  and  N33'_18 
REMARK    7  A    between atoms: C5'_20  and  C1''_23 
REMARK    8  A    between atoms: C6'_21  and  O6'_22 
ROOT
ATOM      1  C1' 653 d   1      43.462  -2.056  31.827  0.00  0.00     0.044 A 
ATOM      2  C2' 653 d   1      43.070  -3.204  32.518  0.00  0.00    -0.060 A 
ATOM      3  C3' 653 d   1      42.782  -3.186  33.882  0.00  0.00    -0.055 A 
ATOM      4  C4' 653 d   1      42.887  -2.010  34.601  0.00  0.00    -0.063 A 
ATOM      5  C5' 653 d   1      43.272  -0.837  33.994  0.00  0.00     0.009 A 
ATOM      6  C6' 653 d   1      43.550  -0.871  32.603  0.00  0.00     0.090 A 
ATOM      7  H9  653 d   1      42.987  -4.139  31.977  0.00  0.00     0.086 H 
ATOM      8  H17 653 d   1      42.662  -2.012  35.661  0.00  0.00     0.085 H 
ENDROOT
BRANCH   1   9
ATOM      9  C8  653 d   1      43.743  -2.134  30.431  0.00  0.00     0.142 A 
ATOM     10  N3  653 d   1      44.148  -1.120  29.762  0.00  0.00    -0.338 N 
ATOM     11  C4  653 d   1      44.322  -1.555  28.558  0.00  0.00     0.062 A 
ATOM     12  H8  653 d   1      44.302  -0.163  30.109  0.00  0.00     0.167 HD
ATOM     13  C3  653 d   1      44.747  -0.889  27.443  0.00  0.00    -0.054 A 
ATOM     14  C5  653 d   1      44.001  -2.848  28.546  0.00  0.00     0.086 A 
ATOM     15  C2  653 d   1      44.827  -1.629  26.269  0.00  0.00    -0.067 A 
ATOM     16  H2  653 d   1      45.008   0.163  27.473  0.00  0.00     0.087 H 
ATOM     17  C1  653 d   1      44.498  -2.999  26.178  0.00  0.00     0.009 A 
ATOM     18  H1  653 d   1      45.162  -1.124  25.370  0.00  0.00     0.085 H 
ATOM     19  C6  653 d   1      44.066  -3.635  27.392  0.00  0.00    -0.039 A 
ATOM     20  H3  653 d   1      43.800  -4.686  27.412  0.00  0.00     0.088 H 
ATOM     21  N4  653 d   1      43.622  -3.262  29.735  0.00  0.00    -0.228 NA
BRANCH  17  22
ATOM     22  C7  653 d   1      44.597  -3.656  24.901  0.00  0.00     0.102 C 
ATOM     23  N2  653 d   1      44.942  -2.951  23.829  0.00  0.00    -0.385 N 
ATOM     24  H6  653 d   1      45.154  -1.947  23.919  0.00  0.00     0.157 HD
ATOM     25  H7  653 d   1      44.998  -3.409  22.908  0.00  0.00     0.157 HD
BRANCH  22  26
ATOM     26  N1  653 d   1      44.326  -4.942  24.786  0.00  0.00    -0.385 N 
ATOM     27  H4  653 d   1      44.400  -5.404  23.868  0.00  0.00     0.157 HD
ATOM     28  H5  653 d   1      44.041  -5.484  25.614  0.00  0.00     0.157 HD
ENDBRANCH  22  26
ENDBRANCH  17  22
ENDBRANCH   1   9
BRANCH   6  29
ATOM     29  O6' 653 d   1      43.887   0.313  32.000  0.00  0.00    -0.359 OA
ATOM     30  H18 653 d   1      44.671   0.662  32.407  0.00  0.00     0.217 HD
ENDBRANCH   6  29
BRANCH   3  31
ATOM     31  C31 653 d   1      42.301  -4.165  34.797  0.00  0.00    -0.019 C 
ATOM     32  H10 653 d   1      42.436  -3.790  35.822  0.00  0.00     0.042 H 
ATOM     33  H11 653 d   1      42.882  -5.090  34.666  0.00  0.00     0.042 H 
BRANCH  31  34
ATOM     34  C32 653 d   1      40.818  -4.477  34.576  0.00  0.00     0.083 C 
ATOM     35  H12 653 d   1      40.592  -4.458  33.500  0.00  0.00     0.075 H 
ATOM     36  H13 653 d   1      40.201  -3.727  35.093  0.00  0.00     0.075 H 
BRANCH  34  37
ATOM     37  N33 653 d   1      40.526  -5.835  35.127  0.00  0.00    -0.079 N 
ATOM     38  H14 653 d   1      39.552  -6.052  34.987  0.00  0.00     0.274 HD
ATOM     39  H15 653 d   1      40.735  -5.850  36.113  0.00  0.00     0.274 HD
ATOM     40  H16 653 d   1      41.094  -6.519  34.653  0.00  0.00     0.274 HD
ENDBRANCH  34  37
ENDBRANCH  31  34
ENDBRANCH   3  31
BRANCH   5  41
ATOM     41  C1' 653 d   1      43.407   0.304  34.774  0.00  0.00    -0.023 A 
ATOM     42  C2' 653 d   1      44.616   1.033  34.803  0.00  0.00    -0.072 A 
ATOM     43  C3' 653 d   1      44.779   2.186  35.595  0.00  0.00    -0.082 A 
ATOM     44  H19 653 d   1      45.447   0.694  34.195  0.00  0.00     0.084 H 
ATOM     45  C4' 653 d   1      43.731   2.646  36.385  0.00  0.00    -0.083 A 
ATOM     46  H20 653 d   1      45.724   2.717  35.589  0.00  0.00     0.083 H 
ATOM     47  C5' 653 d   1      42.520   1.947  36.377  0.00  0.00    -0.082 A 
ATOM     48  H21 653 d   1      43.851   3.532  36.997  0.00  0.00     0.083 H 
ATOM     49  C6' 653 d   1      42.360   0.788  35.581  0.00  0.00    -0.072 A 
ATOM     50  H22 653 d   1      41.695   2.297  36.987  0.00  0.00     0.083 H 
ATOM     51  H23 653 d   1      41.412   0.262  35.593  0.00  0.00     0.084 H 
ENDBRANCH   5  41
TORSDOF 8
