REMARK  5 active torsions:
REMARK  status: ('A' for Active; 'I' for Inactive)
REMARK    1  A    between atoms: C1_1  and  C7_7 
REMARK    2  A    between atoms: C7_7  and  N1_8 
REMARK    3  A    between atoms: C8_12  and  C1'_13 
REMARK    4  A    between atoms: C5'_17  and  C1''_20 
REMARK    5  A    between atoms: C6'_18  and  O6'_19 
ROOT
ATOM      1  C1' 780 d   1      43.251  -2.068  31.533  0.00  0.00     0.044 A 
ATOM      2  C2' 780 d   1      42.899  -3.218  32.242  0.00  0.00    -0.067 A 
ATOM      3  C3' 780 d   1      42.665  -3.181  33.607  0.00  0.00    -0.081 A 
ATOM      4  C4' 780 d   1      42.771  -2.006  34.310  0.00  0.00    -0.070 A 
ATOM      5  C5' 780 d   1      43.118  -0.812  33.687  0.00  0.00     0.008 A 
ATOM      6  C6' 780 d   1      43.356  -0.854  32.284  0.00  0.00     0.090 A 
ATOM      7  H9  780 d   1      42.807  -4.160  31.713  0.00  0.00     0.085 H 
ATOM      8  H10 780 d   1      42.394  -4.093  34.128  0.00  0.00     0.083 H 
ATOM      9  H11 780 d   1      42.580  -2.009  35.377  0.00  0.00     0.085 H 
ENDROOT
BRANCH   1  10
ATOM     10  C8  780 d   1      43.487  -2.131  30.134  0.00  0.00     0.142 A 
ATOM     11  N3  780 d   1      43.995  -1.136  29.488  0.00  0.00    -0.338 N 
ATOM     12  C4  780 d   1      44.165  -1.568  28.282  0.00  0.00     0.062 A 
ATOM     13  H8  780 d   1      44.217  -0.199  29.855  0.00  0.00     0.167 HD
ATOM     14  C3  780 d   1      44.655  -0.929  27.186  0.00  0.00    -0.054 A 
ATOM     15  C5  780 d   1      43.743  -2.833  28.254  0.00  0.00     0.086 A 
ATOM     16  C2  780 d   1      44.705  -1.671  25.998  0.00  0.00    -0.067 A 
ATOM     17  H2  780 d   1      44.990   0.101  27.229  0.00  0.00     0.087 H 
ATOM     18  C1  780 d   1      44.274  -3.025  25.901  0.00  0.00     0.009 A 
ATOM     19  H1  780 d   1      45.092  -1.190  25.107  0.00  0.00     0.085 H 
ATOM     20  C6  780 d   1      43.771  -3.616  27.095  0.00  0.00    -0.039 A 
ATOM     21  H3  780 d   1      43.420  -4.642  27.105  0.00  0.00     0.088 H 
ATOM     22  N4  780 d   1      43.295  -3.238  29.433  0.00  0.00    -0.228 NA
BRANCH  18  23
ATOM     23  C7  780 d   1      44.349  -3.730  24.664  0.00  0.00     0.102 C 
ATOM     24  N2  780 d   1      44.739  -3.074  23.599  0.00  0.00    -0.385 N 
ATOM     25  H6  780 d   1      44.983  -2.076  23.670  0.00  0.00     0.157 HD
ATOM     26  H7  780 d   1      44.801  -3.556  22.691  0.00  0.00     0.157 HD
BRANCH  23  27
ATOM     27  N1  780 d   1      44.034  -5.009  24.582  0.00  0.00    -0.385 N 
ATOM     28  H4  780 d   1      44.096  -5.498  23.677  0.00  0.00     0.157 HD
ATOM     29  H5  780 d   1      43.726  -5.519  25.423  0.00  0.00     0.157 HD
ENDBRANCH  23  27
ENDBRANCH  18  23
ENDBRANCH   1  10
BRANCH   6  30
ATOM     30  O6' 780 d   1      43.696   0.317  31.622  0.00  0.00    -0.359 OA
ATOM     31  H12 780 d   1      44.500   0.665  31.989  0.00  0.00     0.217 HD
ENDBRANCH   6  30
BRANCH   5  32
ATOM     32  C1' 780 d   1      43.217   0.359  34.467  0.00  0.00    -0.023 A 
ATOM     33  C2' 780 d   1      44.394   1.126  34.549  0.00  0.00    -0.072 A 
ATOM     34  C3' 780 d   1      44.471   2.286  35.331  0.00  0.00    -0.082 A 
ATOM     35  H13 780 d   1      45.267   0.810  33.990  0.00  0.00     0.084 H 
ATOM     36  C4' 780 d   1      43.365   2.709  36.056  0.00  0.00    -0.083 A 
ATOM     37  H14 780 d   1      45.394   2.853  35.370  0.00  0.00     0.083 H 
ATOM     38  C5' 780 d   1      42.191   1.969  35.993  0.00  0.00    -0.082 A 
ATOM     39  H15 780 d   1      43.417   3.605  36.663  0.00  0.00     0.083 H 
ATOM     40  C6' 780 d   1      42.123   0.819  35.214  0.00  0.00    -0.072 A 
ATOM     41  H16 780 d   1      41.322   2.290  36.555  0.00  0.00     0.083 H 
ATOM     42  H17 780 d   1      41.195   0.260  35.183  0.00  0.00     0.084 H 
ENDBRANCH   5  32
TORSDOF 5
