REMARK  5 active torsions:
REMARK  status: ('A' for Active; 'I' for Inactive)
REMARK    1  A    between atoms: C1_1  and  C7_7 
REMARK    2  A    between atoms: C7_7  and  N1_8 
REMARK    3  A    between atoms: C8_12  and  C1'_13 
REMARK    4  A    between atoms: C5'_17  and  C1''_20 
REMARK    5  A    between atoms: C6'_18  and  O6'_19 
ROOT
ATOM      1  C1' 780 d   1      43.355  -1.675  32.063  0.00  0.00     0.044 A 
ATOM      2  C2' 780 d   1      43.042  -2.808  32.814  0.00  0.00    -0.067 A 
ATOM      3  C3' 780 d   1      42.695  -2.725  34.150  0.00  0.00    -0.081 A 
ATOM      4  C4' 780 d   1      42.649  -1.491  34.767  0.00  0.00    -0.070 A 
ATOM      5  C5' 780 d   1      42.952  -0.307  34.077  0.00  0.00     0.008 A 
ATOM      6  C6' 780 d   1      43.302  -0.446  32.715  0.00  0.00     0.090 A 
ATOM      7  H9  780 d   1      43.072  -3.781  32.337  0.00  0.00     0.085 H 
ATOM      8  H10 780 d   1      42.461  -3.623  34.709  0.00  0.00     0.083 H 
ATOM      9  H11 780 d   1      42.371  -1.435  35.813  0.00  0.00     0.085 H 
ENDROOT
BRANCH   1  10
ATOM     10  C8  780 d   1      43.699  -1.778  30.716  0.00  0.00     0.142 A 
ATOM     11  N3  780 d   1      44.190  -0.802  30.011  0.00  0.00    -0.338 N 
ATOM     12  C4  780 d   1      44.304  -1.304  28.823  0.00  0.00     0.062 A 
ATOM     13  H8  780 d   1      44.432   0.149  30.325  0.00  0.00     0.167 HD
ATOM     14  C3  780 d   1      44.778  -0.747  27.671  0.00  0.00    -0.054 A 
ATOM     15  C5  780 d   1      43.861  -2.568  28.875  0.00  0.00     0.086 A 
ATOM     16  C2  780 d   1      44.787  -1.564  26.524  0.00  0.00    -0.067 A 
ATOM     17  H2  780 d   1      45.131   0.277  27.640  0.00  0.00     0.087 H 
ATOM     18  C1  780 d   1      44.324  -2.917  26.531  0.00  0.00     0.009 A 
ATOM     19  H1  780 d   1      45.161  -1.149  25.595  0.00  0.00     0.085 H 
ATOM     20  C6  780 d   1      43.847  -3.419  27.768  0.00  0.00    -0.039 A 
ATOM     21  H3  780 d   1      43.481  -4.436  27.852  0.00  0.00     0.088 H 
ATOM     22  N4  780 d   1      43.464  -2.913  30.081  0.00  0.00    -0.228 NA
BRANCH  18  23
ATOM     23  C7  780 d   1      44.346  -3.697  25.368  0.00  0.00     0.102 C 
ATOM     24  N2  780 d   1      44.559  -3.104  24.217  0.00  0.00    -0.385 N 
ATOM     25  H6  780 d   1      44.712  -2.086  24.183  0.00  0.00     0.157 HD
ATOM     26  H7  780 d   1      44.573  -3.656  23.348  0.00  0.00     0.157 HD
BRANCH  23  27
ATOM     27  N1  780 d   1      44.150  -4.993  25.424  0.00  0.00    -0.385 N 
ATOM     28  H4  780 d   1      44.169  -5.554  24.561  0.00  0.00     0.157 HD
ATOM     29  H5  780 d   1      43.977  -5.449  26.331  0.00  0.00     0.157 HD
ENDBRANCH  23  27
ENDBRANCH  18  23
ENDBRANCH   1  10
BRANCH   6  30
ATOM     30  O6' 780 d   1      43.625   0.646  31.949  0.00  0.00    -0.359 OA
ATOM     31  H12 780 d   1      43.831   0.362  31.066  0.00  0.00     0.217 HD
ENDBRANCH   6  30
BRANCH   5  32
ATOM     32  C1' 780 d   1      42.891   0.928  34.750  0.00  0.00    -0.023 A 
ATOM     33  C2' 780 d   1      43.952   1.818  34.722  0.00  0.00    -0.072 A 
ATOM     34  C3' 780 d   1      43.930   3.026  35.378  0.00  0.00    -0.082 A 
ATOM     35  H13 780 d   1      44.838   1.550  34.158  0.00  0.00     0.084 H 
ATOM     36  C4' 780 d   1      42.816   3.389  36.103  0.00  0.00    -0.083 A 
ATOM     37  H14 780 d   1      44.785   3.690  35.325  0.00  0.00     0.083 H 
ATOM     38  C5' 780 d   1      41.727   2.538  36.164  0.00  0.00    -0.082 A 
ATOM     39  H15 780 d   1      42.793   4.339  36.624  0.00  0.00     0.083 H 
ATOM     40  C6' 780 d   1      41.768   1.320  35.494  0.00  0.00    -0.072 A 
ATOM     41  H16 780 d   1      40.847   2.819  36.731  0.00  0.00     0.083 H 
ATOM     42  H17 780 d   1      40.912   0.658  35.548  0.00  0.00     0.084 H 
ENDBRANCH   5  32
TORSDOF 5
