REMARK  5 active torsions:
REMARK  status: ('A' for Active; 'I' for Inactive)
REMARK    1  A    between atoms: C1_1  and  C7_7 
REMARK    2  A    between atoms: C7_7  and  N1_8 
REMARK    3  A    between atoms: C8_12  and  C1'_13 
REMARK    4  A    between atoms: C5'_17  and  C1''_20 
REMARK    5  A    between atoms: C6'_18  and  O6'_19 
ROOT
ATOM      1  C1' 780 d   1      43.414  -1.711  32.069  0.00  0.00     0.044 A 
ATOM      2  C2' 780 d   1      43.088  -2.830  32.830  0.00  0.00    -0.067 A 
ATOM      3  C3' 780 d   1      42.756  -2.715  34.161  0.00  0.00    -0.081 A 
ATOM      4  C4' 780 d   1      42.742  -1.477  34.762  0.00  0.00    -0.070 A 
ATOM      5  C5' 780 d   1      43.061  -0.296  34.058  0.00  0.00     0.008 A 
ATOM      6  C6' 780 d   1      43.394  -0.463  32.699  0.00  0.00     0.090 A 
ATOM      7  H9  780 d   1      43.096  -3.810  32.366  0.00  0.00     0.085 H 
ATOM      8  H10 780 d   1      42.506  -3.599  34.736  0.00  0.00     0.083 H 
ATOM      9  H11 780 d   1      42.477  -1.407  35.811  0.00  0.00     0.085 H 
ENDROOT
BRANCH   1  10
ATOM     10  C8  780 d   1      43.744  -1.826  30.721  0.00  0.00     0.142 A 
ATOM     11  N3  780 d   1      44.209  -0.835  30.014  0.00  0.00    -0.338 N 
ATOM     12  C4  780 d   1      44.309  -1.321  28.820  0.00  0.00     0.062 A 
ATOM     13  H8  780 d   1      44.443   0.116  30.333  0.00  0.00     0.167 HD
ATOM     14  C3  780 d   1      44.759  -0.732  27.689  0.00  0.00    -0.054 A 
ATOM     15  C5  780 d   1      43.895  -2.593  28.868  0.00  0.00     0.086 A 
ATOM     16  C2  780 d   1      44.766  -1.530  26.536  0.00  0.00    -0.067 A 
ATOM     17  H2  780 d   1      45.095   0.298  27.674  0.00  0.00     0.087 H 
ATOM     18  C1  780 d   1      44.331  -2.889  26.523  0.00  0.00     0.009 A 
ATOM     19  H1  780 d   1      45.119  -1.093  25.609  0.00  0.00     0.085 H 
ATOM     20  C6  780 d   1      43.882  -3.423  27.750  0.00  0.00    -0.039 A 
ATOM     21  H3  780 d   1      43.537  -4.448  27.820  0.00  0.00     0.088 H 
ATOM     22  N4  780 d   1      43.517  -2.962  30.084  0.00  0.00    -0.228 NA
BRANCH  18  23
ATOM     23  C7  780 d   1      44.359  -3.657  25.344  0.00  0.00     0.102 C 
ATOM     24  N2  780 d   1      44.611  -3.068  24.195  0.00  0.00    -0.385 N 
ATOM     25  H6  780 d   1      44.790  -2.054  24.164  0.00  0.00     0.157 HD
ATOM     26  H7  780 d   1      44.629  -3.621  23.326  0.00  0.00     0.157 HD
BRANCH  23  27
ATOM     27  N1  780 d   1      44.130  -4.950  25.384  0.00  0.00    -0.385 N 
ATOM     28  H4  780 d   1      44.153  -5.504  24.516  0.00  0.00     0.157 HD
ATOM     29  H5  780 d   1      43.928  -5.410  26.283  0.00  0.00     0.157 HD
ENDBRANCH  23  27
ENDBRANCH  18  23
ENDBRANCH   1  10
BRANCH   6  30
ATOM     30  O6' 780 d   1      43.735   0.598  31.896  0.00  0.00    -0.359 OA
ATOM     31  H12 780 d   1      43.924   0.283  31.020  0.00  0.00     0.217 HD
ENDBRANCH   6  30
BRANCH   5  32
ATOM     32  C1' 780 d   1      43.014   0.936  34.745  0.00  0.00    -0.023 A 
ATOM     33  C2' 780 d   1      44.081   1.825  34.770  0.00  0.00    -0.072 A 
ATOM     34  C3' 780 d   1      44.031   3.016  35.477  0.00  0.00    -0.082 A 
ATOM     35  H13 780 d   1      44.982   1.579  34.219  0.00  0.00     0.084 H 
ATOM     36  C4' 780 d   1      42.890   3.358  36.188  0.00  0.00    -0.083 A 
ATOM     37  H14 780 d   1      44.886   3.682  35.474  0.00  0.00     0.083 H 
ATOM     38  C5' 780 d   1      41.807   2.503  36.190  0.00  0.00    -0.082 A 
ATOM     39  H15 780 d   1      42.849   4.291  36.739  0.00  0.00     0.083 H 
ATOM     40  C6' 780 d   1      41.871   1.312  35.477  0.00  0.00    -0.072 A 
ATOM     41  H16 780 d   1      40.911   2.759  36.745  0.00  0.00     0.083 H 
ATOM     42  H17 780 d   1      41.013   0.650  35.484  0.00  0.00     0.084 H 
ENDBRANCH   5  32
TORSDOF 5
