REMARK  5 active torsions:
REMARK  status: ('A' for Active; 'I' for Inactive)
REMARK    1  A    between atoms: C1_1  and  C7_7 
REMARK    2  A    between atoms: C7_7  and  N1_8 
REMARK    3  A    between atoms: C8_12  and  C1'_13 
REMARK    4  A    between atoms: C5'_17  and  C1''_20 
REMARK    5  A    between atoms: C6'_18  and  O6'_19 
ROOT
ATOM      1  C1' 696 d   1      43.571  -1.843  32.069  0.00  0.00     0.025 A 
ATOM      2  C2' 696 d   1      43.328  -2.975  32.853  0.00  0.00    -0.068 A 
ATOM      3  C3' 696 d   1      43.045  -2.881  34.201  0.00  0.00    -0.081 A 
ATOM      4  C4' 696 d   1      42.998  -1.644  34.805  0.00  0.00    -0.070 A 
ATOM      5  C5' 696 d   1      43.229  -0.462  34.068  0.00  0.00     0.008 A 
ATOM      6  C6' 696 d   1      43.518  -0.585  32.699  0.00  0.00     0.089 A 
ATOM      7  H10 696 d   1      43.363  -3.954  32.389  0.00  0.00     0.085 H 
ATOM      8  H11 696 d   1      42.861  -3.777  34.782  0.00  0.00     0.083 H 
ATOM      9  H12 696 d   1      42.780  -1.577  35.865  0.00  0.00     0.085 H 
ENDROOT
BRANCH   1  10
ATOM     10  C8  696 d   1      43.843  -1.985  30.711  0.00  0.00     0.046 A 
ATOM     11  N3  696 d   1      44.212  -1.001  29.966  0.00  0.00    -0.355 N 
ATOM     12  C4  696 d   1      44.302  -1.462  28.763  0.00  0.00     0.043 A 
ATOM     13  H8  696 d   1      44.399  -0.035  30.270  0.00  0.00     0.166 HD
ATOM     14  C3  696 d   1      44.672  -0.872  27.603  0.00  0.00    -0.055 A 
ATOM     15  C5  696 d   1      43.953  -2.780  28.863  0.00  0.00    -0.006 A 
ATOM     16  C2  696 d   1      44.670  -1.692  26.471  0.00  0.00    -0.067 A 
ATOM     17  H2  696 d   1      44.953   0.174  27.554  0.00  0.00     0.087 H 
ATOM     18  C1  696 d   1      44.312  -3.075  26.497  0.00  0.00     0.008 A 
ATOM     19  H1  696 d   1      44.956  -1.255  25.521  0.00  0.00     0.085 H 
ATOM     20  C6  696 d   1      43.943  -3.628  27.749  0.00  0.00    -0.057 A 
ATOM     21  H3  696 d   1      43.663  -4.671  27.841  0.00  0.00     0.086 H 
ATOM     22  CN4 696 d   1      43.647  -3.135  30.120  0.00  0.00    -0.044 A 
ATOM     23  H9  696 d   1      43.330  -4.094  30.527  0.00  0.00     0.088 H 
BRANCH  18  24
ATOM     24  C7  696 d   1      44.343  -3.831  25.319  0.00  0.00     0.102 C 
ATOM     25  N2  696 d   1      44.687  -3.225  24.197  0.00  0.00    -0.385 N 
ATOM     26  H6  696 d   1      44.920  -2.222  24.204  0.00  0.00     0.157 HD
ATOM     27  H7  696 d   1      44.722  -3.756  23.315  0.00  0.00     0.157 HD
BRANCH  24  28
ATOM     28  N1  696 d   1      44.040  -5.112  25.340  0.00  0.00    -0.385 N 
ATOM     29  H4  696 d   1      44.065  -5.662  24.469  0.00  0.00     0.157 HD
ATOM     30  H5  696 d   1      43.778  -5.565  26.227  0.00  0.00     0.157 HD
ENDBRANCH  24  28
ENDBRANCH  18  24
ENDBRANCH   1  10
BRANCH   6  31
ATOM     31  O6' 696 d   1      43.779   0.555  31.953  0.00  0.00    -0.359 OA
ATOM     32  H13 696 d   1      43.955   0.309  31.052  0.00  0.00     0.217 HD
ENDBRANCH   6  31
BRANCH   5  33
ATOM     33  C1' 696 d   1      43.162   0.784  34.702  0.00  0.00    -0.023 A 
ATOM     34  C2' 696 d   1      44.187   1.729  34.588  0.00  0.00    -0.072 A 
ATOM     35  C3' 696 d   1      44.124   2.957  35.225  0.00  0.00    -0.082 A 
ATOM     36  H14 696 d   1      45.056   1.493  33.984  0.00  0.00     0.084 H 
ATOM     37  C4' 696 d   1      43.030   3.288  36.004  0.00  0.00    -0.083 A 
ATOM     38  H15 696 d   1      44.938   3.664  35.112  0.00  0.00     0.083 H 
ATOM     39  C5' 696 d   1      41.985   2.373  36.140  0.00  0.00    -0.082 A 
ATOM     40  H16 696 d   1      42.985   4.249  36.504  0.00  0.00     0.083 H 
ATOM     41  C6' 696 d   1      42.056   1.137  35.492  0.00  0.00    -0.072 A 
ATOM     42  H17 696 d   1      41.121   2.620  36.746  0.00  0.00     0.083 H 
ATOM     43  H18 696 d   1      41.238   0.434  35.602  0.00  0.00     0.084 H 
ENDBRANCH   5  33
TORSDOF 5
