REMARK  5 active torsions:
REMARK  status: ('A' for Active; 'I' for Inactive)
REMARK    1  A    between atoms: C1_1  and  C7_7 
REMARK    2  A    between atoms: C7_7  and  N1_8 
REMARK    3  A    between atoms: C8_12  and  C1'_13 
REMARK    4  A    between atoms: C3'_15  and  C31'_16 
REMARK    5  A    between atoms: C6'_19  and  O6'_20 
ROOT
ATOM      1  C1  907 d   1      43.992  -3.085  26.023  0.00  0.00     0.008 A 
ATOM      2  C2  907 d   1      44.304  -1.706  26.113  0.00  0.00    -0.067 A 
ATOM      3  C3  907 d   1      44.181  -1.001  27.312  0.00  0.00    -0.055 A 
ATOM      4  C4  907 d   1      43.753  -1.678  28.420  0.00  0.00     0.043 A 
ATOM      5  C5  907 d   1      43.441  -2.998  28.375  0.00  0.00    -0.006 A 
ATOM      6  C6  907 d   1      43.540  -3.750  27.192  0.00  0.00    -0.057 A 
ATOM      7  N3  907 d   1      43.580  -1.237  29.630  0.00  0.00    -0.355 N 
ATOM      8  CN4 907 d   1      43.055  -3.359  29.659  0.00  0.00    -0.044 A 
ATOM      9  C8  907 d   1      43.170  -2.195  30.423  0.00  0.00     0.046 A 
ATOM     10  H1  907 d   1      44.648  -1.184  25.227  0.00  0.00     0.085 H 
ATOM     11  H2  907 d   1      44.419   0.055  27.363  0.00  0.00     0.087 H 
ATOM     12  H3  907 d   1      43.280  -4.802  27.173  0.00  0.00     0.086 H 
ATOM     13  H8  907 d   1      43.743  -0.264  29.926  0.00  0.00     0.166 HD
ATOM     14  H9  907 d   1      42.731  -4.342  29.999  0.00  0.00     0.088 H 
ENDROOT
BRANCH   9  15
ATOM     15  C1' 907 d   1      42.944  -2.018  31.801  0.00  0.00     0.026 A 
ATOM     16  C2' 907 d   1      42.594  -3.100  32.610  0.00  0.00    -0.062 A 
ATOM     17  C3' 907 d   1      42.375  -2.929  33.979  0.00  0.00    -0.060 A 
ATOM     18  H10 907 d   1      42.491  -4.085  32.170  0.00  0.00     0.085 H 
ATOM     19  C4' 907 d   1      42.507  -1.677  34.553  0.00  0.00    -0.058 A 
ATOM     20  C5' 907 d   1      42.854  -0.602  33.763  0.00  0.00     0.045 A 
ATOM     21  H14 907 d   1      42.339  -1.543  35.615  0.00  0.00     0.086 H 
ATOM     22  C6' 907 d   1      43.076  -0.745  32.395  0.00  0.00     0.095 A 
ATOM     23 BR5' 907 d   1      43.089   1.108  34.637  0.00  0.00    -0.048 Br
BRANCH  17  24
ATOM     24  C31 907 d   1      41.991  -4.127  34.849  0.00  0.00    -0.051 C 
ATOM     25  H11 907 d   1      41.862  -3.797  35.891  0.00  0.00     0.033 H 
ATOM     26  H12 907 d   1      42.786  -4.885  34.800  0.00  0.00     0.033 H 
ATOM     27  H13 907 d   1      41.049  -4.560  34.482  0.00  0.00     0.033 H 
ENDBRANCH  17  24
BRANCH  22  28
ATOM     28  O6' 907 d   1      43.398   0.372  31.639  0.00  0.00    -0.358 OA
ATOM     29  H15 907 d   1      44.202   0.756  31.970  0.00  0.00     0.217 HD
ENDBRANCH  22  28
ENDBRANCH   9  15
BRANCH   1  30
ATOM     30  C7  907 d   1      44.155  -3.753  24.784  0.00  0.00     0.102 C 
ATOM     31  N2  907 d   1      44.618  -3.067  23.756  0.00  0.00    -0.385 N 
ATOM     32  H6  907 d   1      44.849  -2.069  23.865  0.00  0.00     0.157 HD
ATOM     33  H7  907 d   1      44.748  -3.530  22.845  0.00  0.00     0.157 HD
BRANCH  30  34
ATOM     34  N1  907 d   1      43.853  -5.028  24.670  0.00  0.00    -0.385 N 
ATOM     35  H4  907 d   1      43.974  -5.507  23.766  0.00  0.00     0.157 HD
ATOM     36  H5  907 d   1      43.495  -5.547  25.484  0.00  0.00     0.157 HD
ENDBRANCH  30  34
ENDBRANCH   1  30
TORSDOF 5
