REMARK  5 active torsions:
REMARK  status: ('A' for Active; 'I' for Inactive)
REMARK    1  A    between atoms: C1_1  and  C7_7 
REMARK    2  A    between atoms: C7_7  and  N1_8 
REMARK    3  A    between atoms: C8_12  and  C1'_13 
REMARK    4  A    between atoms: C3'_15  and  C31'_16 
REMARK    5  A    between atoms: C6'_19  and  O6'_20 
ROOT
ATOM      1  C1  334 d   1      43.915  -3.092  26.146  0.00  0.00     0.009 A 
ATOM      2  C2  334 d   1      44.242  -1.711  26.246  0.00  0.00    -0.067 A 
ATOM      3  C3  334 d   1      44.110  -1.017  27.445  0.00  0.00    -0.054 A 
ATOM      4  C4  334 d   1      43.660  -1.701  28.535  0.00  0.00     0.062 A 
ATOM      5  C5  334 d   1      43.334  -3.022  28.466  0.00  0.00     0.086 A 
ATOM      6  C6  334 d   1      43.445  -3.755  27.292  0.00  0.00    -0.039 A 
ATOM      7  N3  334 d   1      43.458  -1.282  29.743  0.00  0.00    -0.338 N 
ATOM      8  N4  334 d   1      42.918  -3.408  29.704  0.00  0.00    -0.228 NA
ATOM      9  C8  334 d   1      43.010  -2.265  30.485  0.00  0.00     0.142 A 
ATOM     10  H1  334 d   1      44.602  -1.187  25.368  0.00  0.00     0.085 H 
ATOM     11  H2  334 d   1      44.358   0.036  27.510  0.00  0.00     0.087 H 
ATOM     12  H3  334 d   1      43.178  -4.805  27.261  0.00  0.00     0.088 H 
ATOM     13  H8  334 d   1      43.624  -0.320  30.072  0.00  0.00     0.167 HD
ENDROOT
BRANCH   9  14
ATOM     14  C1' 334 d   1      42.798  -2.153  31.858  0.00  0.00     0.045 A 
ATOM     15  C2' 334 d   1      42.549  -3.297  32.647  0.00  0.00    -0.061 A 
ATOM     16  C3' 334 d   1      42.335  -3.172  34.026  0.00  0.00    -0.060 A 
ATOM     17  H9  334 d   1      42.523  -4.277  32.184  0.00  0.00     0.085 H 
ATOM     18  C4' 334 d   1      42.373  -1.933  34.609  0.00  0.00    -0.058 A 
ATOM     19  C5' 334 d   1      42.616  -0.823  33.836  0.00  0.00     0.045 A 
ATOM     20  H13 334 d   1      42.212  -1.829  35.676  0.00  0.00     0.086 H 
ATOM     21  C6' 334 d   1      42.832  -0.883  32.464  0.00  0.00     0.097 A 
ATOM     22 BR5' 334 d   1      42.634   0.843  34.796  0.00  0.00    -0.048 Br
BRANCH  16  23
ATOM     23  C31 334 d   1      42.034  -4.362  34.938  0.00  0.00    -0.051 C 
ATOM     24  H10 334 d   1      41.906  -4.008  35.972  0.00  0.00     0.033 H 
ATOM     25  H11 334 d   1      42.869  -5.077  34.896  0.00  0.00     0.033 H 
ATOM     26  H12 334 d   1      41.110  -4.856  34.603  0.00  0.00     0.033 H 
ENDBRANCH  16  23
BRANCH  21  27
ATOM     27  O6' 334 d   1      43.055   0.289  31.738  0.00  0.00    -0.358 OA
ATOM     28  H14 334 d   1      43.830   0.725  32.073  0.00  0.00     0.217 HD
ENDBRANCH  21  27
ENDBRANCH   9  14
BRANCH   1  29
ATOM     29  C7  334 d   1      44.069  -3.771  24.927  0.00  0.00     0.102 C 
ATOM     30  N2  334 d   1      44.479  -3.086  23.877  0.00  0.00    -0.385 N 
ATOM     31  H6  334 d   1      44.676  -2.079  23.964  0.00  0.00     0.157 HD
ATOM     32  H7  334 d   1      44.602  -3.558  22.970  0.00  0.00     0.157 HD
BRANCH  29  33
ATOM     33  N1  334 d   1      43.806  -5.060  24.860  0.00  0.00    -0.385 N 
ATOM     34  H4  334 d   1      43.917  -5.563  23.968  0.00  0.00     0.157 HD
ATOM     35  H5  334 d   1      43.489  -5.565  25.700  0.00  0.00     0.157 HD
ENDBRANCH  29  33
ENDBRANCH   1  29
TORSDOF 5
