REMARK  6 active torsions:
REMARK  status: ('A' for Active; 'I' for Inactive)
REMARK    1  A    between atoms: C1_1  and  C7_7 
REMARK    2  A    between atoms: C7_7  and  N1_8 
REMARK    3  A    between atoms: C8_12  and  C1'_13 
REMARK    4  A    between atoms: C5'_17  and  O5'_18 
REMARK    5  A    between atoms: O5'_18  and  C2''_22 
REMARK    6  A    between atoms: C6'_19  and  O6'_20 
ROOT
ATOM      1  C1' 655 d   1      10.113   6.965  23.775  0.00  0.00     0.046 A 
ATOM      2  C2' 655 d   1       9.787   7.820  24.849  0.00  0.00    -0.066 A 
ATOM      3  C3' 655 d   1      10.040   9.193  24.785  0.00  0.00    -0.079 A 
ATOM      4  C4' 655 d   1      10.629   9.725  23.657  0.00  0.00    -0.048 A 
ATOM      5  C5' 655 d   1      10.961   8.887  22.570  0.00  0.00     0.103 A 
ATOM      6  C6' 655 d   1      10.721   7.530  22.646  0.00  0.00     0.113 A 
ATOM      7  H9  655 d   1       9.332   7.404  25.741  0.00  0.00     0.085 H 
ATOM      8  H10 655 d   1       9.775   9.836  25.617  0.00  0.00     0.083 H 
ATOM      9  H11 655 d   1      10.837  10.787  23.605  0.00  0.00     0.087 H 
ENDROOT
BRANCH   1  10
ATOM     10  C8  655 d   1       9.877   5.622  23.853  0.00  0.00     0.142 A 
ATOM     11  N3  655 d   1      10.373   4.782  22.985  0.00  0.00    -0.338 N 
ATOM     12  C4  655 d   1       9.972   3.611  23.331  0.00  0.00     0.062 A 
ATOM     13  H8  655 d   1      10.970   5.013  22.178  0.00  0.00     0.167 HD
ATOM     14  C3  655 d   1      10.202   2.367  22.810  0.00  0.00    -0.054 A 
ATOM     15  C5  655 d   1       9.209   3.812  24.435  0.00  0.00     0.086 A 
ATOM     16  C2  655 d   1       9.572   1.302  23.430  0.00  0.00    -0.067 A 
ATOM     17  H2  655 d   1      10.848   2.222  21.951  0.00  0.00     0.087 H 
ATOM     18  C1  655 d   1       8.788   1.461  24.606  0.00  0.00     0.009 A 
ATOM     19  H1  655 d   1       9.680   0.311  23.004  0.00  0.00     0.085 H 
ATOM     20  C6  655 d   1       8.592   2.766  25.071  0.00  0.00    -0.039 A 
ATOM     21  H3  655 d   1       7.956   2.949  25.929  0.00  0.00     0.088 H 
ATOM     22  N4  655 d   1       9.117   5.070  24.784  0.00  0.00    -0.228 NA
BRANCH  18  23
ATOM     23  C7  655 d   1       8.188   0.373  25.235  0.00  0.00     0.102 C 
ATOM     24  N2  655 d   1       8.091  -0.772  24.610  0.00  0.00    -0.385 N 
ATOM     25  H6  655 d   1       8.432  -0.861  23.642  0.00  0.00     0.157 HD
ATOM     26  H7  655 d   1       7.674  -1.585  25.086  0.00  0.00     0.157 HD
BRANCH  23  27
ATOM     27  N1  655 d   1       7.752   0.486  26.473  0.00  0.00    -0.385 N 
ATOM     28  H4  655 d   1       7.308  -0.319  26.938  0.00  0.00     0.157 HD
ATOM     29  H5  655 d   1       7.855   1.379  26.976  0.00  0.00     0.157 HD
ENDBRANCH  23  27
ENDBRANCH  18  23
ENDBRANCH   1  10
BRANCH   6  30
ATOM     30  O6' 655 d   1      11.100   6.768  21.545  0.00  0.00    -0.357 OA
ATOM     31  H12 655 d   1      12.035   6.859  21.405  0.00  0.00     0.217 HD
ENDBRANCH   6  30
BRANCH   5  32
ATOM     32  O5' 655 d   1      11.557   9.330  21.396  0.00  0.00    -0.343 OA
BRANCH  32  33
ATOM     33  C2' 655 d   1      11.860  10.716  21.225  0.00  0.00     0.045 C 
ATOM     34  C3' 655 d   1      13.291  10.879  21.692  0.00  0.00    -0.040 C 
ATOM     35  C4' 655 d   1      14.113  11.371  20.514  0.00  0.00    -0.063 C 
ATOM     36  H16 655 d   1      13.682   9.913  22.043  0.00  0.00     0.036 H 
ATOM     37  H17 655 d   1      13.336  11.612  22.511  0.00  0.00     0.036 H 
ATOM     38  C5' 655 d   1      13.244  11.212  19.277  0.00  0.00    -0.063 C 
ATOM     39  H18 655 d   1      15.029  10.770  20.413  0.00  0.00     0.033 H 
ATOM     40  H19 655 d   1      14.382  12.428  20.655  0.00  0.00     0.033 H 
ATOM     41  C1' 655 d   1      11.809  11.028  19.731  0.00  0.00    -0.040 C 
ATOM     42  H20 655 d   1      13.569  10.332  18.703  0.00  0.00     0.033 H 
ATOM     43  H21 655 d   1      13.324  12.110  18.647  0.00  0.00     0.033 H 
ATOM     44  H13 655 d   1      11.342  10.195  19.185  0.00  0.00     0.036 H 
ATOM     45  H14 655 d   1      11.234  11.949  19.555  0.00  0.00     0.036 H 
ATOM     46  H15 655 d   1      11.170  11.359  21.791  0.00  0.00     0.084 H 
ENDBRANCH  32  33
ENDBRANCH   5  32
TORSDOF 6
