REMARK  11 active torsions:
REMARK  status: ('A' for Active; 'I' for Inactive)
REMARK    1  A    between atoms: O30_30  and  C3_3 
REMARK    2  A    between atoms: C6_6  and  C11_11 
REMARK    3  A    between atoms: P7_7  and  O30_30 
REMARK    4  A    between atoms: C11_11  and  C12_12 
REMARK    5  A    between atoms: C12_12  and  C13_13 
REMARK    6  A    between atoms: C12_12  and  N15_15 
REMARK       I    between atoms: C13_13  and  N14_14 
REMARK    7  A    between atoms: N14_14  and  C20_20 
REMARK       I    between atoms: N15_15  and  C16_16 
REMARK    8  A    between atoms: C16_16  and  C17_17 
REMARK    9  A    between atoms: N25_25  and  C27_27 
REMARK   10  A    between atoms: C27_27  and  C28_28 
REMARK   11  A    between atoms: C56_33  and  C63_36 
ROOT
ATOM      1  C20 843 d   1      20.380  22.364  24.800  0.00  0.00     0.089 C 
ATOM      2  C21 843 d   1      19.271  21.421  25.345  0.00  0.00    -0.038 C 
ATOM      3  C22 843 d   1      19.640  20.630  26.618  0.00  0.00    -0.061 C 
ATOM      4  C23 843 d   1      20.849  19.702  26.448  0.00  0.00    -0.050 C 
ATOM      5  C24 843 d   1      22.114  20.474  26.156  0.00  0.00    -0.002 C 
ATOM      6  N25 843 d   1      22.260  20.681  24.685  0.00  0.00    -0.346 N 
ATOM      7  C26 843 d   1      21.395  21.574  23.940  0.00  0.00     0.242 C 
ATOM      8  O29 843 d   1      21.364  21.685  22.681  0.00  0.00    -0.271 OA
ATOM      9  H13 843 d   1      20.890  22.877  25.628  0.00  0.00     0.087 H 
ATOM     10  H14 843 d   1      19.024  20.696  24.555  0.00  0.00     0.036 H 
ATOM     11  H15 843 d   1      18.386  22.034  25.571  0.00  0.00     0.036 H 
ATOM     12  H16 843 d   1      18.773  20.019  26.909  0.00  0.00     0.033 H 
ATOM     13  H17 843 d   1      19.866  21.349  27.419  0.00  0.00     0.033 H 
ATOM     14  H18 843 d   1      20.653  19.012  25.614  0.00  0.00     0.035 H 
ATOM     15  H19 843 d   1      20.989  19.127  27.375  0.00  0.00     0.035 H 
ATOM     16  H20 843 d   1      22.980  19.909  26.532  0.00  0.00     0.064 H 
ATOM     17  H21 843 d   1      22.068  21.452  26.658  0.00  0.00     0.064 H 
ENDROOT
BRANCH   1  18
ATOM     18  N14 843 d   1      19.737  23.312  23.906  0.00  0.00    -0.346 N 
ATOM     19  C13 843 d   1      20.397  24.323  23.348  0.00  0.00     0.241 C 
ATOM     20  O19 843 d   1      21.562  24.687  23.565  0.00  0.00    -0.271 OA
ATOM     21  H8  843 d   1      18.764  23.200  23.703  0.00  0.00     0.163 HD
BRANCH  19  22
ATOM     22  C12 843 d   1      19.522  25.073  22.361  0.00  0.00     0.093 C 
ATOM     23  H7  843 d   1      18.467  25.017  22.667  0.00  0.00     0.088 H 
BRANCH  22  24
ATOM     24  C11 843 d   1      19.678  24.475  20.969  0.00  0.00    -0.014 C 
ATOM     25  H5  843 d   1      20.724  24.573  20.645  0.00  0.00     0.043 H 
ATOM     26  H6  843 d   1      19.400  23.411  20.995  0.00  0.00     0.043 H 
BRANCH  24  27
ATOM     27  C6  843 d   1      18.784  25.201  20.000  0.00  0.00    -0.056 A 
ATOM     28  C1  843 d   1      19.321  26.305  19.296  0.00  0.00    -0.074 A 
ATOM     29  C2  843 d   1      18.507  27.009  18.377  0.00  0.00    -0.050 A 
ATOM     30  H1  843 d   1      20.349  26.609  19.459  0.00  0.00     0.084 H 
ATOM     31  C3  843 d   1      17.172  26.555  18.145  0.00  0.00     0.082 A 
ATOM     32  H2  843 d   1      18.890  27.879  17.857  0.00  0.00     0.087 H 
ATOM     33  C4  843 d   1      16.639  25.505  18.896  0.00  0.00    -0.050 A 
ATOM     34  C5  843 d   1      17.451  24.817  19.812  0.00  0.00    -0.074 A 
ATOM     35  H3  843 d   1      15.600  25.222  18.772  0.00  0.00     0.087 H 
ATOM     36  H4  843 d   1      17.044  23.985  20.376  0.00  0.00     0.084 H 
BRANCH  31  37
ATOM     37  O30 843 d   1      16.447  27.224  17.123  0.00  0.00    -0.240 OA
BRANCH  37  38
ATOM     38  P7  843 d   1      15.975  28.568  17.566  0.00  0.00     0.427 P 
ATOM     39  O8  843 d   1      14.764  28.713  16.663  0.00  0.00    -0.617 OA
ATOM     40  O9  843 d   1      16.994  29.700  17.324  0.00  0.00    -0.617 OA
ATOM     41  O10 843 d   1      15.497  28.628  18.977  0.00  0.00    -0.617 OA
ENDBRANCH  37  38
ENDBRANCH  31  37
ENDBRANCH  24  27
ENDBRANCH  22  24
BRANCH  22  42
ATOM     42  N15 843 d   1      19.976  26.448  22.383  0.00  0.00    -0.348 N 
ATOM     43  C16 843 d   1      19.349  27.388  23.108  0.00  0.00     0.214 C 
ATOM     44  O18 843 d   1      18.497  27.128  23.947  0.00  0.00    -0.274 OA
ATOM     45  H9  843 d   1      20.778  26.704  21.844  0.00  0.00     0.163 HD
BRANCH  43  46
ATOM     46  C17 843 d   1      19.803  28.829  22.729  0.00  0.00    -0.003 C 
ATOM     47  H10 843 d   1      19.262  29.559  23.349  0.00  0.00     0.040 H 
ATOM     48  H11 843 d   1      19.583  29.015  21.667  0.00  0.00     0.040 H 
ATOM     49  H12 843 d   1      20.884  28.930  22.903  0.00  0.00     0.040 H 
ENDBRANCH  43  46
ENDBRANCH  22  42
ENDBRANCH  19  22
ENDBRANCH   1  18
BRANCH   6  50
ATOM     50  C27 843 d   1      23.224  19.803  23.937  0.00  0.00     0.021 C 
ATOM     51  H22 843 d   1      24.125  19.642  24.547  0.00  0.00     0.071 H 
ATOM     52  H23 843 d   1      23.504  20.286  22.989  0.00  0.00     0.071 H 
BRANCH  50  53
ATOM     53  C28 843 d   1      22.568  18.491  23.656  0.00  0.00    -0.040 A 
ATOM     54  C54 843 d   1      21.328  18.441  22.942  0.00  0.00    -0.074 A 
ATOM     55  C55 843 d   1      20.721  17.168  22.664  0.00  0.00    -0.072 A 
ATOM     56  H24 843 d   1      20.850  19.357  22.613  0.00  0.00     0.084 H 
ATOM     57  C56 843 d   1      21.363  15.989  23.099  0.00  0.00    -0.026 A 
ATOM     58  H25 843 d   1      19.781  17.114  22.127  0.00  0.00     0.084 H 
ATOM     59  C57 843 d   1      22.533  16.066  23.885  0.00  0.00    -0.072 A 
ATOM     60  C58 843 d   1      23.130  17.310  24.151  0.00  0.00    -0.074 A 
ATOM     61  H26 843 d   1      22.974  15.160  24.286  0.00  0.00     0.084 H 
ATOM     62  H27 843 d   1      24.035  17.355  24.746  0.00  0.00     0.084 H 
BRANCH  57  63
ATOM     63  C63 843 d   1      20.759  14.696  22.779  0.00  0.00    -0.026 A 
ATOM     64  C64 843 d   1      21.537  13.539  22.649  0.00  0.00    -0.072 A 
ATOM     65  C65 843 d   1      20.823  12.335  22.390  0.00  0.00    -0.082 A 
ATOM     66  H28 843 d   1      22.617  13.559  22.740  0.00  0.00     0.084 H 
ATOM     67  C66 843 d   1      19.417  12.268  22.262  0.00  0.00    -0.083 A 
ATOM     68  H29 843 d   1      21.390  11.417  22.285  0.00  0.00     0.083 H 
ATOM     69  C67 843 d   1      18.655  13.417  22.446  0.00  0.00    -0.082 A 
ATOM     70  H30 843 d   1      18.936  11.327  22.022  0.00  0.00     0.083 H 
ATOM     71  C68 843 d   1      19.333  14.627  22.691  0.00  0.00    -0.072 A 
ATOM     72  H31 843 d   1      17.572  13.382  22.402  0.00  0.00     0.083 H 
ATOM     73  H32 843 d   1      18.755  15.536  22.817  0.00  0.00     0.084 H 
ENDBRANCH  57  63
ENDBRANCH  50  53
ENDBRANCH   6  50
TORSDOF 11
