REMARK  12 active torsions:
REMARK  status: ('A' for Active; 'I' for Inactive)
REMARK    1  A    between atoms: C1_1  and  C56_31 
REMARK    2  A    between atoms: C2_2  and  N3_3 
REMARK    3  A    between atoms: C2_2  and  C10_7 
REMARK       I    between atoms: N3_3  and  C4_4 
REMARK    4  A    between atoms: C4_4  and  C5_5 
REMARK       I    between atoms: C10_7  and  N12_9 
REMARK    5  A    between atoms: N12_9  and  C14_10 
REMARK    6  A    between atoms: N26_16  and  C30_18 
REMARK    7  A    between atoms: C30_18  and  C31_19 
REMARK    8  A    between atoms: C36_22  and  C43_25 
REMARK    9  A    between atoms: C59_34  and  C65_37 
REMARK   10  A    between atoms: C60_35  and  C71_41 
REMARK   11  A    between atoms: C65_37  and  C66_38 
REMARK   12  A    between atoms: C71_41  and  O72_42 
ROOT
ATOM      1  C14 821 d   1      20.376  22.338  24.469  0.00  0.00     0.090 C 
ATOM      2  C15 821 d   1      19.239  21.516  25.013  0.00  0.00    -0.038 C 
ATOM      3  C16 821 d   1      19.540  20.779  26.291  0.00  0.00    -0.061 C 
ATOM      4  C19 821 d   1      20.660  19.732  26.169  0.00  0.00    -0.050 C 
ATOM      5  C22 821 d   1      22.026  20.350  25.896  0.00  0.00    -0.002 C 
ATOM      6  C25 821 d   1      21.471  21.538  23.690  0.00  0.00     0.242 C 
ATOM      7  N26 821 d   1      22.277  20.658  24.465  0.00  0.00    -0.346 N 
ATOM      8  O29 821 d   1      21.596  21.665  22.453  0.00  0.00    -0.271 OA
ATOM      9  H7  821 d   1      20.842  22.907  25.287  0.00  0.00     0.087 H 
ATOM     10  H8  821 d   1      18.958  20.775  24.250  0.00  0.00     0.036 H 
ATOM     11  H9  821 d   1      18.390  22.190  25.200  0.00  0.00     0.036 H 
ATOM     12  H10 821 d   1      18.623  20.266  26.617  0.00  0.00     0.033 H 
ATOM     13  H11 821 d   1      19.838  21.516  27.051  0.00  0.00     0.033 H 
ATOM     14  H12 821 d   1      20.413  19.049  25.343  0.00  0.00     0.035 H 
ATOM     15  H13 821 d   1      20.714  19.165  27.110  0.00  0.00     0.035 H 
ATOM     16  H14 821 d   1      22.799  19.646  26.238  0.00  0.00     0.064 H 
ATOM     17  H15 821 d   1      22.103  21.286  26.469  0.00  0.00     0.064 H 
ENDROOT
BRANCH   1  18
ATOM     18  N12 821 d   1      19.798  23.200  23.484  0.00  0.00    -0.342 N 
ATOM     19  C10 821 d   1      20.489  24.321  23.046  0.00  0.00     0.269 C 
ATOM     20  O11 821 d   1      21.583  24.680  23.515  0.00  0.00    -0.266 OA
ATOM     21  H6  821 d   1      18.894  22.994  23.110  0.00  0.00     0.163 HD
BRANCH  19  22
ATOM     22  C2  821 d   1      19.874  25.229  21.962  0.00  0.00     0.104 C 
ATOM     23  C1  821 d   1      19.109  24.653  20.979  0.00  0.00    -0.042 C 
ATOM     24  H1  821 d   1      18.936  23.578  21.008  0.00  0.00     0.088 H 
BRANCH  23  25
ATOM     25  C56 821 d   1      18.512  25.444  19.881  0.00  0.00    -0.033 A 
ATOM     26  C57 821 d   1      19.000  26.746  19.520  0.00  0.00    -0.072 A 
ATOM     27  C58 821 d   1      18.438  27.495  18.429  0.00  0.00    -0.075 A 
ATOM     28  H27 821 d   1      19.817  27.177  20.087  0.00  0.00     0.084 H 
ATOM     29  C59 821 d   1      17.356  26.921  17.661  0.00  0.00    -0.040 A 
ATOM     30  H28 821 d   1      18.821  28.479  18.185  0.00  0.00     0.084 H 
ATOM     31  C60 821 d   1      16.885  25.581  18.005  0.00  0.00    -0.027 A 
ATOM     32  C61 821 d   1      17.450  24.908  19.115  0.00  0.00    -0.064 A 
ATOM     33  H29 821 d   1      17.051  23.938  19.390  0.00  0.00     0.085 H 
BRANCH  29  34
ATOM     34  C65 821 d   1      16.706  27.846  16.603  0.00  0.00     0.040 C 
ATOM     35  H30 821 d   1      16.399  27.251  15.730  0.00  0.00     0.056 H 
ATOM     36  H31 821 d   1      17.428  28.613  16.288  0.00  0.00     0.056 H 
BRANCH  34  37
ATOM     37  C66 821 d   1      15.403  28.560  17.265  0.00  0.00     0.176 C 
ATOM     38  O69 821 d   1      14.565  29.027  16.549  0.00  0.00    -0.648 OA
ATOM     39  O70 821 d   1      15.224  28.586  18.643  0.00  0.00    -0.648 OA
ENDBRANCH  34  37
ENDBRANCH  29  34
BRANCH  31  40
ATOM     40  C71 821 d   1      16.055  24.715  17.188  0.00  0.00     0.041 C 
ATOM     41  H32 821 d   1      15.176  25.297  16.874  0.00  0.00     0.081 H 
ATOM     42  H33 821 d   1      15.731  23.874  17.819  0.00  0.00     0.081 H 
BRANCH  40  43
ATOM     43  O72 821 d   1      16.615  24.200  16.084  0.00  0.00    -0.396 OA
ATOM     44  H34 821 d   1      15.981  23.654  15.634  0.00  0.00     0.209 HD
ENDBRANCH  40  43
ENDBRANCH  31  40
ENDBRANCH  23  25
BRANCH  22  45
ATOM     45  N3  821 d   1      20.199  26.722  22.111  0.00  0.00    -0.323 N 
ATOM     46  C4  821 d   1      19.453  27.436  22.961  0.00  0.00     0.218 C 
ATOM     47  O9  821 d   1      18.505  26.925  23.544  0.00  0.00    -0.274 OA
ATOM     48  H2  821 d   1      20.941  27.145  21.591  0.00  0.00     0.169 HD
BRANCH  46  49
ATOM     49  C5  821 d   1      19.914  28.858  23.291  0.00  0.00    -0.003 C 
ATOM     50  H3  821 d   1      19.207  29.318  23.997  0.00  0.00     0.040 H 
ATOM     51  H4  821 d   1      19.951  29.455  22.368  0.00  0.00     0.040 H 
ATOM     52  H5  821 d   1      20.915  28.823  23.745  0.00  0.00     0.040 H 
ENDBRANCH  46  49
ENDBRANCH  22  45
ENDBRANCH  19  22
ENDBRANCH   1  18
BRANCH   7  53
ATOM     53  C30 821 d   1      23.341  19.777  23.819  0.00  0.00     0.021 C 
ATOM     54  H16 821 d   1      24.190  19.671  24.511  0.00  0.00     0.071 H 
ATOM     55  H17 821 d   1      23.684  20.250  22.887  0.00  0.00     0.071 H 
BRANCH  53  56
ATOM     56  C31 821 d   1      22.789  18.419  23.506  0.00  0.00    -0.040 A 
ATOM     57  C34 821 d   1      23.284  17.204  24.041  0.00  0.00    -0.074 A 
ATOM     58  C35 821 d   1      22.573  15.995  23.751  0.00  0.00    -0.072 A 
ATOM     59  H18 821 d   1      24.178  17.190  24.654  0.00  0.00     0.084 H 
ATOM     60  C36 821 d   1      21.392  15.976  22.945  0.00  0.00    -0.026 A 
ATOM     61  H19 821 d   1      22.944  15.061  24.157  0.00  0.00     0.084 H 
ATOM     62  C37 821 d   1      20.881  17.185  22.466  0.00  0.00    -0.072 A 
ATOM     63  C38 821 d   1      21.589  18.393  22.728  0.00  0.00    -0.074 A 
ATOM     64  H20 821 d   1      19.956  17.203  21.901  0.00  0.00     0.084 H 
ATOM     65  H21 821 d   1      21.206  19.323  22.325  0.00  0.00     0.084 H 
BRANCH  60  66
ATOM     66  C43 821 d   1      20.701  14.703  22.522  0.00  0.00    -0.026 A 
ATOM     67  C44 821 d   1      21.436  13.452  22.465  0.00  0.00    -0.072 A 
ATOM     68  C45 821 d   1      20.697  12.236  22.256  0.00  0.00    -0.082 A 
ATOM     69  H22 821 d   1      22.514  13.435  22.577  0.00  0.00     0.084 H 
ATOM     70  C46 821 d   1      19.309  12.272  22.105  0.00  0.00    -0.083 A 
ATOM     71  H23 821 d   1      21.220  11.287  22.215  0.00  0.00     0.083 H 
ATOM     72  C47 821 d   1      18.608  13.509  22.031  0.00  0.00    -0.082 A 
ATOM     73  H24 821 d   1      18.756  11.342  22.043  0.00  0.00     0.083 H 
ATOM     74  C48 821 d   1      19.291  14.711  22.237  0.00  0.00    -0.072 A 
ATOM     75  H25 821 d   1      17.546  13.519  21.815  0.00  0.00     0.083 H 
ATOM     76  H26 821 d   1      18.756  15.652  22.182  0.00  0.00     0.084 H 
ENDBRANCH  60  66
ENDBRANCH  53  56
ENDBRANCH   7  53
TORSDOF 12
