REMARK  13 active torsions:
REMARK  status: ('A' for Active; 'I' for Inactive)
REMARK    1  A    between atoms: C1_1  and  C7_7 
REMARK    2  A    between atoms: C4_4  and  C40_40 
REMARK    3  A    between atoms: C5_5  and  C37_37 
REMARK    4  A    between atoms: C7_7  and  C8_8 
REMARK    5  A    between atoms: C8_8  and  C9_9 
REMARK    6  A    between atoms: C8_8  and  N12_12 
REMARK       I    between atoms: C9_9  and  N10_10 
REMARK    7  A    between atoms: N10_10  and  C16_16 
REMARK       I    between atoms: N12_12  and  C13_13 
REMARK    8  A    between atoms: C13_13  and  C15_15 
REMARK    9  A    between atoms: N18_18  and  C22_22 
REMARK   10  A    between atoms: C22_22  and  C23_23 
REMARK   11  A    between atoms: C28_28  and  C31_31 
REMARK   12  A    between atoms: C40_40  and  C41_41 
REMARK   13  A    between atoms: C40_40  and  C76_44 
ROOT
ATOM      1  C16 852 d   1      20.277  22.246  24.606  0.00  0.00     0.089 C 
ATOM      2  C17 852 d   1      21.342  21.486  23.786  0.00  0.00     0.242 C 
ATOM      3  N18 852 d   1      22.152  20.667  24.557  0.00  0.00    -0.346 N 
ATOM      4  O19 852 d   1      21.401  21.620  22.546  0.00  0.00    -0.271 OA
ATOM      5  C20 852 d   1      21.998  20.479  26.008  0.00  0.00    -0.002 C 
ATOM      6  C21 852 d   1      20.735  19.659  26.195  0.00  0.00    -0.050 C 
ATOM      7  C24 852 d   1      19.523  20.542  26.341  0.00  0.00    -0.061 C 
ATOM      8  C25 852 d   1      19.181  21.293  25.063  0.00  0.00    -0.038 C 
ATOM      9  H12 852 d   1      20.746  22.723  25.480  0.00  0.00     0.087 H 
ATOM     10  H13 852 d   1      21.899  21.452  26.511  0.00  0.00     0.064 H 
ATOM     11  H14 852 d   1      22.866  19.942  26.418  0.00  0.00     0.064 H 
ATOM     12  H15 852 d   1      20.839  19.042  27.100  0.00  0.00     0.035 H 
ATOM     13  H16 852 d   1      20.599  19.006  25.320  0.00  0.00     0.035 H 
ATOM     14  H19 852 d   1      19.717  21.275  27.138  0.00  0.00     0.033 H 
ATOM     15  H20 852 d   1      18.663  19.915  26.620  0.00  0.00     0.033 H 
ATOM     16  H21 852 d   1      19.004  20.558  24.264  0.00  0.00     0.036 H 
ATOM     17  H22 852 d   1      18.264  21.875  25.236  0.00  0.00     0.036 H 
ENDROOT
BRANCH   1  18
ATOM     18  N10 852 d   1      19.687  23.240  23.751  0.00  0.00    -0.346 N 
ATOM     19  C9  852 d   1      20.439  24.317  23.395  0.00  0.00     0.241 C 
ATOM     20  O11 852 d   1      21.605  24.551  23.776  0.00  0.00    -0.271 OA
ATOM     21  H7  852 d   1      18.747  23.142  23.426  0.00  0.00     0.163 HD
BRANCH  19  22
ATOM     22  C8  852 d   1      19.682  25.231  22.418  0.00  0.00     0.093 C 
ATOM     23  H6  852 d   1      18.598  25.165  22.595  0.00  0.00     0.088 H 
BRANCH  22  24
ATOM     24  C7  852 d   1      20.013  24.763  21.007  0.00  0.00    -0.014 C 
ATOM     25  H4  852 d   1      21.091  24.865  20.816  0.00  0.00     0.043 H 
ATOM     26  H5  852 d   1      19.715  23.712  20.875  0.00  0.00     0.043 H 
BRANCH  24  27
ATOM     27  C1  852 d   1      19.238  25.641  20.078  0.00  0.00    -0.055 A 
ATOM     28  C2  852 d   1      17.893  25.338  19.792  0.00  0.00    -0.076 A 
ATOM     29  C3  852 d   1      17.174  26.197  18.959  0.00  0.00    -0.074 A 
ATOM     30  H1  852 d   1      17.425  24.454  20.211  0.00  0.00     0.084 H 
ATOM     31  C4  852 d   1      17.780  27.379  18.501  0.00  0.00    -0.017 A 
ATOM     32  H2  852 d   1      16.158  25.954  18.668  0.00  0.00     0.084 H 
ATOM     33  C5  852 d   1      19.147  27.735  18.842  0.00  0.00     0.049 A 
ATOM     34  C6  852 d   1      19.908  26.810  19.598  0.00  0.00    -0.060 A 
ATOM     35  H3  852 d   1      20.958  26.982  19.805  0.00  0.00     0.086 H 
BRANCH  31  36
ATOM     36  C40 852 d   1      16.905  28.234  17.628  0.00  0.00     0.140 C 
ATOM     37  H32 852 d   1      17.332  29.177  18.000  0.00  0.00     0.081 H 
BRANCH  36  38
ATOM     38  C41 852 d   1      17.230  28.495  16.158  0.00  0.00     0.192 C 
ATOM     39  O42 852 d   1      17.365  27.356  15.519  0.00  0.00    -0.647 OA
ATOM     40  O43 852 d   1      17.420  29.555  15.668  0.00  0.00    -0.647 OA
ENDBRANCH  36  38
BRANCH  36  41
ATOM     41  C76 852 d   1      15.471  28.571  17.994  0.00  0.00     0.192 C 
ATOM     42  O78 852 d   1      14.769  28.732  17.067  0.00  0.00    -0.647 OA
ATOM     43  O79 852 d   1      15.196  28.844  19.245  0.00  0.00    -0.647 OA
ENDBRANCH  36  41
ENDBRANCH  31  36
BRANCH  33  44
ATOM     44  C37 852 d   1      19.835  29.042  18.452  0.00  0.00     0.210 C 
ATOM     45  O38 852 d   1      19.534  30.212  19.105  0.00  0.00    -0.644 OA
ATOM     46  O39 852 d   1      20.626  29.043  17.573  0.00  0.00    -0.644 OA
ENDBRANCH  33  44
ENDBRANCH  24  27
ENDBRANCH  22  24
BRANCH  22  47
ATOM     47  N12 852 d   1      20.128  26.603  22.604  0.00  0.00    -0.348 N 
ATOM     48  C13 852 d   1      19.327  27.501  23.164  0.00  0.00     0.214 C 
ATOM     49  O14 852 d   1      18.231  27.244  23.643  0.00  0.00    -0.274 OA
ATOM     50  H8  852 d   1      21.045  26.872  22.308  0.00  0.00     0.163 HD
BRANCH  48  51
ATOM     51  C15 852 d   1      19.866  28.937  23.053  0.00  0.00    -0.003 C 
ATOM     52  H9  852 d   1      19.161  29.631  23.533  0.00  0.00     0.040 H 
ATOM     53  H10 852 d   1      19.979  29.205  21.992  0.00  0.00     0.040 H 
ATOM     54  H11 852 d   1      20.843  29.002  23.554  0.00  0.00     0.040 H 
ENDBRANCH  48  51
ENDBRANCH  22  47
ENDBRANCH  19  22
ENDBRANCH   1  18
BRANCH   3  55
ATOM     55  C22 852 d   1      23.131  19.821  23.785  0.00  0.00     0.021 C 
ATOM     56  H17 852 d   1      24.007  19.624  24.421  0.00  0.00     0.071 H 
ATOM     57  H18 852 d   1      23.446  20.374  22.888  0.00  0.00     0.071 H 
BRANCH  55  58
ATOM     58  C23 852 d   1      22.526  18.486  23.353  0.00  0.00    -0.040 A 
ATOM     59  C26 852 d   1      21.344  18.432  22.519  0.00  0.00    -0.074 A 
ATOM     60  C27 852 d   1      20.705  17.190  22.262  0.00  0.00    -0.072 A 
ATOM     61  H23 852 d   1      20.945  19.343  22.089  0.00  0.00     0.084 H 
ATOM     62  C28 852 d   1      21.310  16.044  22.851  0.00  0.00    -0.026 A 
ATOM     63  H24 852 d   1      19.810  17.119  21.654  0.00  0.00     0.084 H 
ATOM     64  C29 852 d   1      22.475  16.061  23.640  0.00  0.00    -0.072 A 
ATOM     65  C30 852 d   1      23.084  17.298  23.902  0.00  0.00    -0.074 A 
ATOM     66  H25 852 d   1      22.892  15.142  24.035  0.00  0.00     0.084 H 
ATOM     67  H26 852 d   1      23.974  17.348  24.519  0.00  0.00     0.084 H 
BRANCH  62  68
ATOM     68  C31 852 d   1      20.649  14.726  22.615  0.00  0.00    -0.026 A 
ATOM     69  C32 852 d   1      21.456  13.542  22.467  0.00  0.00    -0.072 A 
ATOM     70  C33 852 d   1      20.799  12.311  22.136  0.00  0.00    -0.082 A 
ATOM     71  H27 852 d   1      22.531  13.581  22.602  0.00  0.00     0.084 H 
ATOM     72  C34 852 d   1      19.413  12.283  21.975  0.00  0.00    -0.083 A 
ATOM     73  H28 852 d   1      21.378  11.403  22.011  0.00  0.00     0.083 H 
ATOM     74  C35 852 d   1      18.616  13.423  22.137  0.00  0.00    -0.082 A 
ATOM     75  H29 852 d   1      18.936  11.345  21.715  0.00  0.00     0.083 H 
ATOM     76  C36 852 d   1      19.225  14.658  22.480  0.00  0.00    -0.072 A 
ATOM     77  H30 852 d   1      17.542  13.363  22.001  0.00  0.00     0.083 H 
ATOM     78  H31 852 d   1      18.618  15.542  22.638  0.00  0.00     0.084 H 
ENDBRANCH  62  68
ENDBRANCH  55  58
ENDBRANCH   3  55
TORSDOF 13
