REMARK  13 active torsions:
REMARK  status: ('A' for Active; 'I' for Inactive)
REMARK    1  A    between atoms: C75_43  and  O76_1 
REMARK    2  A    between atoms: O30_31  and  C3_4 
REMARK    3  A    between atoms: C4_5  and  C75_43 
REMARK    4  A    between atoms: C6_7  and  C11_12 
REMARK    5  A    between atoms: P7_8  and  O30_31 
REMARK    6  A    between atoms: C11_12  and  C12_13 
REMARK    7  A    between atoms: C12_13  and  C13_14 
REMARK    8  A    between atoms: C12_13  and  N15_16 
REMARK       I    between atoms: C13_14  and  N14_15 
REMARK    9  A    between atoms: N14_15  and  C20_21 
REMARK       I    between atoms: N15_16  and  C16_17 
REMARK   10  A    between atoms: C16_17  and  C17_18 
REMARK   11  A    between atoms: N25_26  and  C27_28 
REMARK   12  A    between atoms: C27_28  and  C28_29 
REMARK   13  A    between atoms: C55_34  and  C62_37 
ROOT
ATOM      1  C20 687 d   1      20.341  22.405  24.291  0.00  0.00     0.089 C 
ATOM      2  C21 687 d   1      19.260  21.538  24.929  0.00  0.00    -0.038 C 
ATOM      3  C22 687 d   1      19.729  20.688  26.117  0.00  0.00    -0.061 C 
ATOM      4  C23 687 d   1      20.843  19.653  26.028  0.00  0.00    -0.050 C 
ATOM      5  C24 687 d   1      22.097  20.411  25.640  0.00  0.00    -0.002 C 
ATOM      6  N25 687 d   1      22.213  20.725  24.202  0.00  0.00    -0.346 N 
ATOM      7  C26 687 d   1      21.388  21.564  23.457  0.00  0.00     0.242 C 
ATOM      8  O29 687 d   1      21.411  21.614  22.203  0.00  0.00    -0.271 OA
ATOM      9  H13 687 d   1      20.867  22.970  25.075  0.00  0.00     0.087 H 
ATOM     10  H14 687 d   1      18.867  20.859  24.158  0.00  0.00     0.036 H 
ATOM     11  H15 687 d   1      18.454  22.200  25.280  0.00  0.00     0.036 H 
ATOM     12  H16 687 d   1      18.840  20.142  26.464  0.00  0.00     0.033 H 
ATOM     13  H17 687 d   1      20.046  21.403  26.891  0.00  0.00     0.033 H 
ATOM     14  H18 687 d   1      20.602  18.899  25.264  0.00  0.00     0.035 H 
ATOM     15  H19 687 d   1      20.982  19.159  27.001  0.00  0.00     0.035 H 
ATOM     16  H20 687 d   1      22.967  19.803  25.928  0.00  0.00     0.064 H 
ATOM     17  H21 687 d   1      22.110  21.358  26.199  0.00  0.00     0.064 H 
ENDROOT
BRANCH   1  18
ATOM     18  N14 687 d   1      19.690  23.294  23.382  0.00  0.00    -0.346 N 
ATOM     19  C13 687 d   1      20.333  24.385  22.880  0.00  0.00     0.241 C 
ATOM     20  O19 687 d   1      21.500  24.716  23.154  0.00  0.00    -0.271 OA
ATOM     21  H8  687 d   1      18.745  23.112  23.109  0.00  0.00     0.163 HD
BRANCH  19  22
ATOM     22  C12 687 d   1      19.502  25.216  21.918  0.00  0.00     0.093 C 
ATOM     23  H7  687 d   1      18.449  25.190  22.235  0.00  0.00     0.088 H 
BRANCH  22  24
ATOM     24  C11 687 d   1      19.618  24.705  20.516  0.00  0.00    -0.014 C 
ATOM     25  H5  687 d   1      20.667  24.782  20.195  0.00  0.00     0.043 H 
ATOM     26  H6  687 d   1      19.305  23.651  20.495  0.00  0.00     0.043 H 
BRANCH  24  27
ATOM     27  C6  687 d   1      18.749  25.495  19.550  0.00  0.00    -0.055 C 
ATOM     28  C1  687 d   1      19.227  26.755  19.096  0.00  0.00    -0.074 C 
ATOM     29  C2  687 d   1      18.440  27.519  18.227  0.00  0.00    -0.049 C 
ATOM     30  H2  687 d   1      20.194  27.121  19.421  0.00  0.00     0.084 H 
ATOM     31  C3  687 d   1      17.210  26.993  17.708  0.00  0.00     0.091 C 
ATOM     32  H3  687 d   1      18.762  28.515  17.944  0.00  0.00     0.087 H 
ATOM     33  C4  687 d   1      16.805  25.691  18.068  0.00  0.00    -0.000 C 
ATOM     34  C5  687 d   1      17.534  24.984  19.059  0.00  0.00    -0.066 C 
ATOM     35  H4  687 d   1      17.152  24.044  19.440  0.00  0.00     0.085 H 
BRANCH  31  36
ATOM     36  O30 687 d   1      16.457  27.816  16.814  0.00  0.00    -0.240 OA
BRANCH  36  37
ATOM     37  P7  687 d   1      15.660  29.019  17.587  0.00  0.00     0.427 P 
ATOM     38  O8  687 d   1      14.483  29.294  16.645  0.00  0.00    -0.617 OA
ATOM     39  O9  687 d   1      16.564  30.336  17.619  0.00  0.00    -0.617 OA
ATOM     40  O10 687 d   1      15.280  28.670  18.972  0.00  0.00    -0.617 OA
ENDBRANCH  36  37
ENDBRANCH  31  36
BRANCH  33  41
ATOM     41  C75 687 d   1      16.037  24.878  17.156  0.00  0.00     0.043 C 
ATOM     42  H33 687 d   1      15.770  23.951  17.684  0.00  0.00     0.081 H 
ATOM     43  H34 687 d   1      15.121  25.435  16.907  0.00  0.00     0.081 H 
BRANCH  41  44
ATOM     44  O76 687 d   1      16.638  24.523  15.976  0.00  0.00    -0.396 OA
ATOM     45  H1  687 d   1      16.039  23.993  15.464  0.00  0.00     0.209 HD
ENDBRANCH  41  44
ENDBRANCH  33  41
ENDBRANCH  24  27
ENDBRANCH  22  24
BRANCH  22  46
ATOM     46  N15 687 d   1      19.985  26.580  21.919  0.00  0.00    -0.348 N 
ATOM     47  C16 687 d   1      19.361  27.450  22.695  0.00  0.00     0.214 C 
ATOM     48  O18 687 d   1      18.541  27.152  23.561  0.00  0.00    -0.274 OA
ATOM     49  H9  687 d   1      20.762  26.855  21.353  0.00  0.00     0.163 HD
BRANCH  47  50
ATOM     50  C17 687 d   1      19.824  28.911  22.401  0.00  0.00    -0.003 C 
ATOM     51  H10 687 d   1      19.286  29.606  23.062  0.00  0.00     0.040 H 
ATOM     52  H11 687 d   1      19.606  29.161  21.352  0.00  0.00     0.040 H 
ATOM     53  H12 687 d   1      20.906  28.996  22.581  0.00  0.00     0.040 H 
ENDBRANCH  47  50
ENDBRANCH  22  46
ENDBRANCH  19  22
ENDBRANCH   1  18
BRANCH   6  54
ATOM     54  C27 687 d   1      23.129  19.870  23.388  0.00  0.00     0.021 C 
ATOM     55  H22 687 d   1      24.095  19.768  23.904  0.00  0.00     0.071 H 
ATOM     56  H23 687 d   1      23.287  20.331  22.402  0.00  0.00     0.071 H 
BRANCH  54  57
ATOM     57  C28 687 d   1      22.499  18.508  23.216  0.00  0.00    -0.040 A 
ATOM     58  C53 687 d   1      23.035  17.368  23.884  0.00  0.00    -0.074 A 
ATOM     59  C54 687 d   1      22.461  16.093  23.657  0.00  0.00    -0.072 A 
ATOM     60  H24 687 d   1      23.875  17.476  24.560  0.00  0.00     0.084 H 
ATOM     61  C55 687 d   1      21.355  15.991  22.777  0.00  0.00    -0.026 A 
ATOM     62  H25 687 d   1      22.860  15.212  24.147  0.00  0.00     0.084 H 
ATOM     63  C56 687 d   1      20.782  17.136  22.192  0.00  0.00    -0.072 A 
ATOM     64  C57 687 d   1      21.328  18.427  22.395  0.00  0.00    -0.074 A 
ATOM     65  H26 687 d   1      19.901  17.027  21.570  0.00  0.00     0.084 H 
ATOM     66  H27 687 d   1      20.882  19.310  21.951  0.00  0.00     0.084 H 
BRANCH  61  67
ATOM     67  C62 687 d   1      20.742  14.679  22.505  0.00  0.00    -0.026 A 
ATOM     68  C63 687 d   1      19.304  14.580  22.361  0.00  0.00    -0.072 A 
ATOM     69  C64 687 d   1      18.677  13.316  22.105  0.00  0.00    -0.082 A 
ATOM     70  H28 687 d   1      18.695  15.472  22.448  0.00  0.00     0.084 H 
ATOM     71  C65 687 d   1      19.486  12.145  22.020  0.00  0.00    -0.083 A 
ATOM     72  H29 687 d   1      17.602  13.252  21.978  0.00  0.00     0.083 H 
ATOM     73  C66 687 d   1      20.888  12.241  22.158  0.00  0.00    -0.082 A 
ATOM     74  H30 687 d   1      19.024  11.179  21.849  0.00  0.00     0.083 H 
ATOM     75  C67 687 d   1      21.538  13.501  22.409  0.00  0.00    -0.072 A 
ATOM     76  H31 687 d   1      21.490  11.344  22.073  0.00  0.00     0.083 H 
ATOM     77  H32 687 d   1      22.615  13.553  22.523  0.00  0.00     0.084 H 
ENDBRANCH  61  67
ENDBRANCH  54  57
ENDBRANCH   6  54
TORSDOF 13
