REMARK  15 active torsions:
REMARK  status: ('A' for Active; 'I' for Inactive)
REMARK    1  A    between atoms: C1_1  and  C7_7 
REMARK    2  A    between atoms: C4_4  and  C40_40 
REMARK    3  A    between atoms: C5_5  and  C37_37 
REMARK    4  A    between atoms: C7_7  and  C8_8 
REMARK    5  A    between atoms: C8_8  and  C9_9 
REMARK    6  A    between atoms: C8_8  and  N12_12 
REMARK       I    between atoms: C9_9  and  N10_10 
REMARK    7  A    between atoms: N10_10  and  C16_16 
REMARK       I    between atoms: N12_12  and  C13_13 
REMARK    8  A    between atoms: C13_13  and  C15_15 
REMARK    9  A    between atoms: N18_18  and  C22_22 
REMARK   10  A    between atoms: C22_22  and  C23_23 
REMARK   11  A    between atoms: C28_28  and  C31_31 
REMARK   12  A    between atoms: C37_37  and  O38_38 
REMARK   13  A    between atoms: O38_38  and  C81_48 
REMARK   14  A    between atoms: C40_40  and  C41_41 
REMARK   15  A    between atoms: C40_40  and  C75_44 
ROOT
ATOM      1  C16 903 d   1      20.461  22.275  24.480  0.00  0.00     0.089 C 
ATOM      2  C17 903 d   1      21.464  21.508  23.488  0.00  0.00     0.242 C 
ATOM      3  N18 903 d   1      22.422  20.616  24.285  0.00  0.00    -0.346 N 
ATOM      4  O19 903 d   1      21.497  21.636  22.217  0.00  0.00    -0.271 OA
ATOM      5  C20 903 d   1      22.262  20.237  25.720  0.00  0.00    -0.002 C 
ATOM      6  C21 903 d   1      20.939  19.691  26.156  0.00  0.00    -0.050 C 
ATOM      7  C24 903 d   1      19.926  20.784  26.530  0.00  0.00    -0.061 C 
ATOM      8  C25 903 d   1      19.400  21.579  25.360  0.00  0.00    -0.038 C 
ATOM      9  H12 903 d   1      21.140  22.789  25.176  0.00  0.00     0.087 H 
ATOM     10  H13 903 d   1      22.459  21.137  26.321  0.00  0.00     0.064 H 
ATOM     11  H14 903 d   1      23.021  19.473  25.944  0.00  0.00     0.064 H 
ATOM     12  H15 903 d   1      21.099  19.047  27.034  0.00  0.00     0.035 H 
ATOM     13  H16 903 d   1      20.520  19.093  25.334  0.00  0.00     0.035 H 
ATOM     14  H19 903 d   1      20.415  21.481  27.227  0.00  0.00     0.033 H 
ATOM     15  H20 903 d   1      19.072  20.304  27.030  0.00  0.00     0.033 H 
ATOM     16  H21 903 d   1      18.828  20.893  24.718  0.00  0.00     0.036 H 
ATOM     17  H22 903 d   1      18.729  22.356  25.756  0.00  0.00     0.036 H 
ENDROOT
BRANCH   1  18
ATOM     18  N10 903 d   1      19.605  23.308  23.824  0.00  0.00    -0.346 N 
ATOM     19  C9  903 d   1      20.388  24.409  23.398  0.00  0.00     0.241 C 
ATOM     20  O11 903 d   1      21.566  24.711  23.778  0.00  0.00    -0.271 OA
ATOM     21  H7  903 d   1      18.615  23.233  23.702  0.00  0.00     0.163 HD
BRANCH  19  22
ATOM     22  C8  903 d   1      19.621  25.209  22.341  0.00  0.00     0.093 C 
ATOM     23  H6  903 d   1      18.538  25.170  22.532  0.00  0.00     0.088 H 
BRANCH  22  24
ATOM     24  C7  903 d   1      19.910  24.663  20.957  0.00  0.00    -0.014 C 
ATOM     25  H4  903 d   1      20.987  24.726  20.741  0.00  0.00     0.043 H 
ATOM     26  H5  903 d   1      19.582  23.615  20.885  0.00  0.00     0.043 H 
BRANCH  24  27
ATOM     27  C1  903 d   1      19.135  25.517  19.993  0.00  0.00    -0.055 A 
ATOM     28  C2  903 d   1      17.959  25.090  19.329  0.00  0.00    -0.076 A 
ATOM     29  C3  903 d   1      17.228  26.083  18.570  0.00  0.00    -0.071 A 
ATOM     30  H1  903 d   1      17.620  24.062  19.387  0.00  0.00     0.084 H 
ATOM     31  C4  903 d   1      17.761  27.425  18.369  0.00  0.00     0.019 A 
ATOM     32  H2  903 d   1      16.266  25.824  18.143  0.00  0.00     0.084 H 
ATOM     33  C5  903 d   1      19.040  27.844  19.033  0.00  0.00     0.050 A 
ATOM     34  C6  903 d   1      19.672  26.885  19.845  0.00  0.00    -0.060 A 
ATOM     35  H3  903 d   1      20.577  27.157  20.376  0.00  0.00     0.086 H 
BRANCH  31  36
ATOM     36  C40 903 d   1      17.058  28.312  17.272  0.00  0.00     0.305 C 
ATOM     37  F80 903 d   1      17.372  28.216  15.721  0.00  0.00    -0.213 F 
BRANCH  36  38
ATOM     38  C41 903 d   1      17.299  29.787  17.194  0.00  0.00     0.231 C 
ATOM     39  O42 903 d   1      17.342  30.327  18.567  0.00  0.00    -0.645 OA
ATOM     40  O43 903 d   1      17.301  30.362  16.085  0.00  0.00    -0.645 OA
ENDBRANCH  36  38
BRANCH  36  41
ATOM     41  C75 903 d   1      15.572  28.662  17.891  0.00  0.00     0.231 C 
ATOM     42  O76 903 d   1      14.775  28.710  17.072  0.00  0.00    -0.645 OA
ATOM     43  O77 903 d   1      15.162  29.016  19.058  0.00  0.00    -0.645 OA
ENDBRANCH  36  41
ENDBRANCH  31  36
BRANCH  33  44
ATOM     44  C37 903 d   1      19.846  29.209  18.907  0.00  0.00     0.293 C 
ATOM     45  O39 903 d   1      20.176  29.652  17.855  0.00  0.00    -0.259 OA
BRANCH  44  46
ATOM     46  O38 903 d   1      19.840  29.834  20.137  0.00  0.00    -0.323 OA
BRANCH  46  47
ATOM     47  C81 903 d   1      20.201  31.006  21.075  0.00  0.00     0.013 C 
ATOM     48  H32 903 d   1      19.817  30.799  22.085  0.00  0.00     0.067 H 
ATOM     49  H33 903 d   1      19.748  31.933  20.694  0.00  0.00     0.067 H 
ATOM     50  H34 903 d   1      21.294  31.121  21.114  0.00  0.00     0.067 H 
ENDBRANCH  46  47
ENDBRANCH  44  46
ENDBRANCH  33  44
ENDBRANCH  24  27
ENDBRANCH  22  24
BRANCH  22  51
ATOM     51  N12 903 d   1      20.135  26.624  22.483  0.00  0.00    -0.348 N 
ATOM     52  C13 903 d   1      19.336  27.497  23.094  0.00  0.00     0.214 C 
ATOM     53  O14 903 d   1      18.118  27.308  23.273  0.00  0.00    -0.274 OA
ATOM     54  H8  903 d   1      21.033  26.892  22.134  0.00  0.00     0.163 HD
BRANCH  52  55
ATOM     55  C15 903 d   1      20.085  28.856  23.491  0.00  0.00    -0.003 C 
ATOM     56  H9  903 d   1      19.376  29.533  23.990  0.00  0.00     0.040 H 
ATOM     57  H10 903 d   1      20.476  29.338  22.583  0.00  0.00     0.040 H 
ATOM     58  H11 903 d   1      20.918  28.630  24.173  0.00  0.00     0.040 H 
ENDBRANCH  52  55
ENDBRANCH  22  51
ENDBRANCH  19  22
ENDBRANCH   1  18
BRANCH   3  59
ATOM     59  C22 903 d   1      23.522  19.897  23.615  0.00  0.00     0.021 C 
ATOM     60  H17 903 d   1      24.379  19.770  24.293  0.00  0.00     0.071 H 
ATOM     61  H18 903 d   1      23.847  20.431  22.710  0.00  0.00     0.071 H 
BRANCH  59  62
ATOM     62  C23 903 d   1      22.931  18.608  23.275  0.00  0.00    -0.040 A 
ATOM     63  C26 903 d   1      23.391  17.484  23.945  0.00  0.00    -0.074 A 
ATOM     64  C27 903 d   1      22.633  16.282  23.781  0.00  0.00    -0.072 A 
ATOM     65  H23 903 d   1      24.281  17.515  24.563  0.00  0.00     0.084 H 
ATOM     66  C28 903 d   1      21.487  16.193  23.009  0.00  0.00    -0.026 A 
ATOM     67  H24 903 d   1      22.976  15.389  24.291  0.00  0.00     0.084 H 
ATOM     68  C29 903 d   1      21.014  17.340  22.309  0.00  0.00    -0.072 A 
ATOM     69  C30 903 d   1      21.751  18.566  22.409  0.00  0.00    -0.074 A 
ATOM     70  H25 903 d   1      20.112  17.287  21.711  0.00  0.00     0.084 H 
ATOM     71  H26 903 d   1      21.441  19.444  21.855  0.00  0.00     0.084 H 
BRANCH  66  72
ATOM     72  C31 903 d   1      20.877  14.890  22.651  0.00  0.00    -0.026 C 
ATOM     73  C32 903 d   1      19.407  14.797  22.496  0.00  0.00    -0.072 C 
ATOM     74  C33 903 d   1      18.807  13.516  22.305  0.00  0.00    -0.082 C 
ATOM     75  H27 903 d   1      18.794  15.691  22.527  0.00  0.00     0.084 H 
ATOM     76  C34 903 d   1      19.640  12.370  22.247  0.00  0.00    -0.083 C 
ATOM     77  H28 903 d   1      17.732  13.421  22.206  0.00  0.00     0.083 H 
ATOM     78  C35 903 d   1      21.070  12.515  22.216  0.00  0.00    -0.082 C 
ATOM     79  H29 903 d   1      19.197  11.381  22.226  0.00  0.00     0.083 H 
ATOM     80  C36 903 d   1      21.754  13.769  22.434  0.00  0.00    -0.072 C 
ATOM     81  H30 903 d   1      21.669  11.634  22.018  0.00  0.00     0.083 H 
ATOM     82  H31 903 d   1      22.834  13.858  22.434  0.00  0.00     0.084 H 
ENDBRANCH  66  72
ENDBRANCH  59  62
ENDBRANCH   3  59
TORSDOF 15
