REMARK  11 active torsions:
REMARK  status: ('A' for Active; 'I' for Inactive)
REMARK    1  A    between atoms: C1_1  and  C18_14 
REMARK    2  A    between atoms: C4_4  and  C11_7 
REMARK    3  A    between atoms: C11_7  and  P14_10 
REMARK    4  A    between atoms: C18_14  and  C19_15 
REMARK    5  A    between atoms: C19_15  and  C22_16 
REMARK    6  A    between atoms: C19_15  and  N25_19 
REMARK       I    between atoms: C22_16  and  N23_17 
REMARK    7  A    between atoms: N23_17  and  C32_23 
REMARK       I    between atoms: N25_19  and  C26_20 
REMARK    8  A    between atoms: C26_20  and  C28_22 
REMARK    9  A    between atoms: N34_25  and  C42_29 
REMARK   10  A    between atoms: C42_29  and  C43_30 
REMARK   11  A    between atoms: C60_35  and  C67_38 
ROOT
ATOM      1  C32 822 d   1      20.577  22.341  25.085  0.00  0.00     0.089 C 
ATOM      2  C33 822 d   1      21.628  21.546  24.261  0.00  0.00     0.242 C 
ATOM      3  N34 822 d   1      22.433  20.607  24.969  0.00  0.00    -0.346 N 
ATOM      4  O37 822 d   1      21.759  21.665  23.038  0.00  0.00    -0.271 OA
ATOM      5  C38 822 d   1      22.257  20.268  26.396  0.00  0.00    -0.002 C 
ATOM      6  C39 822 d   1      20.935  19.543  26.611  0.00  0.00    -0.050 C 
ATOM      7  C46 822 d   1      19.763  20.543  26.823  0.00  0.00    -0.061 C 
ATOM      8  C49 822 d   1      19.448  21.442  25.581  0.00  0.00    -0.038 C 
ATOM      9  H13 822 d   1      21.061  22.854  25.930  0.00  0.00     0.087 H 
ATOM     10  H14 822 d   1      22.264  21.193  26.992  0.00  0.00     0.064 H 
ATOM     11  H15 822 d   1      23.084  19.618  26.718  0.00  0.00     0.064 H 
ATOM     12  H16 822 d   1      21.021  18.900  27.499  0.00  0.00     0.035 H 
ATOM     13  H17 822 d   1      20.720  18.923  25.728  0.00  0.00     0.035 H 
ATOM     14  H20 822 d   1      20.020  21.200  27.667  0.00  0.00     0.033 H 
ATOM     15  H21 822 d   1      18.859  19.966  27.069  0.00  0.00     0.033 H 
ATOM     16  H22 822 d   1      19.162  20.778  24.752  0.00  0.00     0.036 H 
ATOM     17  H23 822 d   1      18.598  22.088  25.844  0.00  0.00     0.036 H 
ENDROOT
BRANCH   1  18
ATOM     18  N23 822 d   1      19.966  23.275  24.180  0.00  0.00    -0.346 N 
ATOM     19  C22 822 d   1      20.696  24.299  23.618  0.00  0.00     0.241 C 
ATOM     20  O24 822 d   1      21.853  24.655  23.928  0.00  0.00    -0.271 OA
ATOM     21  H8  822 d   1      18.996  23.180  23.955  0.00  0.00     0.163 HD
BRANCH  19  22
ATOM     22  C19 822 d   1      19.948  25.017  22.521  0.00  0.00     0.093 C 
ATOM     23  H7  822 d   1      18.867  24.907  22.689  0.00  0.00     0.088 H 
BRANCH  22  24
ATOM     24  C18 822 d   1      20.307  24.395  21.177  0.00  0.00    -0.014 C 
ATOM     25  H5  822 d   1      21.356  24.622  20.936  0.00  0.00     0.043 H 
ATOM     26  H6  822 d   1      20.170  23.305  21.228  0.00  0.00     0.043 H 
BRANCH  24  27
ATOM     27  C1  822 d   1      19.424  24.957  20.125  0.00  0.00    -0.056 A 
ATOM     28  C2  822 d   1      19.980  25.896  19.251  0.00  0.00    -0.076 A 
ATOM     29  C3  822 d   1      19.192  26.379  18.181  0.00  0.00    -0.070 A 
ATOM     30  H1  822 d   1      20.996  26.247  19.391  0.00  0.00     0.084 H 
ATOM     31  C4  822 d   1      17.802  26.000  18.091  0.00  0.00     0.027 A 
ATOM     32  H2  822 d   1      19.629  27.030  17.433  0.00  0.00     0.084 H 
ATOM     33  C5  822 d   1      17.285  25.070  18.997  0.00  0.00    -0.070 A 
ATOM     34  C6  822 d   1      18.083  24.502  19.987  0.00  0.00    -0.076 A 
ATOM     35  H3  822 d   1      16.241  24.785  18.928  0.00  0.00     0.084 H 
ATOM     36  H4  822 d   1      17.691  23.730  20.639  0.00  0.00     0.084 H 
BRANCH  31  37
ATOM     37  C11 822 d   1      16.919  26.646  17.014  0.00  0.00     0.380 C 
ATOM     38  F12 822 d   1      15.889  25.817  16.710  0.00  0.00    -0.185 F 
ATOM     39  F13 822 d   1      17.614  26.876  15.872  0.00  0.00    -0.185 F 
BRANCH  37  40
ATOM     40  P14 822 d   1      16.322  28.346  17.448  0.00  0.00     0.339 P 
ATOM     41  O15 822 d   1      15.194  28.700  16.453  0.00  0.00    -0.635 OA
ATOM     42  O16 822 d   1      17.382  29.330  17.251  0.00  0.00    -0.635 OA
ATOM     43  O17 822 d   1      15.689  28.476  18.865  0.00  0.00    -0.635 OA
ENDBRANCH  37  40
ENDBRANCH  31  37
ENDBRANCH  24  27
ENDBRANCH  22  24
BRANCH  22  44
ATOM     44  N25 822 d   1      20.283  26.422  22.537  0.00  0.00    -0.348 N 
ATOM     45  C26 822 d   1      19.561  27.345  23.164  0.00  0.00     0.214 C 
ATOM     46  O27 822 d   1      18.620  27.065  23.898  0.00  0.00    -0.274 OA
ATOM     47  H9  822 d   1      21.104  26.717  22.049  0.00  0.00     0.163 HD
BRANCH  45  48
ATOM     48  C28 822 d   1      19.967  28.821  22.838  0.00  0.00    -0.003 C 
ATOM     49  H10 822 d   1      19.320  29.512  23.398  0.00  0.00     0.040 H 
ATOM     50  H11 822 d   1      19.851  29.003  21.759  0.00  0.00     0.040 H 
ATOM     51  H12 822 d   1      21.015  28.985  23.127  0.00  0.00     0.040 H 
ENDBRANCH  45  48
ENDBRANCH  22  44
ENDBRANCH  19  22
ENDBRANCH   1  18
BRANCH   3  52
ATOM     52  C42 822 d   1      23.385  19.725  24.236  0.00  0.00     0.021 C 
ATOM     53  H18 822 d   1      24.287  19.584  24.849  0.00  0.00     0.071 H 
ATOM     54  H19 822 d   1      23.659  20.206  23.285  0.00  0.00     0.071 H 
BRANCH  52  55
ATOM     55  C43 822 d   1      22.769  18.366  23.943  0.00  0.00    -0.040 A 
ATOM     56  C58 822 d   1      21.695  18.298  23.016  0.00  0.00    -0.074 A 
ATOM     57  C59 822 d   1      21.081  17.048  22.727  0.00  0.00    -0.072 A 
ATOM     58  H24 822 d   1      21.343  19.200  22.528  0.00  0.00     0.084 H 
ATOM     59  C60 822 d   1      21.603  15.930  23.390  0.00  0.00    -0.026 A 
ATOM     60  H25 822 d   1      20.254  16.965  22.031  0.00  0.00     0.084 H 
ATOM     61  C61 822 d   1      22.653  16.003  24.333  0.00  0.00    -0.072 A 
ATOM     62  C62 822 d   1      23.222  17.220  24.614  0.00  0.00    -0.074 A 
ATOM     63  H26 822 d   1      23.006  15.106  24.830  0.00  0.00     0.084 H 
ATOM     64  H27 822 d   1      24.015  17.295  25.349  0.00  0.00     0.084 H 
BRANCH  59  65
ATOM     65  C67 822 d   1      20.930  14.624  23.089  0.00  0.00    -0.026 A 
ATOM     66  C68 822 d   1      21.663  13.405  23.005  0.00  0.00    -0.072 A 
ATOM     67  C69 822 d   1      20.967  12.193  22.717  0.00  0.00    -0.082 A 
ATOM     68  H28 822 d   1      22.736  13.398  23.158  0.00  0.00     0.084 H 
ATOM     69  C70 822 d   1      19.583  12.175  22.533  0.00  0.00    -0.083 A 
ATOM     70  H29 822 d   1      21.525  11.267  22.639  0.00  0.00     0.083 H 
ATOM     71  C71 822 d   1      18.825  13.349  22.696  0.00  0.00    -0.082 A 
ATOM     72  H30 822 d   1      19.089  11.249  22.262  0.00  0.00     0.083 H 
ATOM     73  C72 822 d   1      19.501  14.572  22.955  0.00  0.00    -0.072 A 
ATOM     74  H31 822 d   1      17.744  13.321  22.625  0.00  0.00     0.083 H 
ATOM     75  H32 822 d   1      18.926  15.485  23.053  0.00  0.00     0.084 H 
ENDBRANCH  59  65
ENDBRANCH  52  55
ENDBRANCH   3  52
TORSDOF 11
