REMARK  12 active torsions:
REMARK  status: ('A' for Active; 'I' for Inactive)
REMARK    1  A    between atoms: C1_1  and  C10_7 
REMARK    2  A    between atoms: C4_4  and  C71_40 
REMARK    3  A    between atoms: C5_5  and  C68_37 
REMARK    4  A    between atoms: C10_7  and  C11_8 
REMARK    5  A    between atoms: C11_8  and  C14_9 
REMARK    6  A    between atoms: C11_8  and  N17_12 
REMARK       I    between atoms: C14_9  and  N15_10 
REMARK    7  A    between atoms: N15_10  and  C24_16 
REMARK       I    between atoms: N17_12  and  C18_13 
REMARK    8  A    between atoms: C18_13  and  C20_15 
REMARK    9  A    between atoms: N26_18  and  C32_22 
REMARK   10  A    between atoms: C32_22  and  C33_23 
REMARK   11  A    between atoms: C48_28  and  C55_31 
REMARK   12  A    between atoms: C71_40  and  C72_41 
ROOT
ATOM      1  C24 853 d   1      20.291  22.244  24.359  0.00  0.00     0.089 C 
ATOM      2  C25 853 d   1      21.362  21.421  23.530  0.00  0.00     0.242 C 
ATOM      3  N26 853 d   1      22.165  20.558  24.257  0.00  0.00    -0.346 N 
ATOM      4  O27 853 d   1      21.463  21.568  22.302  0.00  0.00    -0.271 OA
ATOM      5  C28 853 d   1      22.018  20.279  25.693  0.00  0.00    -0.002 C 
ATOM      6  C29 853 d   1      20.720  19.596  26.056  0.00  0.00    -0.050 C 
ATOM      7  C36 853 d   1      19.564  20.578  26.204  0.00  0.00    -0.061 C 
ATOM      8  C39 853 d   1      19.195  21.340  24.919  0.00  0.00    -0.038 C 
ATOM      9  H12 853 d   1      20.807  22.754  25.185  0.00  0.00     0.087 H 
ATOM     10  H13 853 d   1      22.071  21.233  26.238  0.00  0.00     0.064 H 
ATOM     11  H14 853 d   1      22.849  19.631  26.006  0.00  0.00     0.064 H 
ATOM     12  H15 853 d   1      20.856  19.065  27.010  0.00  0.00     0.035 H 
ATOM     13  H16 853 d   1      20.469  18.873  25.266  0.00  0.00     0.035 H 
ATOM     14  H19 853 d   1      19.838  21.316  26.972  0.00  0.00     0.033 H 
ATOM     15  H20 853 d   1      18.678  20.016  26.535  0.00  0.00     0.033 H 
ATOM     16  H21 853 d   1      18.938  20.600  24.147  0.00  0.00     0.036 H 
ATOM     17  H22 853 d   1      18.316  21.965  25.135  0.00  0.00     0.036 H 
ENDROOT
BRANCH   1  18
ATOM     18  N15 853 d   1      19.608  23.224  23.530  0.00  0.00    -0.346 N 
ATOM     19  C14 853 d   1      20.303  24.251  23.076  0.00  0.00     0.241 C 
ATOM     20  O16 853 d   1      21.434  24.543  23.461  0.00  0.00    -0.271 OA
ATOM     21  H7  853 d   1      18.638  23.123  23.309  0.00  0.00     0.163 HD
BRANCH  19  22
ATOM     22  C11 853 d   1      19.600  25.083  22.015  0.00  0.00     0.093 C 
ATOM     23  H6  853 d   1      18.520  25.056  22.223  0.00  0.00     0.088 H 
BRANCH  22  24
ATOM     24  C10 853 d   1      19.847  24.488  20.619  0.00  0.00    -0.014 C 
ATOM     25  H4  853 d   1      20.916  24.566  20.373  0.00  0.00     0.043 H 
ATOM     26  H5  853 d   1      19.545  23.430  20.614  0.00  0.00     0.043 H 
BRANCH  24  27
ATOM     27  C1  853 d   1      19.018  25.265  19.565  0.00  0.00    -0.055 A 
ATOM     28  C2  853 d   1      17.652  24.909  19.389  0.00  0.00    -0.076 A 
ATOM     29  C3  853 d   1      16.823  25.681  18.546  0.00  0.00    -0.075 A 
ATOM     30  H1  853 d   1      17.247  24.044  19.902  0.00  0.00     0.084 H 
ATOM     31  C4  853 d   1      17.412  26.752  17.784  0.00  0.00    -0.031 A 
ATOM     32  H2  853 d   1      15.762  25.471  18.474  0.00  0.00     0.084 H 
ATOM     33  C5  853 d   1      18.834  27.058  17.851  0.00  0.00     0.048 A 
ATOM     34  C6  853 d   1      19.622  26.327  18.808  0.00  0.00    -0.060 A 
ATOM     35  H3  853 d   1      20.666  26.576  18.957  0.00  0.00     0.086 H 
BRANCH  31  36
ATOM     36  C71 853 d   1      16.475  27.487  16.822  0.00  0.00     0.040 C 
ATOM     37  H32 853 d   1      16.039  26.745  16.137  0.00  0.00     0.056 H 
ATOM     38  H33 853 d   1      17.074  28.209  16.248  0.00  0.00     0.056 H 
BRANCH  36  39
ATOM     39  C72 853 d   1      15.331  28.245  17.490  0.00  0.00     0.176 C 
ATOM     40  O75 853 d   1      14.558  28.806  16.562  0.00  0.00    -0.648 OA
ATOM     41  O76 853 d   1      15.140  28.353  18.662  0.00  0.00    -0.648 OA
ENDBRANCH  36  39
ENDBRANCH  31  36
BRANCH  33  42
ATOM     42  C68 853 d   1      19.524  27.982  16.864  0.00  0.00     0.209 C 
ATOM     43  O69 853 d   1      20.009  29.155  17.275  0.00  0.00    -0.644 OA
ATOM     44  O70 853 d   1      19.616  27.668  15.709  0.00  0.00    -0.644 OA
ENDBRANCH  33  42
ENDBRANCH  24  27
ENDBRANCH  22  24
BRANCH  22  45
ATOM     45  N17 853 d   1      20.037  26.498  22.020  0.00  0.00    -0.348 N 
ATOM     46  C18 853 d   1      19.390  27.385  22.811  0.00  0.00     0.214 C 
ATOM     47  O19 853 d   1      18.410  27.078  23.499  0.00  0.00    -0.274 OA
ATOM     48  H8  853 d   1      20.800  26.794  21.446  0.00  0.00     0.163 HD
BRANCH  46  49
ATOM     49  C20 853 d   1      19.987  28.826  22.787  0.00  0.00    -0.003 C 
ATOM     50  H9  853 d   1      19.402  29.476  23.454  0.00  0.00     0.040 H 
ATOM     51  H10 853 d   1      19.947  29.222  21.762  0.00  0.00     0.040 H 
ATOM     52  H11 853 d   1      21.032  28.796  23.128  0.00  0.00     0.040 H 
ENDBRANCH  46  49
ENDBRANCH  22  45
ENDBRANCH  19  22
ENDBRANCH   1  18
BRANCH   3  53
ATOM     53  C32 853 d   1      23.179  19.683  23.582  0.00  0.00     0.021 C 
ATOM     54  H17 853 d   1      24.061  19.573  24.230  0.00  0.00     0.071 H 
ATOM     55  H18 853 d   1      23.480  20.137  22.627  0.00  0.00     0.071 H 
BRANCH  53  56
ATOM     56  C33 853 d   1      22.556  18.303  23.322  0.00  0.00    -0.040 A 
ATOM     57  C46 853 d   1      21.405  18.267  22.435  0.00  0.00    -0.074 A 
ATOM     58  C47 853 d   1      20.722  17.059  22.268  0.00  0.00    -0.072 A 
ATOM     59  H23 853 d   1      21.082  19.160  21.913  0.00  0.00     0.084 H 
ATOM     60  C48 853 d   1      21.276  15.876  22.891  0.00  0.00    -0.026 A 
ATOM     61  H24 853 d   1      19.806  17.010  21.690  0.00  0.00     0.084 H 
ATOM     62  C49 853 d   1      22.461  15.886  23.732  0.00  0.00    -0.072 A 
ATOM     63  C50 853 d   1      23.061  17.132  23.989  0.00  0.00    -0.074 A 
ATOM     64  H25 853 d   1      22.867  14.970  24.145  0.00  0.00     0.084 H 
ATOM     65  H26 853 d   1      23.892  17.209  24.680  0.00  0.00     0.084 H 
BRANCH  60  66
ATOM     66  C55 853 d   1      20.567  14.584  22.579  0.00  0.00    -0.026 A 
ATOM     67  C56 853 d   1      19.138  14.562  22.383  0.00  0.00    -0.072 A 
ATOM     68  C57 853 d   1      18.518  13.335  22.124  0.00  0.00    -0.082 A 
ATOM     69  H27 853 d   1      18.558  15.476  22.435  0.00  0.00     0.084 H 
ATOM     70  C58 853 d   1      19.267  12.124  22.106  0.00  0.00    -0.083 A 
ATOM     71  H28 853 d   1      17.451  13.306  21.934  0.00  0.00     0.083 H 
ATOM     72  C59 853 d   1      20.655  12.145  22.283  0.00  0.00    -0.082 A 
ATOM     73  H29 853 d   1      18.758  11.179  21.954  0.00  0.00     0.083 H 
ATOM     74  C60 853 d   1      21.334  13.378  22.464  0.00  0.00    -0.072 A 
ATOM     75  H30 853 d   1      21.214  11.216  22.282  0.00  0.00     0.083 H 
ATOM     76  H31 853 d   1      22.416  13.408  22.515  0.00  0.00     0.084 H 
ENDBRANCH  60  66
ENDBRANCH  53  56
ENDBRANCH   3  53
TORSDOF 12
