REMARK  13 active torsions:
REMARK  status: ('A' for Active; 'I' for Inactive)
REMARK    1  A    between atoms: O28_28  and  C3_3 
REMARK    2  A    between atoms: C4_4  and  P71_40 
REMARK    3  A    between atoms: C6_6  and  C9_9 
REMARK    4  A    between atoms: C7_7  and  C8_8 
REMARK    5  A    between atoms: C7_7  and  O28_28 
REMARK    6  A    between atoms: C9_9  and  C10_10 
REMARK    7  A    between atoms: C10_10  and  C11_11 
REMARK    8  A    between atoms: C10_10  and  N13_13 
REMARK       I    between atoms: C11_11  and  N12_12 
REMARK    9  A    between atoms: N12_12  and  C18_18 
REMARK       I    between atoms: N13_13  and  C14_14 
REMARK   10  A    between atoms: C14_14  and  C15_15 
REMARK   11  A    between atoms: N23_23  and  C25_25 
REMARK   12  A    between atoms: C25_25  and  C26_26 
REMARK   13  A    between atoms: C51_31  and  C58_34 
ROOT
ATOM      1  C18 493 d   1      20.309  22.296  24.439  0.00  0.00     0.089 C 
ATOM      2  C19 493 d   1      19.185  21.499  24.943  0.00  0.00    -0.038 C 
ATOM      3  C20 493 d   1      19.496  20.724  26.217  0.00  0.00    -0.061 C 
ATOM      4  C21 493 d   1      20.721  19.789  26.194  0.00  0.00    -0.050 C 
ATOM      5  C22 493 d   1      22.118  20.388  25.871  0.00  0.00    -0.002 C 
ATOM      6  N23 493 d   1      22.337  20.663  24.409  0.00  0.00    -0.346 N 
ATOM      7  C24 493 d   1      21.370  21.448  23.641  0.00  0.00     0.242 C 
ATOM      8  O27 493 d   1      21.410  21.469  22.349  0.00  0.00    -0.271 OA
ATOM      9  H14 493 d   1      20.829  22.782  25.277  0.00  0.00     0.087 H 
ATOM     10  H15 493 d   1      18.894  20.780  24.163  0.00  0.00     0.036 H 
ATOM     11  H16 493 d   1      18.344  22.178  25.148  0.00  0.00     0.036 H 
ATOM     12  H17 493 d   1      18.615  20.109  26.453  0.00  0.00     0.033 H 
ATOM     13  H18 493 d   1      19.656  21.459  27.020  0.00  0.00     0.033 H 
ATOM     14  H19 493 d   1      20.521  19.013  25.441  0.00  0.00     0.035 H 
ATOM     15  H20 493 d   1      20.791  19.325  27.189  0.00  0.00     0.035 H 
ATOM     16  H21 493 d   1      22.887  19.677  26.209  0.00  0.00     0.064 H 
ATOM     17  H22 493 d   1      22.226  21.334  26.422  0.00  0.00     0.064 H 
ENDROOT
BRANCH   1  18
ATOM     18  N12 493 d   1      19.656  23.271  23.645  0.00  0.00    -0.346 N 
ATOM     19  C11 493 d   1      20.364  24.265  23.080  0.00  0.00     0.241 C 
ATOM     20  O17 493 d   1      21.478  24.541  23.415  0.00  0.00    -0.271 OA
ATOM     21  H9  493 d   1      18.667  23.220  23.505  0.00  0.00     0.163 HD
BRANCH  19  22
ATOM     22  C10 493 d   1      19.720  25.056  21.973  0.00  0.00     0.093 C 
ATOM     23  H8  493 d   1      18.624  25.025  22.062  0.00  0.00     0.088 H 
BRANCH  22  24
ATOM     24  C9  493 d   1      20.158  24.536  20.675  0.00  0.00    -0.014 C 
ATOM     25  H6  493 d   1      21.223  24.744  20.492  0.00  0.00     0.043 H 
ATOM     26  H7  493 d   1      19.975  23.455  20.587  0.00  0.00     0.043 H 
BRANCH  24  27
ATOM     27  C6  493 d   1      19.279  25.319  19.763  0.00  0.00    -0.054 A 
ATOM     28  C1  493 d   1      17.995  24.781  19.756  0.00  0.00    -0.074 A 
ATOM     29  C2  493 d   1      16.963  25.348  19.058  0.00  0.00    -0.049 A 
ATOM     30  H1  493 d   1      17.805  23.878  20.325  0.00  0.00     0.084 H 
ATOM     31  C3  493 d   1      17.296  26.474  18.355  0.00  0.00     0.089 A 
ATOM     32  H2  493 d   1      15.960  24.937  19.062  0.00  0.00     0.087 H 
ATOM     33  C4  493 d   1      18.611  27.000  18.281  0.00  0.00     0.101 A 
ATOM     34  C5  493 d   1      19.671  26.439  19.043  0.00  0.00    -0.055 A 
ATOM     35  H3  493 d   1      20.677  26.842  19.060  0.00  0.00     0.086 H 
BRANCH  31  36
ATOM     36  O28 493 d   1      16.134  26.946  17.871  0.00  0.00    -0.340 OA
BRANCH  36  37
ATOM     37  C7  493 d   1      16.020  28.084  17.016  0.00  0.00     0.105 C 
ATOM     38  H4  493 d   1      17.013  28.524  16.844  0.00  0.00     0.091 H 
ATOM     39  H5  493 d   1      15.579  27.786  16.053  0.00  0.00     0.091 H 
BRANCH  37  40
ATOM     40  C8  493 d   1      15.130  29.082  17.698  0.00  0.00     0.198 C 
ATOM     41  O79 493 d   1      14.317  29.479  16.716  0.00  0.00    -0.646 OA
ATOM     42  O80 493 d   1      15.130  29.422  18.857  0.00  0.00    -0.646 OA
ENDBRANCH  37  40
ENDBRANCH  36  37
ENDBRANCH  31  36
BRANCH  33  43
ATOM     43  P71 493 d   1      18.954  28.497  17.266  0.00  0.00     0.298 P 
ATOM     44  O72 493 d   1      20.488  28.887  17.256  0.00  0.00    -0.636 OA
ATOM     45  O73 493 d   1      18.013  29.650  18.121  0.00  0.00    -0.636 OA
ATOM     46  O74 493 d   1      18.137  28.259  15.605  0.00  0.00    -0.636 OA
ENDBRANCH  33  43
ENDBRANCH  24  27
ENDBRANCH  22  24
BRANCH  22  47
ATOM     47  N13 493 d   1      20.242  26.483  22.042  0.00  0.00    -0.348 N 
ATOM     48  C14 493 d   1      19.554  27.434  22.632  0.00  0.00     0.214 C 
ATOM     49  O16 493 d   1      18.686  27.184  23.456  0.00  0.00    -0.274 OA
ATOM     50  H10 493 d   1      21.127  26.702  21.630  0.00  0.00     0.163 HD
BRANCH  48  51
ATOM     51  C15 493 d   1      19.920  28.766  21.880  0.00  0.00    -0.003 C 
ATOM     52  H11 493 d   1      19.371  29.605  22.332  0.00  0.00     0.040 H 
ATOM     53  H12 493 d   1      19.644  28.676  20.819  0.00  0.00     0.040 H 
ATOM     54  H13 493 d   1      21.002  28.949  21.963  0.00  0.00     0.040 H 
ENDBRANCH  48  51
ENDBRANCH  22  47
ENDBRANCH  19  22
ENDBRANCH   1  18
BRANCH   6  55
ATOM     55  C25 493 d   1      23.370  19.786  23.688  0.00  0.00     0.021 C 
ATOM     56  H23 493 d   1      24.256  19.666  24.329  0.00  0.00     0.071 H 
ATOM     57  H24 493 d   1      23.663  20.270  22.745  0.00  0.00     0.071 H 
BRANCH  55  58
ATOM     58  C26 493 d   1      22.769  18.400  23.384  0.00  0.00    -0.040 A 
ATOM     59  C49 493 d   1      23.255  17.249  23.965  0.00  0.00    -0.074 A 
ATOM     60  C50 493 d   1      22.633  16.007  23.713  0.00  0.00    -0.072 A 
ATOM     61  H25 493 d   1      24.119  17.297  24.618  0.00  0.00     0.084 H 
ATOM     62  C51 493 d   1      21.492  15.887  22.834  0.00  0.00    -0.026 A 
ATOM     63  H26 493 d   1      23.023  15.117  24.193  0.00  0.00     0.084 H 
ATOM     64  C52 493 d   1      20.904  17.070  22.320  0.00  0.00    -0.072 A 
ATOM     65  C53 493 d   1      21.549  18.350  22.579  0.00  0.00    -0.074 A 
ATOM     66  H27 493 d   1      19.988  17.023  21.743  0.00  0.00     0.084 H 
ATOM     67  H28 493 d   1      21.126  19.263  22.176  0.00  0.00     0.084 H 
BRANCH  62  68
ATOM     68  C58 493 d   1      20.876  14.598  22.440  0.00  0.00    -0.026 C 
ATOM     69  C59 493 d   1      19.476  14.465  22.247  0.00  0.00    -0.072 C 
ATOM     70  C60 493 d   1      18.735  13.305  22.158  0.00  0.00    -0.082 C 
ATOM     71  H29 493 d   1      18.919  15.391  22.159  0.00  0.00     0.084 H 
ATOM     72  C61 493 d   1      19.490  12.157  22.202  0.00  0.00    -0.083 C 
ATOM     73  H30 493 d   1      17.655  13.299  22.062  0.00  0.00     0.083 H 
ATOM     74  C62 493 d   1      20.841  12.145  22.226  0.00  0.00    -0.082 C 
ATOM     75  H31 493 d   1      18.971  11.205  22.218  0.00  0.00     0.083 H 
ATOM     76  C63 493 d   1      21.575  13.394  22.383  0.00  0.00    -0.072 C 
ATOM     77  H32 493 d   1      21.378  11.208  22.129  0.00  0.00     0.083 H 
ATOM     78  H33 493 d   1      22.657  13.386  22.455  0.00  0.00     0.084 H 
ENDBRANCH  62  68
ENDBRANCH  55  58
ENDBRANCH   6  55
TORSDOF 13
