REMARK  12 active torsions:
REMARK  status: ('A' for Active; 'I' for Inactive)
REMARK    1  A    between atoms: C3_3  and  C68_37 
REMARK    2  A    between atoms: C4_4  and  C71_40 
REMARK    3  A    between atoms: C6_6  and  C7_7 
REMARK    4  A    between atoms: C7_7  and  C8_8 
REMARK    5  A    between atoms: C8_8  and  C9_9 
REMARK    6  A    between atoms: C8_8  and  N11_11 
REMARK       I    between atoms: C9_9  and  N10_10 
REMARK    7  A    between atoms: N10_10  and  C16_16 
REMARK       I    between atoms: N11_11  and  C12_12 
REMARK    8  A    between atoms: C12_12  and  C13_13 
REMARK    9  A    between atoms: N21_21  and  C23_23 
REMARK   10  A    between atoms: C23_23  and  C24_24 
REMARK   11  A    between atoms: C48_28  and  C55_31 
REMARK   12  A    between atoms: C71_40  and  O72_41 
ROOT
ATOM      1  C16 197 d   1      20.004  22.329  23.943  0.00  0.00     0.089 C 
ATOM      2  C17 197 d   1      18.888  21.463  24.538  0.00  0.00    -0.038 C 
ATOM      3  C18 197 d   1      19.424  20.853  25.820  0.00  0.00    -0.061 C 
ATOM      4  C19 197 d   1      20.595  19.908  25.825  0.00  0.00    -0.050 C 
ATOM      5  C20 197 d   1      21.942  20.458  25.340  0.00  0.00    -0.002 C 
ATOM      6  N21 197 d   1      22.039  20.701  23.889  0.00  0.00    -0.346 N 
ATOM      7  C22 197 d   1      21.154  21.513  23.134  0.00  0.00     0.242 C 
ATOM      8  O25 197 d   1      21.183  21.618  21.897  0.00  0.00    -0.271 OA
ATOM      9  H12 197 d   1      20.506  22.853  24.769  0.00  0.00     0.087 H 
ATOM     10  H13 197 d   1      18.611  20.668  23.830  0.00  0.00     0.036 H 
ATOM     11  H14 197 d   1      18.006  22.083  24.756  0.00  0.00     0.036 H 
ATOM     12  H15 197 d   1      18.585  20.306  26.275  0.00  0.00     0.033 H 
ATOM     13  H16 197 d   1      19.706  21.696  26.468  0.00  0.00     0.033 H 
ATOM     14  H17 197 d   1      20.335  19.055  25.181  0.00  0.00     0.035 H 
ATOM     15  H18 197 d   1      20.733  19.558  26.859  0.00  0.00     0.035 H 
ATOM     16  H19 197 d   1      22.723  19.735  25.616  0.00  0.00     0.064 H 
ATOM     17  H20 197 d   1      22.125  21.411  25.857  0.00  0.00     0.064 H 
ENDROOT
BRANCH   1  18
ATOM     18  N10 197 d   1      19.348  23.298  23.115  0.00  0.00    -0.346 N 
ATOM     19  C9  197 d   1      20.057  24.325  22.596  0.00  0.00     0.241 C 
ATOM     20  O15 197 d   1      21.211  24.665  22.941  0.00  0.00    -0.271 OA
ATOM     21  H7  197 d   1      18.370  23.215  22.922  0.00  0.00     0.163 HD
BRANCH  19  22
ATOM     22  C8  197 d   1      19.297  25.039  21.516  0.00  0.00     0.093 C 
ATOM     23  H6  197 d   1      18.211  24.968  21.677  0.00  0.00     0.088 H 
BRANCH  22  24
ATOM     24  C7  197 d   1      19.677  24.367  20.190  0.00  0.00    -0.014 C 
ATOM     25  H4  197 d   1      20.766  24.439  20.054  0.00  0.00     0.043 H 
ATOM     26  H5  197 d   1      19.381  23.308  20.230  0.00  0.00     0.043 H 
BRANCH  24  27
ATOM     27  C6  197 d   1      18.991  25.023  19.009  0.00  0.00    -0.055 A 
ATOM     28  C1  197 d   1      19.765  25.716  18.033  0.00  0.00    -0.076 A 
ATOM     29  C2  197 d   1      19.112  26.400  16.976  0.00  0.00    -0.065 A 
ATOM     30  H1  197 d   1      20.847  25.720  18.098  0.00  0.00     0.084 H 
ATOM     31  C3  197 d   1      17.676  26.362  16.822  0.00  0.00     0.049 A 
ATOM     32  H2  197 d   1      19.705  26.965  16.266  0.00  0.00     0.085 H 
ATOM     33  C4  197 d   1      16.949  25.568  17.760  0.00  0.00    -0.017 A 
ATOM     34  C5  197 d   1      17.595  24.947  18.881  0.00  0.00    -0.068 A 
ATOM     35  H3  197 d   1      17.008  24.422  19.625  0.00  0.00     0.085 H 
BRANCH  31  36
ATOM     36  C68 197 d   1      17.058  27.210  15.736  0.00  0.00     0.210 C 
ATOM     37  O69 197 d   1      17.584  27.488  14.720  0.00  0.00    -0.644 OA
ATOM     38  O70 197 d   1      15.857  27.658  15.851  0.00  0.00    -0.644 OA
ENDBRANCH  31  36
BRANCH  33  39
ATOM     39  C71 197 d   1      15.532  25.491  17.784  0.00  0.00     0.041 C 
ATOM     40  H32 197 d   1      15.252  24.668  18.458  0.00  0.00     0.081 H 
ATOM     41  H33 197 d   1      15.191  25.262  16.764  0.00  0.00     0.081 H 
BRANCH  39  42
ATOM     42  O72 197 d   1      14.867  26.629  18.207  0.00  0.00    -0.396 OA
ATOM     43  H34 197 d   1      15.082  27.353  17.630  0.00  0.00     0.209 HD
ENDBRANCH  39  42
ENDBRANCH  33  39
ENDBRANCH  24  27
ENDBRANCH  22  24
BRANCH  22  44
ATOM     44  N11 197 d   1      19.728  26.450  21.574  0.00  0.00    -0.348 N 
ATOM     45  C12 197 d   1      18.877  27.474  21.600  0.00  0.00     0.214 C 
ATOM     46  O14 197 d   1      17.642  27.415  21.607  0.00  0.00    -0.274 OA
ATOM     47  H8  197 d   1      20.708  26.647  21.595  0.00  0.00     0.163 HD
BRANCH  45  48
ATOM     48  C13 197 d   1      19.667  28.780  21.421  0.00  0.00    -0.003 C 
ATOM     49  H9  197 d   1      18.974  29.634  21.441  0.00  0.00     0.040 H 
ATOM     50  H10 197 d   1      20.196  28.759  20.457  0.00  0.00     0.040 H 
ATOM     51  H11 197 d   1      20.397  28.882  22.237  0.00  0.00     0.040 H 
ENDBRANCH  45  48
ENDBRANCH  22  44
ENDBRANCH  19  22
ENDBRANCH   1  18
BRANCH   6  52
ATOM     52  C23 197 d   1      23.034  19.831  23.204  0.00  0.00     0.021 C 
ATOM     53  H21 197 d   1      23.928  19.728  23.837  0.00  0.00     0.071 H 
ATOM     54  H22 197 d   1      23.316  20.284  22.242  0.00  0.00     0.071 H 
BRANCH  52  55
ATOM     55  C24 197 d   1      22.441  18.494  22.966  0.00  0.00    -0.040 A 
ATOM     56  C46 197 d   1      22.984  17.285  23.573  0.00  0.00    -0.074 A 
ATOM     57  C47 197 d   1      22.353  15.997  23.382  0.00  0.00    -0.072 A 
ATOM     58  H23 197 d   1      23.879  17.352  24.180  0.00  0.00     0.084 H 
ATOM     59  C48 197 d   1      21.169  15.980  22.569  0.00  0.00    -0.026 A 
ATOM     60  H24 197 d   1      22.752  15.094  23.828  0.00  0.00     0.084 H 
ATOM     61  C49 197 d   1      20.636  17.175  21.984  0.00  0.00    -0.072 A 
ATOM     62  C50 197 d   1      21.265  18.454  22.163  0.00  0.00    -0.074 A 
ATOM     63  H25 197 d   1      19.732  17.112  21.389  0.00  0.00     0.084 H 
ATOM     64  H26 197 d   1      20.862  19.351  21.706  0.00  0.00     0.084 H 
BRANCH  59  65
ATOM     65  C55 197 d   1      20.427  14.722  22.257  0.00  0.00    -0.026 A 
ATOM     66  C56 197 d   1      21.172  13.533  22.060  0.00  0.00    -0.072 A 
ATOM     67  C57 197 d   1      20.494  12.336  21.759  0.00  0.00    -0.082 A 
ATOM     68  H27 197 d   1      22.253  13.545  22.140  0.00  0.00     0.084 H 
ATOM     69  C58 197 d   1      19.067  12.376  21.670  0.00  0.00    -0.083 A 
ATOM     70  H28 197 d   1      21.037  11.412  21.599  0.00  0.00     0.083 H 
ATOM     71  C59 197 d   1      18.311  13.595  21.911  0.00  0.00    -0.082 A 
ATOM     72  H29 197 d   1      18.532  11.469  21.415  0.00  0.00     0.083 H 
ATOM     73  C60 197 d   1      19.009  14.768  22.186  0.00  0.00    -0.072 A 
ATOM     74  H30 197 d   1      17.227  13.590  21.877  0.00  0.00     0.083 H 
ATOM     75  H31 197 d   1      18.479  15.701  22.343  0.00  0.00     0.084 H 
ENDBRANCH  59  65
ENDBRANCH  52  55
ENDBRANCH   6  52
TORSDOF 12
