REMARK  11 active torsions:
REMARK  status: ('A' for Active; 'I' for Inactive)
REMARK    1  A    between atoms: C3_3  and  P26_26 
REMARK    2  A    between atoms: C4_4  and  P69_38 
REMARK    3  A    between atoms: C6_6  and  C7_7 
REMARK    4  A    between atoms: C7_7  and  C8_8 
REMARK    5  A    between atoms: C8_8  and  C9_9 
REMARK    6  A    between atoms: C8_8  and  N11_11 
REMARK       I    between atoms: C9_9  and  N10_10 
REMARK    7  A    between atoms: N10_10  and  C16_16 
REMARK       I    between atoms: N11_11  and  C12_12 
REMARK    8  A    between atoms: C12_12  and  C13_13 
REMARK    9  A    between atoms: N21_21  and  C23_23 
REMARK   10  A    between atoms: C23_23  and  C24_24 
REMARK   11  A    between atoms: C29_29  and  C32_32 
ROOT
ATOM      1  C16 876 d   1      20.017  22.429  24.037  0.00  0.00     0.089 C 
ATOM      2  C17 876 d   1      18.953  21.486  24.621  0.00  0.00    -0.038 C 
ATOM      3  C18 876 d   1      19.468  20.302  25.544  0.00  0.00    -0.061 C 
ATOM      4  C19 876 d   1      20.829  20.560  26.147  0.00  0.00    -0.050 C 
ATOM      5  C20 876 d   1      21.948  20.240  25.159  0.00  0.00    -0.002 C 
ATOM      6  N21 876 d   1      21.931  20.790  23.766  0.00  0.00    -0.346 N 
ATOM      7  C22 876 d   1      21.052  21.704  23.156  0.00  0.00     0.242 C 
ATOM      8  O25 876 d   1      21.091  21.963  21.947  0.00  0.00    -0.271 OA
ATOM      9  H12 876 d   1      20.554  22.933  24.854  0.00  0.00     0.087 H 
ATOM     10  H13 876 d   1      18.409  21.036  23.777  0.00  0.00     0.036 H 
ATOM     11  H14 876 d   1      18.261  22.097  25.220  0.00  0.00     0.036 H 
ATOM     12  H15 876 d   1      19.523  19.386  24.938  0.00  0.00     0.033 H 
ATOM     13  H16 876 d   1      18.746  20.158  26.361  0.00  0.00     0.033 H 
ATOM     14  H17 876 d   1      20.950  19.930  27.040  0.00  0.00     0.035 H 
ATOM     15  H18 876 d   1      20.898  21.620  26.434  0.00  0.00     0.035 H 
ATOM     16  H19 876 d   1      21.975  19.145  25.062  0.00  0.00     0.064 H 
ATOM     17  H20 876 d   1      22.883  20.590  25.622  0.00  0.00     0.064 H 
ENDROOT
BRANCH   1  18
ATOM     18  N10 876 d   1      19.244  23.408  23.265  0.00  0.00    -0.346 N 
ATOM     19  C9  876 d   1      19.858  24.427  22.627  0.00  0.00     0.241 C 
ATOM     20  O15 876 d   1      21.083  24.708  22.749  0.00  0.00    -0.271 OA
ATOM     21  H7  876 d   1      18.249  23.319  23.211  0.00  0.00     0.163 HD
BRANCH  19  22
ATOM     22  C8  876 d   1      19.009  25.339  21.754  0.00  0.00     0.093 C 
ATOM     23  H6  876 d   1      17.978  25.318  22.138  0.00  0.00     0.088 H 
BRANCH  22  24
ATOM     24  C7  876 d   1      19.000  24.771  20.330  0.00  0.00    -0.014 C 
ATOM     25  H4  876 d   1      20.014  24.800  19.906  0.00  0.00     0.043 H 
ATOM     26  H5  876 d   1      18.636  23.733  20.340  0.00  0.00     0.043 H 
BRANCH  24  27
ATOM     27  C6  876 d   1      18.069  25.641  19.511  0.00  0.00    -0.054 A 
ATOM     28  C1  876 d   1      18.347  25.151  18.260  0.00  0.00    -0.076 A 
ATOM     29  C2  876 d   1      17.919  25.760  17.121  0.00  0.00    -0.062 A 
ATOM     30  H1  876 d   1      18.931  24.242  18.176  0.00  0.00     0.084 H 
ATOM     31  C3  876 d   1      17.162  26.870  17.259  0.00  0.00     0.088 A 
ATOM     32  H2  876 d   1      18.175  25.370  16.142  0.00  0.00     0.085 H 
ATOM     33  C4  876 d   1      16.782  27.397  18.474  0.00  0.00     0.088 A 
ATOM     34  C5  876 d   1      17.213  26.814  19.718  0.00  0.00    -0.056 A 
ATOM     35  H3  876 d   1      16.937  27.197  20.694  0.00  0.00     0.086 H 
BRANCH  31  36
ATOM     36  P26 876 d   1      16.620  27.536  15.727  0.00  0.00     0.296 P 
ATOM     37  O73 876 d   1      15.216  27.248  15.497  0.00  0.00    -0.636 OA
ATOM     38  O74 876 d   1      17.412  27.153  14.410  0.00  0.00    -0.636 OA
ATOM     39  O75 876 d   1      17.127  28.992  15.628  0.00  0.00    -0.636 OA
ENDBRANCH  31  36
BRANCH  33  40
ATOM     40  P69 876 d   1      15.867  28.857  18.234  0.00  0.00     0.296 P 
ATOM     41  O70 876 d   1      14.849  28.882  17.170  0.00  0.00    -0.636 OA
ATOM     42  O71 876 d   1      16.700  30.044  18.293  0.00  0.00    -0.636 OA
ATOM     43  O72 876 d   1      15.072  28.665  19.392  0.00  0.00    -0.636 OA
ENDBRANCH  33  40
ENDBRANCH  24  27
ENDBRANCH  22  24
BRANCH  22  44
ATOM     44  N11 876 d   1      19.462  26.730  21.796  0.00  0.00    -0.348 N 
ATOM     45  C12 876 d   1      18.795  27.714  22.404  0.00  0.00     0.214 C 
ATOM     46  O14 876 d   1      17.727  27.614  23.020  0.00  0.00    -0.274 OA
ATOM     47  H8  876 d   1      20.323  26.957  21.342  0.00  0.00     0.163 HD
BRANCH  45  48
ATOM     48  C13 876 d   1      19.550  28.977  22.211  0.00  0.00    -0.003 C 
ATOM     49  H9  876 d   1      19.017  29.802  22.705  0.00  0.00     0.040 H 
ATOM     50  H10 876 d   1      19.639  29.190  21.136  0.00  0.00     0.040 H 
ATOM     51  H11 876 d   1      20.554  28.875  22.649  0.00  0.00     0.040 H 
ENDBRANCH  45  48
ENDBRANCH  22  44
ENDBRANCH  19  22
ENDBRANCH   1  18
BRANCH   6  52
ATOM     52  C23 876 d   1      22.965  20.082  22.973  0.00  0.00     0.021 C 
ATOM     53  H21 876 d   1      23.926  20.110  23.508  0.00  0.00     0.071 H 
ATOM     54  H22 876 d   1      23.077  20.567  21.992  0.00  0.00     0.071 H 
BRANCH  52  55
ATOM     55  C24 876 d   1      22.536  18.674  22.788  0.00  0.00    -0.040 A 
ATOM     56  C27 876 d   1      21.481  18.482  21.876  0.00  0.00    -0.074 A 
ATOM     57  C28 876 d   1      20.870  17.211  21.794  0.00  0.00    -0.072 A 
ATOM     58  H23 876 d   1      21.143  19.297  21.246  0.00  0.00     0.084 H 
ATOM     59  C29 876 d   1      21.339  16.137  22.596  0.00  0.00    -0.026 A 
ATOM     60  H24 876 d   1      20.039  17.055  21.116  0.00  0.00     0.084 H 
ATOM     61  C30 876 d   1      22.463  16.315  23.456  0.00  0.00    -0.072 A 
ATOM     62  C31 876 d   1      23.063  17.598  23.558  0.00  0.00    -0.074 A 
ATOM     63  H25 876 d   1      22.855  15.480  24.026  0.00  0.00     0.084 H 
ATOM     64  H26 876 d   1      23.912  17.756  24.214  0.00  0.00     0.084 H 
BRANCH  59  65
ATOM     65  C32 876 d   1      20.650  14.829  22.447  0.00  0.00    -0.026 A 
ATOM     66  C59 876 d   1      21.416  13.637  22.418  0.00  0.00    -0.072 A 
ATOM     67  C60 876 d   1      20.803  12.405  22.065  0.00  0.00    -0.082 A 
ATOM     68  H27 876 d   1      22.471  13.665  22.666  0.00  0.00     0.084 H 
ATOM     69  C61 876 d   1      19.432  12.372  21.754  0.00  0.00    -0.083 A 
ATOM     70  H28 876 d   1      21.390  11.494  22.035  0.00  0.00     0.083 H 
ATOM     71  C62 876 d   1      18.634  13.527  21.869  0.00  0.00    -0.082 A 
ATOM     72  H29 876 d   1      18.983  11.444  21.421  0.00  0.00     0.083 H 
ATOM     73  C63 876 d   1      19.243  14.750  22.213  0.00  0.00    -0.072 A 
ATOM     74  H30 876 d   1      17.565  13.476  21.695  0.00  0.00     0.083 H 
ATOM     75  H31 876 d   1      18.636  15.643  22.301  0.00  0.00     0.084 H 
ENDBRANCH  59  65
ENDBRANCH  52  55
ENDBRANCH   6  52
TORSDOF 11
