REMARK  4 active torsions:
REMARK  status: ('A' for Active; 'I' for Inactive)
REMARK    1  A    between atoms: C5_5  and  O8_8 
REMARK    2  A    between atoms: C6_6  and  C7_7 
REMARK    3  A    between atoms: C7_7  and  O12_13 
REMARK    4  A    between atoms: O8_8  and  P9_9 
ROOT
ATOM      1  C1  262 d   1      17.344  24.531  19.436  0.00  0.00    -0.072 A 
ATOM      2  C2  262 d   1      18.002  24.840  20.655  0.00  0.00    -0.082 A 
ATOM      3  C3  262 d   1      17.862  26.143  21.193  0.00  0.00    -0.080 A 
ATOM      4  C4  262 d   1      17.068  27.110  20.495  0.00  0.00    -0.050 A 
ATOM      5  C5  262 d   1      16.405  26.788  19.268  0.00  0.00     0.091 A 
ATOM      6  C6  262 d   1      16.518  25.443  18.745  0.00  0.00    -0.001 A 
ATOM      7  H1  262 d   1      17.483  23.543  19.014  0.00  0.00     0.084 H 
ATOM      8  H2  262 d   1      18.600  24.093  21.165  0.00  0.00     0.083 H 
ATOM      9  H3  262 d   1      18.351  26.406  22.124  0.00  0.00     0.083 H 
ATOM     10  H4  262 d   1      16.967  28.108  20.905  0.00  0.00     0.087 H 
ENDROOT
BRANCH   5  11
ATOM     11  O8  262 d   1      15.466  27.739  18.777  0.00  0.00    -0.240 OA
BRANCH  11  12
ATOM     12  P9  262 d   1      15.857  28.666  17.566  0.00  0.00     0.427 P 
ATOM     13  O10 262 d   1      14.517  29.069  16.940  0.00  0.00    -0.617 OA
ATOM     14  O11 262 d   1      16.683  27.830  16.540  0.00  0.00    -0.617 OA
ATOM     15  O14 262 d   1      16.571  29.901  18.060  0.00  0.00    -0.617 OA
ENDBRANCH  11  12
ENDBRANCH   5  11
BRANCH   6  16
ATOM     16  C7  262 d   1      15.671  24.832  17.700  0.00  0.00     0.043 C 
ATOM     17  H5  262 d   1      14.708  24.662  18.203  0.00  0.00     0.081 H 
ATOM     18  H6  262 d   1      16.154  23.865  17.496  0.00  0.00     0.081 H 
BRANCH  16  19
ATOM     19  O12 262 d   1      15.339  25.272  16.524  0.00  0.00    -0.396 OA
ATOM     20  H7  262 d   1      14.873  26.095  16.615  0.00  0.00     0.209 HD
ENDBRANCH  16  19
ENDBRANCH   6  16
TORSDOF 4
