REMARK  7 active torsions:
REMARK  status: ('A' for Active; 'I' for Inactive)
REMARK    1  A    between atoms: C2_2  and  C7_7 
REMARK    2  A    between atoms: C4_4  and  C11_8 
REMARK    3  A    between atoms: C5_5  and  O13_10 
REMARK    4  A    between atoms: C6_6  and  C12_9 
REMARK    5  A    between atoms: C11_8  and  O20_15 
REMARK    6  A    between atoms: C12_9  and  O22_16 
REMARK    7  A    between atoms: O13_10  and  P14_11 
ROOT
ATOM      1  C1  299 d   1      18.091  26.299  20.847  0.00  0.00    -0.066 A 
ATOM      2  C2  299 d   1      18.181  24.959  20.371  0.00  0.00    -0.061 A 
ATOM      3  C3  299 d   1      17.316  24.600  19.297  0.00  0.00    -0.066 A 
ATOM      4  C4  299 d   1      16.471  25.539  18.649  0.00  0.00     0.000 A 
ATOM      5  C5  299 d   1      16.400  26.877  19.125  0.00  0.00     0.099 A 
ATOM      6  C6  299 d   1      17.187  27.259  20.255  0.00  0.00     0.000 A 
ATOM      7  H1  299 d   1      18.718  26.607  21.676  0.00  0.00     0.085 H 
ATOM      8  H2  299 d   1      17.303  23.569  18.962  0.00  0.00     0.085 H 
ENDROOT
BRANCH   4   9
ATOM      9  C11 299 d   1      15.665  25.064  17.548  0.00  0.00     0.043 C 
ATOM     10  H6  299 d   1      14.668  25.482  17.750  0.00  0.00     0.081 H 
ATOM     11  H7  299 d   1      15.641  23.973  17.689  0.00  0.00     0.081 H 
BRANCH   9  12
ATOM     12  O20 299 d   1      15.819  25.219  16.194  0.00  0.00    -0.396 OA
ATOM     13  H10 299 d   1      15.807  26.144  15.979  0.00  0.00     0.209 HD
ENDBRANCH   9  12
ENDBRANCH   4   9
BRANCH   5  14
ATOM     14  O13 299 d   1      15.461  27.820  18.621  0.00  0.00    -0.239 OA
BRANCH  14  15
ATOM     15  P14 299 d   1      15.763  28.710  17.424  0.00  0.00     0.427 P 
ATOM     16  O15 299 d   1      14.450  29.417  17.226  0.00  0.00    -0.617 OA
ATOM     17  O16 299 d   1      16.055  27.896  16.176  0.00  0.00    -0.617 OA
ATOM     18  O17 299 d   1      16.791  29.695  17.704  0.00  0.00    -0.617 OA
ENDBRANCH  14  15
ENDBRANCH   5  14
BRANCH   2  19
ATOM     19  C7  299 d   1      19.121  24.022  21.024  0.00  0.00    -0.051 C 
ATOM     20  H3  299 d   1      19.669  24.548  21.820  0.00  0.00     0.033 H 
ATOM     21  H4  299 d   1      19.834  23.639  20.279  0.00  0.00     0.033 H 
ATOM     22  H5  299 d   1      18.559  23.182  21.459  0.00  0.00     0.033 H 
ENDBRANCH   2  19
BRANCH   6  23
ATOM     23  C12 299 d   1      17.063  28.566  20.938  0.00  0.00     0.043 C 
ATOM     24  H8  299 d   1      16.345  29.150  20.344  0.00  0.00     0.081 H 
ATOM     25  H9  299 d   1      18.057  29.034  20.877  0.00  0.00     0.081 H 
BRANCH  23  26
ATOM     26  O22 299 d   1      16.707  28.683  22.106  0.00  0.00    -0.396 OA
ATOM     27  H11 299 d   1      16.696  29.603  22.342  0.00  0.00     0.209 HD
ENDBRANCH  23  26
ENDBRANCH   6  23
TORSDOF 7
