REMARK  2 active torsions:
REMARK  status: ('A' for Active; 'I' for Inactive)
REMARK    1  A    between atoms: C16_10  and  O17_11 
REMARK    2  A    between atoms: O17_11  and  P18_12 
ROOT
ATOM      1  C1  790 d   1      18.809  26.086  20.103  0.00  0.00    -0.047 C 
ATOM      2  C2  790 d   1      19.041  25.933  18.614  0.00  0.00    -0.037 C 
ATOM      3  C3  790 d   1      18.652  27.138  17.755  0.00  0.00    -0.029 C 
ATOM      4  C4  790 d   1      17.988  28.258  18.287  0.00  0.00     0.068 C 
ATOM      5  N5  790 d   1      17.886  28.376  19.658  0.00  0.00    -0.387 N 
ATOM      6  C6  790 d   1      18.760  27.564  20.518  0.00  0.00    -0.007 C 
ATOM      7  C13 790 d   1      19.041  27.171  16.412  0.00  0.00    -0.074 C 
ATOM      8  C14 790 d   1      18.815  28.314  15.625  0.00  0.00    -0.080 C 
ATOM      9  C15 790 d   1      18.125  29.410  16.123  0.00  0.00    -0.048 C 
ATOM     10  C16 790 d   1      17.627  29.322  17.422  0.00  0.00     0.109 C 
ATOM     11  H1  790 d   1      19.628  25.590  20.645  0.00  0.00     0.035 H 
ATOM     12  H2  790 d   1      17.853  25.609  20.366  0.00  0.00     0.035 H 
ATOM     13  H3  790 d   1      18.456  25.068  18.268  0.00  0.00     0.040 H 
ATOM     14  H4  790 d   1      20.112  25.738  18.457  0.00  0.00     0.040 H 
ATOM     15  H5  790 d   1      17.205  29.026  20.075  0.00  0.00     0.159 HD
ATOM     16  H6  790 d   1      19.779  27.975  20.469  0.00  0.00     0.064 H 
ATOM     17  H7  790 d   1      18.389  27.625  21.552  0.00  0.00     0.064 H 
ATOM     18  H8  790 d   1      19.523  26.305  15.973  0.00  0.00     0.084 H 
ATOM     19  H9  790 d   1      19.188  28.340  14.607  0.00  0.00     0.083 H 
ATOM     20  H10 790 d   1      17.979  30.302  15.524  0.00  0.00     0.087 H 
ENDROOT
BRANCH  10  21
ATOM     21  O17 790 d   1      16.750  30.289  17.871  0.00  0.00    -0.238 OA
BRANCH  21  22
ATOM     22  P18 790 d   1      15.292  29.701  18.051  0.00  0.00     0.427 P 
ATOM     23  O19 790 d   1      14.774  31.029  18.606  0.00  0.00    -0.617 OA
ATOM     24  O20 790 d   1      15.054  28.625  19.113  0.00  0.00    -0.617 OA
ATOM     25  O21 790 d   1      14.602  29.302  16.793  0.00  0.00    -0.617 OA
ENDBRANCH  21  22
ENDBRANCH  10  21
TORSDOF 2
