REMARK  3 active torsions:
REMARK  status: ('A' for Active; 'I' for Inactive)
REMARK    1  A    between atoms: C10_10  and  C11_11 
REMARK    2  A    between atoms: C11_11  and  O12_12 
REMARK    3  A    between atoms: C11_11  and  P13_13 
ROOT
ATOM      1  C1  I59 d   1      21.862  29.405  15.812  0.00  0.00    -0.082 A 
ATOM      2  C2  I59 d   1      21.796  28.799  17.096  0.00  0.00    -0.072 A 
ATOM      3  C3  I59 d   1      20.540  28.390  17.591  0.00  0.00    -0.025 A 
ATOM      4  C4  I59 d   1      19.321  28.583  16.783  0.00  0.00    -0.016 A 
ATOM      5  C5  I59 d   1      19.429  29.209  15.500  0.00  0.00    -0.072 A 
ATOM      6  C6  I59 d   1      20.703  29.612  15.028  0.00  0.00    -0.082 A 
ATOM      7  C7  I59 d   1      20.467  27.765  18.853  0.00  0.00    -0.072 A 
ATOM      8  C8  I59 d   1      19.225  27.311  19.315  0.00  0.00    -0.082 A 
ATOM      9  C9  I59 d   1      18.046  27.480  18.526  0.00  0.00    -0.073 A 
ATOM     10  C10 I59 d   1      18.053  28.114  17.264  0.00  0.00    -0.005 A 
ATOM     11  H1  I59 d   1      22.825  29.716  15.424  0.00  0.00     0.083 H 
ATOM     12  H2  I59 d   1      22.695  28.654  17.684  0.00  0.00     0.084 H 
ATOM     13  H3  I59 d   1      18.544  29.373  14.895  0.00  0.00     0.084 H 
ATOM     14  H4  I59 d   1      20.790  30.084  14.056  0.00  0.00     0.083 H 
ATOM     15  H5  I59 d   1      21.358  27.638  19.456  0.00  0.00     0.084 H 
ATOM     16  H6  I59 d   1      19.158  26.826  20.282  0.00  0.00     0.083 H 
ATOM     17  H7  I59 d   1      17.105  27.105  18.913  0.00  0.00     0.084 H 
ENDROOT
BRANCH  10  18
ATOM     18  C11 I59 d   1      16.812  28.292  16.445  0.00  0.00     0.169 C 
ATOM     19  H8  I59 d   1      17.080  29.045  15.689  0.00  0.00     0.113 H 
BRANCH  18  20
ATOM     20  O12 I59 d   1      16.453  27.122  15.690  0.00  0.00    -0.377 OA
ATOM     21  H9  I59 d   1      16.118  26.457  16.279  0.00  0.00     0.211 HD
ENDBRANCH  18  20
BRANCH  18  22
ATOM     22  P13 I59 d   1      15.414  29.030  17.363  0.00  0.00     0.293 P 
ATOM     23  O15 I59 d   1      15.849  30.520  17.518  0.00  0.00    -0.638 OA
ATOM     24  O16 I59 d   1      15.096  28.387  18.621  0.00  0.00    -0.638 OA
ATOM     25  O17 I59 d   1      14.202  29.085  16.447  0.00  0.00    -0.638 OA
ENDBRANCH  18  22
ENDBRANCH  10  18
TORSDOF 3
