REMARK  2 active torsions:
REMARK  status: ('A' for Active; 'I' for Inactive)
REMARK    1  A    between atoms: C5_5  and  O11_11 
REMARK    2  A    between atoms: O11_11  and  P12_12 
ROOT
ATOM      1  C1  772 d   1      16.711  31.961  19.477  0.00  0.00    -0.079 A 
ATOM      2  C2  772 d   1      17.979  31.847  20.081  0.00  0.00    -0.071 A 
ATOM      3  C3  772 d   1      18.893  30.894  19.610  0.00  0.00    -0.004 A 
ATOM      4  C4  772 d   1      18.502  30.063  18.452  0.00  0.00     0.102 A 
ATOM      5  C5  772 d   1      17.202  30.180  17.884  0.00  0.00     0.112 A 
ATOM      6  C6  772 d   1      16.298  31.135  18.400  0.00  0.00    -0.048 A 
ATOM      7  C7  772 d   1      20.173  30.764  20.187  0.00  0.00    -0.068 A 
ATOM      8  C8  772 d   1      21.067  29.865  19.574  0.00  0.00    -0.044 A 
ATOM      9  C9  772 d   1      20.687  29.104  18.430  0.00  0.00     0.137 A 
ATOM     10  N10 772 d   1      19.415  29.174  17.886  0.00  0.00    -0.234 NA
ATOM     11  C15 772 d   1      21.679  28.205  17.909  0.00  0.00     0.119 C 
ATOM     12  N16 772 d   1      22.430  27.547  17.545  0.00  0.00    -0.190 NA
ATOM     13  H1  772 d   1      16.023  32.711  19.851  0.00  0.00     0.083 H 
ATOM     14  H2  772 d   1      18.247  32.495  20.908  0.00  0.00     0.084 H 
ATOM     15  H3  772 d   1      15.304  31.235  17.980  0.00  0.00     0.087 H 
ATOM     16  H4  772 d   1      20.457  31.332  21.065  0.00  0.00     0.085 H 
ATOM     17  H5  772 d   1      22.065  29.749  19.981  0.00  0.00     0.088 H 
ENDROOT
BRANCH   5  18
ATOM     18  O11 772 d   1      16.833  29.238  16.945  0.00  0.00    -0.238 OA
BRANCH  18  19
ATOM     19  P12 772 d   1      15.783  28.158  17.359  0.00  0.00     0.427 P 
ATOM     20  O13 772 d   1      16.315  26.908  16.721  0.00  0.00    -0.617 OA
ATOM     21  O14 772 d   1      14.461  28.610  16.798  0.00  0.00    -0.617 OA
ATOM     22  O17 772 d   1      15.659  27.996  18.841  0.00  0.00    -0.617 OA
ENDBRANCH  18  19
ENDBRANCH   5  18
TORSDOF 2
