REMARK  7 active torsions:
REMARK  status: ('A' for Active; 'I' for Inactive)
REMARK    1  A    between atoms: C4_4  and  C7_7 
REMARK    2  A    between atoms: C5_5  and  O8_8 
REMARK    3  A    between atoms: C7_7  and  O17_13 
REMARK    4  A    between atoms: O8_8  and  P9_9 
REMARK    5  A    between atoms: P9_9  and  O10_10 
REMARK    6  A    between atoms: O10_10  and  C12_12 
REMARK    7  A    between atoms: C12_12  and  C21_15 
ROOT
ATOM      1  O10 219 d   1      16.978  28.073  17.157  0.00  0.00    -0.289 OA
ENDROOT
BRANCH   1   2
ATOM      2  P9  219 d   1      15.588  28.493  17.598  0.00  0.00     0.413 P 
ATOM      3  O11 219 d   1      15.793  29.799  18.381  0.00  0.00    -0.624 OA
ATOM      4  O19 219 d   1      14.470  28.640  16.597  0.00  0.00    -0.624 OA
BRANCH   2   5
ATOM      5  O8  219 d   1      15.403  27.361  18.734  0.00  0.00    -0.247 OA
BRANCH   5   6
ATOM      6  C5  219 d   1      16.501  26.443  19.064  0.00  0.00     0.090 A 
ATOM      7  C4  219 d   1      16.560  25.125  18.441  0.00  0.00    -0.001 A 
ATOM      8  C3  219 d   1      17.492  24.175  19.024  0.00  0.00    -0.072 A 
ATOM      9  C2  219 d   1      18.314  24.464  20.174  0.00  0.00    -0.082 A 
ATOM     10  H3  219 d   1      17.574  23.194  18.570  0.00  0.00     0.084 H 
ATOM     11  C1  219 d   1      18.236  25.764  20.761  0.00  0.00    -0.080 A 
ATOM     12  H2  219 d   1      18.977  23.710  20.584  0.00  0.00     0.083 H 
ATOM     13  C6  219 d   1      17.365  26.748  20.192  0.00  0.00    -0.050 A 
ATOM     14  H1  219 d   1      18.833  26.005  21.633  0.00  0.00     0.083 H 
ATOM     15  H4  219 d   1      17.350  27.747  20.614  0.00  0.00     0.087 H 
BRANCH   7  16
ATOM     16  C7  219 d   1      15.610  24.692  17.325  0.00  0.00     0.043 C 
ATOM     17  H5  219 d   1      14.620  24.739  17.802  0.00  0.00     0.081 H 
ATOM     18  H6  219 d   1      15.884  23.641  17.152  0.00  0.00     0.081 H 
BRANCH  16  19
ATOM     19  O17 219 d   1      15.380  25.159  16.089  0.00  0.00    -0.396 OA
ATOM     20  H9  219 d   1      14.708  24.632  15.672  0.00  0.00     0.209 HD
ENDBRANCH  16  19
ENDBRANCH   7  16
ENDBRANCH   5   6
ENDBRANCH   2   5
ENDBRANCH   1   2
BRANCH   1  21
ATOM     21  C12 219 d   1      17.091  27.652  15.836  0.00  0.00     0.035 C 
ATOM     22  H7  219 d   1      16.110  27.392  15.412  0.00  0.00     0.075 H 
ATOM     23  H8  219 d   1      17.769  26.791  15.746  0.00  0.00     0.075 H 
BRANCH  21  24
ATOM     24  C21 219 d   1      17.661  28.863  15.182  0.00  0.00    -0.033 C 
ATOM     25  C24 219 d   1      19.127  28.476  14.887  0.00  0.00    -0.060 C 
ATOM     26  C25 219 d   1      20.027  28.359  16.119  0.00  0.00    -0.065 C 
ATOM     27  H11 219 d   1      19.555  29.242  14.224  0.00  0.00     0.033 H 
ATOM     28  H12 219 d   1      19.126  27.504  14.372  0.00  0.00     0.033 H 
ATOM     29  C26 219 d   1      20.167  29.711  16.798  0.00  0.00    -0.065 C 
ATOM     30  H13 219 d   1      21.021  28.003  15.810  0.00  0.00     0.033 H 
ATOM     31  H14 219 d   1      19.584  27.642  16.826  0.00  0.00     0.033 H 
ATOM     32  C27 219 d   1      18.776  30.227  17.183  0.00  0.00    -0.065 C 
ATOM     33  H15 219 d   1      20.645  30.422  16.108  0.00  0.00     0.033 H 
ATOM     34  H16 219 d   1      20.784  29.607  17.703  0.00  0.00     0.033 H 
ATOM     35  C28 219 d   1      17.684  30.162  16.104  0.00  0.00    -0.060 C 
ATOM     36  H17 219 d   1      18.884  31.280  17.483  0.00  0.00     0.033 H 
ATOM     37  H18 219 d   1      18.429  29.635  18.043  0.00  0.00     0.033 H 
ATOM     38  H19 219 d   1      16.710  30.227  16.612  0.00  0.00     0.033 H 
ATOM     39  H20 219 d   1      17.814  31.034  15.447  0.00  0.00     0.033 H 
ATOM     40  H10 219 d   1      17.110  29.084  14.256  0.00  0.00     0.043 H 
ENDBRANCH  21  24
ENDBRANCH   1  21
TORSDOF 7
