REMARK  4 active torsions:
REMARK  status: ('A' for Active; 'I' for Inactive)
REMARK    1  A    between atoms: C1_1  and  C18_14 
REMARK    2  A    between atoms: C4_4  and  N11_7 
REMARK       I    between atoms: N11_7  and  C12_8 
REMARK    3  A    between atoms: C12_8  and  P14_10 
REMARK    4  A    between atoms: C18_14  and  C19_15 
ROOT
ATOM      1  C1  IS2 d   1      21.757  32.449  16.347  0.00  0.00    -0.058 C 
ATOM      2  C2  IS2 d   1      20.613  32.834  17.146  0.00  0.00    -0.075 C 
ATOM      3  C3  IS2 d   1      19.472  31.985  17.243  0.00  0.00    -0.057 C 
ATOM      4  C4  IS2 d   1      19.513  30.662  16.652  0.00  0.00     0.035 C 
ATOM      5  C5  IS2 d   1      20.717  30.218  16.054  0.00  0.00    -0.057 C 
ATOM      6  C6  IS2 d   1      21.844  31.075  15.946  0.00  0.00    -0.075 C 
ATOM      7  H1  IS2 d   1      20.624  33.779  17.677  0.00  0.00     0.084 H 
ATOM      8  H2  IS2 d   1      18.580  32.326  17.755  0.00  0.00     0.086 H 
ATOM      9  H3  IS2 d   1      20.780  29.206  15.672  0.00  0.00     0.086 H 
ATOM     10  H4  IS2 d   1      22.779  30.687  15.557  0.00  0.00     0.084 H 
ENDROOT
BRANCH   4  11
ATOM     11  N11 IS2 d   1      18.358  29.812  16.604  0.00  0.00    -0.315 N 
ATOM     12  C12 IS2 d   1      17.116  30.268  17.043  0.00  0.00     0.349 C 
ATOM     13  O13 IS2 d   1      17.076  31.177  17.817  0.00  0.00    -0.257 OA
ATOM     14  H5  IS2 d   1      18.445  28.880  16.251  0.00  0.00     0.169 HD
BRANCH  12  15
ATOM     15  P14 IS2 d   1      15.925  28.985  17.255  0.00  0.00     0.355 P 
ATOM     16  O15 IS2 d   1      14.395  29.552  16.726  0.00  0.00    -0.633 OA
ATOM     17  O16 IS2 d   1      15.930  28.590  18.686  0.00  0.00    -0.633 OA
ATOM     18  O17 IS2 d   1      16.306  27.907  16.404  0.00  0.00    -0.633 OA
ENDBRANCH  12  15
ENDBRANCH   4  11
BRANCH   1  19
ATOM     19  C18 IS2 d   1      23.015  33.281  16.403  0.00  0.00    -0.044 C 
ATOM     20  H6  IS2 d   1      23.672  32.998  15.567  0.00  0.00     0.039 H 
ATOM     21  H7  IS2 d   1      23.531  33.090  17.355  0.00  0.00     0.039 H 
BRANCH  19  22
ATOM     22  C19 IS2 d   1      22.680  34.808  16.298  0.00  0.00    -0.073 C 
ATOM     23  H8  IS2 d   1      23.611  35.392  16.341  0.00  0.00     0.028 H 
ATOM     24  H9  IS2 d   1      22.026  35.098  17.134  0.00  0.00     0.028 H 
ATOM     25  H10 IS2 d   1      22.167  35.006  15.345  0.00  0.00     0.028 H 
ENDBRANCH  19  22
ENDBRANCH   1  19
TORSDOF 4
