REMARK  6 active torsions:
REMARK  status: ('A' for Active; 'I' for Inactive)
REMARK    1  A    between atoms: C1_1  and  C2_4 
REMARK    2  A    between atoms: C2_4  and  C3_5 
REMARK    3  A    between atoms: C3_5  and  O7_6 
REMARK    4  A    between atoms: C3_5  and  C4_7 
REMARK    5  A    between atoms: C3_5  and  C6_11 
REMARK    6  A    between atoms: C4_7  and  C5_8 
ROOT
ATOM      1  C3  CIT d   1      17.595  28.673  17.062  0.00  0.00     0.164 C 
ENDROOT
BRANCH   1   2
ATOM      2  C2  CIT d   1      16.497  29.597  17.593  0.00  0.00     0.054 C 
ATOM      3  H1  CIT d   1      16.787  30.001  18.574  0.00  0.00     0.054 H 
ATOM      4  H2  CIT d   1      16.330  30.426  16.890  0.00  0.00     0.054 H 
BRANCH   2   5
ATOM      5  C1  CIT d   1      15.220  28.755  17.727  0.00  0.00     0.176 C 
ATOM      6  O1  CIT d   1      14.517  28.570  16.605  0.00  0.00    -0.648 OA
ATOM      7  O2  CIT d   1      14.894  28.345  18.829  0.00  0.00    -0.648 OA
ENDBRANCH   2   5
ENDBRANCH   1   2
BRANCH   1   8
ATOM      8  O7  CIT d   1      17.630  27.548  17.942  0.00  0.00    -0.378 OA
ATOM      9  H3  CIT d   1      16.785  27.115  17.934  0.00  0.00     0.211 HD
ENDBRANCH   1   8
BRANCH   1  10
ATOM     10  C4  CIT d   1      18.830  29.654  17.136  0.00  0.00     0.054 C 
ATOM     11  H4  CIT d   1      18.990  29.936  18.187  0.00  0.00     0.054 H 
ATOM     12  H5  CIT d   1      18.598  30.553  16.547  0.00  0.00     0.054 H 
BRANCH  10  13
ATOM     13  C5  CIT d   1      20.145  29.029  16.586  0.00  0.00     0.176 C 
ATOM     14  O3  CIT d   1      21.265  29.480  16.903  0.00  0.00    -0.648 OA
ATOM     15  O4  CIT d   1      20.069  27.975  15.734  0.00  0.00    -0.648 OA
ENDBRANCH  10  13
ENDBRANCH   1  10
BRANCH   1  16
ATOM     16  C6  CIT d   1      17.364  28.200  15.689  0.00  0.00     0.210 C 
ATOM     17  O5  CIT d   1      17.338  29.190  14.792  0.00  0.00    -0.646 OA
ATOM     18  O6  CIT d   1      16.979  27.078  15.398  0.00  0.00    -0.646 OA
ENDBRANCH   1  16
TORSDOF 6
