REMARK  1 active torsions:
REMARK  status: ('A' for Active; 'I' for Inactive)
REMARK    1  A    between atoms: C1_1  and  C2_2 
ROOT
ATOM      1  C1  OXD d   1      15.157  28.504  17.941  0.00  0.00     0.279 C 
ATOM      2  O3  OXD d   1      15.039  28.119  19.174  0.00  0.00    -0.639 OA
ATOM      3  O5  OXD d   1      14.310  28.737  17.043  0.00  0.00    -0.639 OA
ENDROOT
BRANCH   1   4
ATOM      4  C2  OXD d   1      16.600  28.312  17.493  0.00  0.00     0.279 C 
ATOM      5  O4  OXD d   1      17.495  28.244  18.388  0.00  0.00    -0.639 OA
ATOM      6  O6  OXD d   1      16.869  28.034  16.379  0.00  0.00    -0.639 OA
ENDBRANCH   1   4
TORSDOF 1
