REMARK  2 active torsions:
REMARK  status: ('A' for Active; 'I' for Inactive)
REMARK    1  A    between atoms: C5_5  and  O12_7 
REMARK    2  A    between atoms: O12_7  and  P13_8 
ROOT
ATOM      1  C1  HPS d   1      18.223  15.558  31.499  0.00  0.00    -0.080 C 
ATOM      2  C2  HPS d   1      18.670  15.590  30.105  0.00  0.00    -0.083 C 
ATOM      3  C3  HPS d   1      18.548  16.696  29.336  0.00  0.00    -0.080 C 
ATOM      4  C4  HPS d   1      18.028  17.813  29.980  0.00  0.00    -0.050 C 
ATOM      5  C5  HPS d   1      17.685  17.811  31.373  0.00  0.00     0.082 C 
ATOM      6  C6  HPS d   1      17.676  16.632  32.156  0.00  0.00    -0.050 C 
ATOM      7  H1  HPS d   1      18.331  14.628  32.046  0.00  0.00     0.083 H 
ATOM      8  H2  HPS d   1      19.113  14.699  29.675  0.00  0.00     0.083 H 
ATOM      9  H3  HPS d   1      18.835  16.710  28.291  0.00  0.00     0.083 H 
ATOM     10  H4  HPS d   1      17.876  18.721  29.407  0.00  0.00     0.087 H 
ATOM     11  H5  HPS d   1      17.280  16.583  33.164  0.00  0.00     0.087 H 
ENDROOT
BRANCH   5  12
ATOM     12  O12 HPS d   1      17.397  19.083  31.939  0.00  0.00    -0.240 OA
BRANCH  12  13
ATOM     13  P13 HPS d   1      18.516  20.247  32.524  0.00  0.00     0.427 P 
ATOM     14  O14 HPS d   1      17.817  21.455  33.187  0.00  0.00    -0.617 OA
ATOM     15  O15 HPS d   1      19.390  20.669  31.259  0.00  0.00    -0.617 OA
ATOM     16  O16 HPS d   1      19.416  19.470  33.531  0.00  0.00    -0.617 OA
ENDBRANCH  12  13
ENDBRANCH   5  12
TORSDOF 2
