REMARK  3 active torsions:
REMARK  status: ('A' for Active; 'I' for Inactive)
REMARK    1  A    between atoms: C4_4  and  C12_7 
REMARK    2  A    between atoms: C12_7  and  C13_8 
REMARK    3  A    between atoms: C12_7  and  C14_9 
ROOT
ATOM      1  C1  791 d   1      18.395  24.618  19.617  0.00  0.00    -0.083 A 
ATOM      2  C2  791 d   1      19.164  25.808  19.645  0.00  0.00    -0.082 A 
ATOM      3  C3  791 d   1      18.711  27.013  19.024  0.00  0.00    -0.075 A 
ATOM      4  C4  791 d   1      17.453  26.989  18.400  0.00  0.00    -0.034 A 
ATOM      5  C5  791 d   1      16.706  25.786  18.407  0.00  0.00    -0.075 A 
ATOM      6  C6  791 d   1      17.137  24.593  18.988  0.00  0.00    -0.082 A 
ATOM      7  H1  791 d   1      18.780  23.719  20.084  0.00  0.00     0.083 H 
ATOM      8  H2  791 d   1      20.122  25.804  20.151  0.00  0.00     0.083 H 
ATOM      9  H3  791 d   1      19.316  27.912  19.034  0.00  0.00     0.084 H 
ATOM     10  H4  791 d   1      15.733  25.792  17.928  0.00  0.00     0.084 H 
ATOM     11  H5  791 d   1      16.534  23.693  18.956  0.00  0.00     0.083 H 
ENDROOT
BRANCH   4  12
ATOM     12  C12 791 d   1      16.857  28.154  17.664  0.00  0.00     0.139 C 
ATOM     13  H6  791 d   1      17.381  28.926  18.246  0.00  0.00     0.081 H 
BRANCH  12  14
ATOM     14  C13 791 d   1      15.452  28.564  18.081  0.00  0.00     0.192 C 
ATOM     15  O16 791 d   1      14.716  28.854  17.072  0.00  0.00    -0.647 OA
ATOM     16  O17 791 d   1      15.202  28.736  19.204  0.00  0.00    -0.647 OA
ENDBRANCH  12  14
BRANCH  12  17
ATOM     17  C14 791 d   1      17.400  28.622  16.302  0.00  0.00     0.192 C 
ATOM     18  O18 791 d   1      17.504  29.927  16.010  0.00  0.00    -0.647 OA
ATOM     19  O19 791 d   1      17.555  27.764  15.598  0.00  0.00    -0.647 OA
ENDBRANCH  12  17
ENDBRANCH   4  12
TORSDOF 3
