REMARK  3 active torsions:
REMARK  status: ('A' for Active; 'I' for Inactive)
REMARK    1  A    between atoms: C4_4  and  C7_7 
REMARK    2  A    between atoms: C7_7  and  C8_8 
REMARK    3  A    between atoms: C7_7  and  S10_10 
ROOT
ATOM      1  C1  256 d   1      19.257  25.642  20.243  0.00  0.00    -0.083 A 
ATOM      2  C2  256 d   1      18.210  24.779  19.980  0.00  0.00    -0.082 A 
ATOM      3  C3  256 d   1      17.282  25.171  19.034  0.00  0.00    -0.075 A 
ATOM      4  C4  256 d   1      17.423  26.442  18.445  0.00  0.00    -0.027 A 
ATOM      5  C5  256 d   1      18.521  27.283  18.685  0.00  0.00    -0.075 A 
ATOM      6  C6  256 d   1      19.448  26.893  19.628  0.00  0.00    -0.082 A 
ATOM      7  H1  256 d   1      19.988  25.331  20.980  0.00  0.00     0.083 H 
ATOM      8  H2  256 d   1      18.120  23.830  20.496  0.00  0.00     0.083 H 
ATOM      9  H3  256 d   1      16.465  24.516  18.752  0.00  0.00     0.084 H 
ATOM     10  H4  256 d   1      18.637  28.215  18.143  0.00  0.00     0.084 H 
ATOM     11  H5  256 d   1      20.290  27.525  19.885  0.00  0.00     0.083 H 
ENDROOT
BRANCH   4  12
ATOM     12  C7  256 d   1      16.375  26.992  17.570  0.00  0.00     0.170 C 
ATOM     13  H6  256 d   1      15.613  26.199  17.540  0.00  0.00     0.093 H 
BRANCH  12  14
ATOM     14  C8  256 d   1      16.868  27.189  16.086  0.00  0.00     0.199 C 
ATOM     15  O9  256 d   1      16.434  26.058  15.395  0.00  0.00    -0.647 OA
ATOM     16  O13 256 d   1      17.413  28.145  15.581  0.00  0.00    -0.647 OA
ENDBRANCH  12  14
BRANCH  12  17
ATOM     17  S10 256 d   1      15.494  28.445  18.042  0.00  0.00     0.121 S 
ATOM     18  O12 256 d   1      14.406  28.519  16.850  0.00  0.00    -0.594 OA
ATOM     19  O14 256 d   1      16.373  29.610  17.999  0.00  0.00    -0.594 OA
ATOM     20  O15 256 d   1      14.932  28.249  19.357  0.00  0.00    -0.594 OA
ENDBRANCH  12  17
ENDBRANCH   4  12
TORSDOF 3
