REMARK  3 active torsions:
REMARK  status: ('A' for Active; 'I' for Inactive)
REMARK    1  A    between atoms: C4_4  and  C7_7 
REMARK    2  A    between atoms: C7_7  and  P8_8 
REMARK    3  A    between atoms: C7_7  and  P9_9 
ROOT
ATOM      1  C1  787 d   1      17.751  24.338  19.042  0.00  0.00    -0.083 C 
ATOM      2  C2  787 d   1      16.878  24.573  17.968  0.00  0.00    -0.082 C 
ATOM      3  C3  787 d   1      16.779  25.844  17.344  0.00  0.00    -0.075 C 
ATOM      4  C4  787 d   1      17.568  26.910  17.940  0.00  0.00    -0.028 C 
ATOM      5  C5  787 d   1      18.539  26.655  18.948  0.00  0.00    -0.075 C 
ATOM      6  C6  787 d   1      18.576  25.354  19.564  0.00  0.00    -0.082 C 
ATOM      7  H1  787 d   1      17.791  23.348  19.482  0.00  0.00     0.083 H 
ATOM      8  H2  787 d   1      16.261  23.759  17.604  0.00  0.00     0.083 H 
ATOM      9  H3  787 d   1      16.153  26.010  16.475  0.00  0.00     0.084 H 
ATOM     10  H4  787 d   1      19.239  27.427  19.247  0.00  0.00     0.084 H 
ATOM     11  H5  787 d   1      19.224  25.160  20.411  0.00  0.00     0.083 H 
ENDROOT
BRANCH   4  12
ATOM     12  C7  787 d   1      17.388  28.197  17.425  0.00  0.00     0.187 C 
ATOM     13  H6  787 d   1      17.983  28.814  18.114  0.00  0.00     0.091 H 
BRANCH  12  14
ATOM     14  P8  787 d   1      15.762  28.880  17.574  0.00  0.00     0.282 P 
ATOM     15  O14 787 d   1      16.002  30.508  17.352  0.00  0.00    -0.639 OA
ATOM     16  O15 787 d   1      15.282  28.642  18.965  0.00  0.00    -0.639 OA
ATOM     17  O16 787 d   1      14.830  28.436  16.589  0.00  0.00    -0.639 OA
ENDBRANCH  12  14
BRANCH  12  18
ATOM     18  P9  787 d   1      18.168  28.546  15.762  0.00  0.00     0.282 P 
ATOM     19  O11 787 d   1      17.562  29.830  15.234  0.00  0.00    -0.639 OA
ATOM     20  O12 787 d   1      17.769  27.493  14.812  0.00  0.00    -0.639 OA
ATOM     21  O13 787 d   1      19.603  28.585  15.950  0.00  0.00    -0.639 OA
ENDBRANCH  12  18
ENDBRANCH   4  12
TORSDOF 3
