REMARK  7 active torsions:
REMARK  status: ('A' for Active; 'I' for Inactive)
REMARK    1  A    between atoms: C1_1  and  C7_8 
REMARK    2  A    between atoms: C7_8  and  N1_9 
REMARK    3  A    between atoms: C1'_14  and  C8_13 
REMARK    4  A    between atoms: O5'_21  and  C5'_18 
REMARK    5  A    between atoms: C6'_19  and  O6'_20 
REMARK    6  A    between atoms: C6''_27  and  O5'_21 
REMARK    7  A    between atoms: C1''_22  and  C1A_28 
ROOT
ATOM      1  C1' CR9 d   1      16.106  -2.899  30.085  0.00  0.00     0.046 A 
ATOM      2  C2' CR9 d   1      17.052  -3.226  31.072  0.00  0.00    -0.066 A 
ATOM      3  C3' CR9 d   1      17.108  -2.544  32.276  0.00  0.00    -0.079 A 
ATOM      4  C4' CR9 d   1      16.216  -1.507  32.545  0.00  0.00    -0.048 A 
ATOM      5  C5' CR9 d   1      15.255  -1.149  31.586  0.00  0.00     0.103 A 
ATOM      6  C6' CR9 d   1      15.213  -1.842  30.382  0.00  0.00     0.113 A 
ATOM      7  H8  CR9 d   1      17.754  -4.031  30.886  0.00  0.00     0.085 H 
ATOM      8  H9  CR9 d   1      17.852  -2.819  33.015  0.00  0.00     0.083 H 
ATOM      9  H10 CR9 d   1      16.264  -0.979  33.491  0.00  0.00     0.087 H 
ENDROOT
BRANCH   5  10
ATOM     10  O5' CR9 d   1      14.311  -0.143  31.769  0.00  0.00    -0.343 OA
BRANCH  10  11
ATOM     11  C6' CR9 d   1      14.643   0.961  32.605  0.00  0.00     0.048 C 
ATOM     12  C1' CR9 d   1      13.953   0.832  34.029  0.00  0.00    -0.032 C 
ATOM     13  C2' CR9 d   1      12.609   1.562  34.007  0.00  0.00    -0.060 C 
ATOM     14  H12 CR9 d   1      14.607   1.290  34.786  0.00  0.00     0.043 H 
ATOM     15  C3' CR9 d   1      12.822   3.078  33.849  0.00  0.00    -0.065 C 
ATOM     16  H13 CR9 d   1      12.076   1.368  34.949  0.00  0.00     0.033 H 
ATOM     17  H14 CR9 d   1      12.009   1.191  33.163  0.00  0.00     0.033 H 
ATOM     18  C4' CR9 d   1      13.967   3.404  32.892  0.00  0.00    -0.063 C 
ATOM     19  H15 CR9 d   1      13.052   3.508  34.835  0.00  0.00     0.033 H 
ATOM     20  H16 CR9 d   1      11.896   3.527  33.460  0.00  0.00     0.033 H 
ATOM     21  C5' CR9 d   1      14.168   2.259  31.892  0.00  0.00    -0.040 C 
ATOM     22  H17 CR9 d   1      14.892   3.548  33.469  0.00  0.00     0.033 H 
ATOM     23  H18 CR9 d   1      13.729   4.327  32.343  0.00  0.00     0.033 H 
ATOM     24  H19 CR9 d   1      14.925   2.558  31.152  0.00  0.00     0.036 H 
ATOM     25  H20 CR9 d   1      13.215   2.058  31.381  0.00  0.00     0.036 H 
ATOM     26  H21 CR9 d   1      15.734   0.997  32.742  0.00  0.00     0.084 H 
BRANCH  12  27
ATOM     27  C1A CR9 d   1      13.709  -0.654  34.402  0.00  0.00    -0.070 C 
ATOM     28  H22 CR9 d   1      13.231  -0.710  35.391  0.00  0.00     0.028 H 
ATOM     29  H23 CR9 d   1      14.670  -1.188  34.428  0.00  0.00     0.028 H 
ATOM     30  H24 CR9 d   1      13.053  -1.118  33.651  0.00  0.00     0.028 H 
ENDBRANCH  12  27
ENDBRANCH  10  11
ENDBRANCH   5  10
BRANCH   6  31
ATOM     31  O6' CR9 d   1      14.264  -1.453  29.475  0.00  0.00    -0.357 OA
ATOM     32  H11 CR9 d   1      13.401  -1.553  29.859  0.00  0.00     0.217 HD
ENDBRANCH   6  31
BRANCH   1  33
ATOM     33  C8  CR9 d   1      16.055  -3.596  28.861  0.00  0.00     0.142 A 
ATOM     34  N3  CR9 d   1      15.360  -3.173  27.850  0.00  0.00    -0.338 N 
ATOM     35  C4  CR9 d   1      15.569  -4.030  26.925  0.00  0.00     0.066 A 
ATOM     36  H7  CR9 d   1      14.769  -2.331  27.803  0.00  0.00     0.167 HD
ATOM     37  C3  CR9 d   1      15.081  -4.057  25.665  0.00  0.00    -0.017 A 
ATOM     38  C5  CR9 d   1      16.394  -4.965  27.437  0.00  0.00     0.087 A 
ATOM     39  C2  CR9 d   1      15.485  -5.135  24.889  0.00  0.00     0.132 A 
ATOM     40  H1  CR9 d   1      14.418  -3.288  25.285  0.00  0.00     0.091 H 
ATOM     41  C1  CR9 d   1      16.369  -6.178  25.386  0.00  0.00     0.048 A 
ATOM     42  F2  CR9 d   1      15.023  -5.133  23.626  0.00  0.00    -0.205 F 
ATOM     43  C6  CR9 d   1      16.821  -6.048  26.719  0.00  0.00    -0.036 A 
ATOM     44  H2  CR9 d   1      17.485  -6.784  27.158  0.00  0.00     0.088 H 
ATOM     45  N4  CR9 d   1      16.732  -4.719  28.687  0.00  0.00    -0.228 NA
BRANCH  41  46
ATOM     46  C7  CR9 d   1      16.757  -7.292  24.599  0.00  0.00     0.105 C 
ATOM     47  N2  CR9 d   1      16.022  -7.706  23.595  0.00  0.00    -0.385 N 
ATOM     48  H5  CR9 d   1      15.143  -7.220  23.365  0.00  0.00     0.157 HD
ATOM     49  H6  CR9 d   1      16.323  -8.517  23.036  0.00  0.00     0.157 HD
BRANCH  46  50
ATOM     50  N1  CR9 d   1      17.861  -7.948  24.843  0.00  0.00    -0.385 N 
ATOM     51  H3  CR9 d   1      18.121  -8.754  24.257  0.00  0.00     0.157 HD
ATOM     52  H4  CR9 d   1      18.471  -7.659  25.621  0.00  0.00     0.157 HD
ENDBRANCH  46  50
ENDBRANCH  41  46
ENDBRANCH   1  33
TORSDOF 7
