REMARK  3 active torsions:
REMARK  status: ('A' for Active; 'I' for Inactive)
REMARK    1  A    between atoms: C4_2  and  C33_17 
REMARK       I    between atoms: C65_36  and  N12_5 
REMARK    2  A    between atoms: C61_34  and  C49_27 
REMARK       I    between atoms: N54_29  and  C55_30 
REMARK       I    between atoms: C55_30  and  N56_31 
REMARK    3  A    between atoms: C61_34  and  C65_36 
ROOT
ATOM      1  C1  336 d   1     187.085 131.704  33.595  0.00  0.00    -0.002 C 
ATOM      2  C4  336 d   1     186.548 129.303  32.965  0.00  0.00    -0.038 C 
ATOM      3  C6  336 d   1     185.567 129.275  34.129  0.00  0.00    -0.046 C 
ATOM      4  C9  336 d   1     185.999 130.184  35.258  0.00  0.00    -0.002 C 
ATOM      5  N12 336 d   1     186.230 131.544  34.778  0.00  0.00    -0.352 N 
ATOM      6  C13 336 d   1     186.704 130.733  32.478  0.00  0.00    -0.046 C 
ATOM      7  O64 336 d   1     184.954 132.504  36.398  0.00  0.00    -0.273 OA
ATOM      8  C65 336 d   1     185.673 132.596  35.410  0.00  0.00     0.220 C 
ATOM      9  H1  336 d   1     188.130 131.520  33.885  0.00  0.00     0.064 H 
ATOM     10  H2  336 d   1     186.984 132.733  33.221  0.00  0.00     0.064 H 
ATOM     11  H3  336 d   1     187.523 128.951  33.333  0.00  0.00     0.041 H 
ATOM     12  H4  336 d   1     185.497 128.245  34.510  0.00  0.00     0.035 H 
ATOM     13  H5  336 d   1     184.580 129.601  33.769  0.00  0.00     0.035 H 
ATOM     14  H6  336 d   1     186.930 129.795  35.697  0.00  0.00     0.064 H 
ATOM     15  H7  336 d   1     185.212 130.203  36.026  0.00  0.00     0.064 H 
ATOM     16  H8  336 d   1     187.489 130.758  31.708  0.00  0.00     0.035 H 
ATOM     17  H9  336 d   1     185.750 131.060  32.039  0.00  0.00     0.035 H 
ENDROOT
BRANCH   2  18
ATOM     18  C33 336 d   1     186.111 128.357  31.766  0.00  0.00     0.020 C 
ATOM     19  C39 336 d   1     187.314 128.081  30.904  0.00  0.00     0.049 A 
ATOM     20  N32 336 d   1     187.464 128.931  29.864  0.00  0.00    -0.263 NA
ATOM     21  C41 336 d   1     188.268 127.042  31.122  0.00  0.00    -0.031 A 
ATOM     22  C30 336 d   1     188.480 128.838  29.003  0.00  0.00     0.019 A 
ATOM     23  C29 336 d   1     189.449 127.837  29.154  0.00  0.00     0.029 A 
ATOM     24  H16 336 d   1     188.556 129.541  28.182  0.00  0.00     0.116 H 
ATOM     25  C17 336 d   1     189.329 126.944  30.219  0.00  0.00    -0.057 A 
ATOM     26 BR37 336 d   1     190.902 127.677  27.955  0.00  0.00    -0.050 Br
ATOM     27  H10 336 d   1     190.070 126.163  30.348  0.00  0.00     0.086 H 
ATOM     28  C25 336 d   1     188.257 125.994  32.237  0.00  0.00    -0.035 C 
ATOM     29  C22 336 d   1     187.399 126.334  33.402  0.00  0.00    -0.037 C 
ATOM     30  H14 336 d   1     187.897 125.046  31.812  0.00  0.00     0.040 H 
ATOM     31  H15 336 d   1     189.288 125.866  32.597  0.00  0.00     0.040 H 
ATOM     32  C42 336 d   1     185.943 126.193  33.031  0.00  0.00    -0.048 A 
ATOM     33  H12 336 d   1     187.597 127.371  33.710  0.00  0.00     0.040 H 
ATOM     34  H13 336 d   1     187.630 125.654  34.235  0.00  0.00     0.040 H 
ATOM     35  C20 336 d   1     185.210 125.090  33.479  0.00  0.00    -0.055 A 
ATOM     36  C40 336 d   1     185.335 127.179  32.240  0.00  0.00    -0.024 A 
ATOM     37  C19 336 d   1     183.856 124.974  33.135  0.00  0.00     0.035 A 
ATOM     38  H11 336 d   1     185.685 124.330  34.088  0.00  0.00     0.086 H 
ATOM     39 CL16 336 d   1     182.921 123.634  33.671  0.00  0.00    -0.084 Cl
ATOM     40  C35 336 d   1     183.244 125.951  32.348  0.00  0.00    -0.045 A 
ATOM     41  C28 336 d   1     183.973 127.057  31.900  0.00  0.00     0.020 A 
ATOM     42  H18 336 d   1     182.198 125.852  32.083  0.00  0.00     0.088 H 
ATOM     43 BR38 336 d   1     183.097 128.363  30.838  0.00  0.00    -0.050 Br
ATOM     44  H17 336 d   1     185.414 128.933  31.139  0.00  0.00     0.058 H 
ENDBRANCH   2  18
BRANCH   8  45
ATOM     45  C61 336 d   1     185.996 133.964  34.806  0.00  0.00     0.013 C 
ATOM     46  H30 336 d   1     187.047 133.970  34.480  0.00  0.00     0.047 H 
ATOM     47  H31 336 d   1     185.342 134.133  33.938  0.00  0.00     0.047 H 
BRANCH  45  48
ATOM     48  C49 336 d   1     185.785 135.094  35.809  0.00  0.00    -0.043 C 
ATOM     49  C43 336 d   1     185.619 136.469  35.162  0.00  0.00    -0.046 C 
ATOM     50  C46 336 d   1     185.527 137.585  36.203  0.00  0.00    -0.000 C 
ATOM     51  H19 336 d   1     186.484 136.662  34.511  0.00  0.00     0.035 H 
ATOM     52  H20 336 d   1     184.699 136.469  34.559  0.00  0.00     0.035 H 
ATOM     53  N54 336 d   1     186.624 137.463  37.164  0.00  0.00    -0.334 N 
ATOM     54  H21 336 d   1     184.567 137.510  36.734  0.00  0.00     0.064 H 
ATOM     55  H22 336 d   1     185.591 138.560  35.699  0.00  0.00     0.064 H 
ATOM     56  C55 336 d   1     187.507 138.467  37.390  0.00  0.00     0.316 C 
ATOM     57  C58 336 d   1     186.726 136.187  37.862  0.00  0.00    -0.000 C 
ATOM     58  N56 336 d   1     188.420 138.108  38.305  0.00  0.00    -0.352 N 
ATOM     59  O57 336 d   1     187.500 139.572  36.848  0.00  0.00    -0.247 OA
ATOM     60  H26 336 d   1     189.138 138.750  38.574  0.00  0.00     0.160 HD
ATOM     61  H27 336 d   1     188.383 137.198  38.718  0.00  0.00     0.160 HD
ATOM     62  C51 336 d   1     186.882 135.078  36.870  0.00  0.00    -0.046 C 
ATOM     63  H28 336 d   1     187.600 136.205  38.530  0.00  0.00     0.064 H 
ATOM     64  H29 336 d   1     185.814 136.021  38.455  0.00  0.00     0.064 H 
ATOM     65  H24 336 d   1     187.857 135.183  36.373  0.00  0.00     0.035 H 
ATOM     66  H25 336 d   1     186.844 134.117  37.404  0.00  0.00     0.035 H 
ATOM     67  H23 336 d   1     184.838 134.882  36.326  0.00  0.00     0.040 H 
ENDBRANCH  45  48
ENDBRANCH   8  45
TORSDOF 3
