REMARK  15 active torsions:
REMARK  status: ('A' for Active; 'I' for Inactive)
REMARK    1  A    between atoms: C4_4  and  C33_43 
REMARK    2  A    between atoms: C10_11  and  O1_12 
REMARK    3  A    between atoms: O1_12  and  C13_16 
REMARK    4  A    between atoms: C11_13  and  O6_14 
REMARK    5  A    between atoms: O6_14  and  C20_27 
REMARK    6  A    between atoms: C14_18  and  N1_19 
REMARK    7  A    between atoms: N1_19  and  C19_20 
REMARK    8  A    between atoms: C15_21  and  O4_22 
REMARK    9  A    between atoms: C16_23  and  O5_24 
REMARK   10  A    between atoms: C17_25  and  C18_26 
REMARK   11  A    between atoms: C20_27  and  C21_29 
REMARK   12  A    between atoms: C22_30  and  O9_31 
REMARK   13  A    between atoms: C28_37  and  O8_38 
REMARK   14  A    between atoms: O8_38  and  C31_39 
REMARK   15  A    between atoms: C30_41  and  C32_42 
ROOT
ATOM      1  C1  CHR d   1       1.805   8.995   0.174  0.00  0.00     0.026 C 
ATOM      2  C2  CHR d   1       0.985   9.499  -0.894  0.00  0.00    -0.063 C 
ATOM      3  C3  CHR d   1       0.533   9.880  -1.922  0.00  0.00    -0.056 C 
ATOM      4  C4  CHR d   1       0.292  10.271  -3.324  0.00  0.00     0.191 A 
ATOM      5  O2  CHR d   1       0.245   9.234  -4.345  0.00  0.00    -0.339 OA
ATOM      6  C5  CHR d   1       1.517   9.921  -4.164  0.00  0.00     0.142 A 
ATOM      7  C6  CHR d   1       2.551   9.276  -3.320  0.00  0.00    -0.065 C 
ATOM      8  C7  CHR d   1       3.211   8.796  -2.447  0.00  0.00    -0.075 C 
ATOM      9  C8  CHR d   1       3.795   8.309  -1.216  0.00  0.00    -0.023 C 
ATOM     10  C9  CHR d   1       3.175   8.537  -0.040  0.00  0.00     0.000 C 
ATOM     11  C10 CHR d   1       3.843   8.316   1.295  0.00  0.00     0.097 C 
ATOM     12  C11 CHR d   1       2.645   8.281   2.266  0.00  0.00     0.095 C 
ATOM     13  C12 CHR d   1       1.505   8.869   1.462  0.00  0.00    -0.054 C 
ATOM     14  H1  CHR d   1       1.943  10.568  -4.945  0.00  0.00     0.110 H 
ATOM     15  H2  CHR d   1       4.734   7.759  -1.239  0.00  0.00     0.098 H 
ATOM     16  H3  CHR d   1       4.400   7.367   1.311  0.00  0.00     0.095 H 
ATOM     17  H4  CHR d   1       2.841   8.874   3.171  0.00  0.00     0.095 H 
ATOM     18  H5  CHR d   1       0.546   9.156   1.891  0.00  0.00     0.083 H 
ENDROOT
BRANCH  12  19
ATOM     19  O6  CHR d   1       2.370   6.937   2.612  0.00  0.00    -0.305 OA
BRANCH  19  20
ATOM     20  C20 CHR d   1       3.270   6.517   3.477  0.00  0.00     0.297 C 
ATOM     21  O7  CHR d   1       3.626   7.197   4.418  0.00  0.00    -0.259 OA
BRANCH  20  22
ATOM     22  C21 CHR d   1       3.817   5.174   3.235  0.00  0.00     0.083 A 
ATOM     23  C22 CHR d   1       5.178   4.938   3.467  0.00  0.00     0.082 A 
ATOM     24  C23 CHR d   1       5.737   3.692   3.161  0.00  0.00    -0.049 A 
ATOM     25  C24 CHR d   1       4.938   2.680   2.618  0.00  0.00    -0.069 A 
ATOM     26  H22 CHR d   1       6.790   3.511   3.345  0.00  0.00     0.087 H 
ATOM     27  C25 CHR d   1       3.576   2.910   2.387  0.00  0.00    -0.019 A 
ATOM     28  H23 CHR d   1       5.373   1.717   2.376  0.00  0.00     0.085 H 
ATOM     29  C26 CHR d   1       3.010   4.155   2.698  0.00  0.00    -0.004 A 
ATOM     30  C30 CHR d   1       2.783   1.896   1.840  0.00  0.00    -0.048 A 
ATOM     31  C27 CHR d   1       1.641   4.375   2.468  0.00  0.00    -0.039 A 
ATOM     32  C28 CHR d   1       0.851   3.358   1.919  0.00  0.00     0.069 A 
ATOM     33  H24 CHR d   1       1.197   5.332   2.716  0.00  0.00     0.089 H 
ATOM     34  C29 CHR d   1       1.422   2.119   1.604  0.00  0.00    -0.044 A 
ATOM     35  H28 CHR d   1       0.810   1.333   1.177  0.00  0.00     0.088 H 
BRANCH  23  36
ATOM     36  O9  CHR d   1       5.974   5.942   4.007  0.00  0.00    -0.360 OA
ATOM     37  H21 CHR d   1       5.966   6.696   3.429  0.00  0.00     0.217 HD
ENDBRANCH  23  36
BRANCH  32  38
ATOM     38  O8  CHR d   1      -0.500   3.580   1.684  0.00  0.00    -0.356 OA
BRANCH  38  39
ATOM     39  C31 CHR d   1      -0.827   4.824   1.084  0.00  0.00     0.010 C 
ATOM     40  H25 CHR d   1      -1.916   4.889   0.946  0.00  0.00     0.066 H 
ATOM     41  H26 CHR d   1      -0.329   4.902   0.106  0.00  0.00     0.066 H 
ATOM     42  H27 CHR d   1      -0.490   5.645   1.734  0.00  0.00     0.066 H 
ENDBRANCH  38  39
ENDBRANCH  32  38
BRANCH  30  43
ATOM     43  C32 CHR d   1       3.403   0.556   1.493  0.00  0.00    -0.050 C 
ATOM     44  H29 CHR d   1       4.473   0.570   1.748  0.00  0.00     0.033 H 
ATOM     45  H30 CHR d   1       3.285   0.365   0.416  0.00  0.00     0.033 H 
ATOM     46  H31 CHR d   1       2.901  -0.239   2.063  0.00  0.00     0.033 H 
ENDBRANCH  30  43
ENDBRANCH  20  22
ENDBRANCH  19  20
ENDBRANCH  12  19
BRANCH  11  47
ATOM     47  O1  CHR d   1       4.718   9.389   1.615  0.00  0.00    -0.346 OA
BRANCH  47  48
ATOM     48  C13 CHR d   1       5.712   9.215   2.617  0.00  0.00     0.162 C 
ATOM     49  O3  CHR d   1       6.734   8.361   2.125  0.00  0.00    -0.351 OA
ATOM     50  C17 CHR d   1       7.543   8.781   1.036  0.00  0.00     0.065 C 
ATOM     51  C16 CHR d   1       8.176  10.137   1.361  0.00  0.00     0.087 C 
ATOM     52  H17 CHR d   1       6.922   8.874   0.133  0.00  0.00     0.086 H 
ATOM     53  C15 CHR d   1       7.082  11.127   1.778  0.00  0.00     0.094 C 
ATOM     54  H15 CHR d   1       8.693  10.521   0.470  0.00  0.00     0.090 H 
ATOM     55  C14 CHR d   1       6.317  10.570   2.982  0.00  0.00     0.175 C 
ATOM     56  H13 CHR d   1       6.386  11.277   0.940  0.00  0.00     0.090 H 
ATOM     57  H7  CHR d   1       7.008  10.446   3.829  0.00  0.00     0.096 H 
ATOM     58  H6  CHR d   1       5.256   8.765   3.511  0.00  0.00     0.132 H 
BRANCH  50  59
ATOM     59  C18 CHR d   1       8.645   7.749   0.793  0.00  0.00    -0.050 C 
ATOM     60  H18 CHR d   1       9.272   8.074  -0.050  0.00  0.00     0.031 H 
ATOM     61  H19 CHR d   1       8.190   6.775   0.558  0.00  0.00     0.031 H 
ATOM     62  H20 CHR d   1       9.265   7.655   1.696  0.00  0.00     0.031 H 
ENDBRANCH  50  59
BRANCH  51  63
ATOM     63  O5  CHR d   1       9.114   9.980   2.418  0.00  0.00    -0.390 OA
ATOM     64  H16 CHR d   1       9.510  10.821   2.616  0.00  0.00     0.210 HD
ENDBRANCH  51  63
BRANCH  53  65
ATOM     65  O4  CHR d   1       7.675  12.369   2.128  0.00  0.00    -0.391 OA
ATOM     66  H14 CHR d   1       8.275  12.239   2.853  0.00  0.00     0.210 HD
ENDBRANCH  53  65
BRANCH  55  67
ATOM     67  N1  CHR d   1       5.229  11.514   3.365  0.00  0.00    -0.068 N 
ATOM     68  H8  CHR d   1       4.431  11.287   2.792  0.00  0.00     0.277 HD
ATOM     69  H9  CHR d   1       5.554  12.441   3.137  0.00  0.00     0.277 HD
BRANCH  67  70
ATOM     70  C19 CHR d   1       4.747  11.562   4.773  0.00  0.00     0.065 C 
ATOM     71  H10 CHR d   1       3.948  12.313   4.862  0.00  0.00     0.067 H 
ATOM     72  H11 CHR d   1       5.581  11.834   5.437  0.00  0.00     0.067 H 
ATOM     73  H12 CHR d   1       4.356  10.575   5.061  0.00  0.00     0.067 H 
ENDBRANCH  67  70
ENDBRANCH  55  67
ENDBRANCH  47  48
ENDBRANCH  11  47
BRANCH   4  74
ATOM     74  C33 CHR d   1      -0.435  11.579  -3.586  0.00  0.00     0.115 A 
ATOM     75  O10 CHR d   1      -0.407  11.888  -4.969  0.00  0.00    -0.286 OA
ATOM     76  C34 CHR d   1       0.240  13.041  -5.067  0.00  0.00     0.407 A 
ATOM     77  O11 CHR d   1       0.427  13.565  -6.147  0.00  0.00    -0.229 OA
ATOM     78  O12 CHR d   1       0.676  13.605  -3.948  0.00  0.00    -0.295 OA
ATOM     79  C35 CHR d   1       0.288  12.731  -2.901  0.00  0.00     0.059 A 
ATOM     80  H33 CHR d   1       1.172  12.363  -2.359  0.00  0.00     0.079 H 
ATOM     81  H34 CHR d   1      -0.385  13.245  -2.199  0.00  0.00     0.079 H 
ATOM     82  H32 CHR d   1      -1.472  11.504  -3.227  0.00  0.00     0.094 H 
ENDBRANCH   4  74
TORSDOF 15
