REMARK  12 active torsions:
REMARK  status: ('A' for Active; 'I' for Inactive)
REMARK    1  A    between atoms: C1A_3  and  C2A_2 
REMARK    2  A    between atoms: N1_4  and  C1A_3 
REMARK    3  A    between atoms: C1B_5  and  N1_4 
REMARK    4  A    between atoms: N1_4  and  C1E_29 
REMARK    5  A    between atoms: C2B_6  and  C1B_5 
REMARK    6  A    between atoms: C3B_7  and  C2B_6 
REMARK    7  A    between atoms: C4B_8  and  C3B_7 
REMARK    8  A    between atoms: C5B_9  and  C4B_8 
REMARK    9  A    between atoms: C6B_10  and  C5B_9 
REMARK   10  A    between atoms: O_11  and  C6B_10 
REMARK   11  A    between atoms: C6C_13  and  O_11 
REMARK   12  A    between atoms: C1C_18  and  C1D_22 
ROOT
ATOM      1  C6B W37 d   1      64.921  69.671  67.085  0.00  0.00     0.026 C 
ATOM      2  H17 W37 d   1      65.748  69.922  66.405  0.00  0.00     0.075 H 
ATOM      3  H18 W37 d   1      65.197  68.794  67.689  0.00  0.00     0.075 H 
ENDROOT
BRANCH   1   4
ATOM      4  C5B W37 d   1      63.667  69.346  66.261  0.00  0.00    -0.045 C 
ATOM      5  H15 W37 d   1      63.806  68.383  65.747  0.00  0.00     0.036 H 
ATOM      6  H16 W37 d   1      62.796  69.282  66.930  0.00  0.00     0.036 H 
BRANCH   4   7
ATOM      7  C4B W37 d   1      63.433  70.459  65.215  0.00  0.00    -0.063 C 
ATOM      8  H13 W37 d   1      62.354  70.567  65.031  0.00  0.00     0.033 H 
ATOM      9  H14 W37 d   1      63.837  71.409  65.595  0.00  0.00     0.033 H 
BRANCH   7  10
ATOM     10  C3B W37 d   1      64.137  70.094  63.910  0.00  0.00    -0.063 C 
ATOM     11  H11 W37 d   1      64.840  70.893  63.632  0.00  0.00     0.033 H 
ATOM     12  H12 W37 d   1      64.686  69.150  64.037  0.00  0.00     0.033 H 
BRANCH  10  13
ATOM     13  C2B W37 d   1      63.088  69.934  62.822  0.00  0.00    -0.042 C 
ATOM     14  H9  W37 d   1      63.055  68.889  62.480  0.00  0.00     0.035 H 
ATOM     15  H10 W37 d   1      62.099  70.226  63.205  0.00  0.00     0.035 H 
BRANCH  13  16
ATOM     16  C1B W37 d   1      63.498  70.853  61.667  0.00  0.00     0.083 C 
ATOM     17  H7  W37 d   1      63.972  71.749  62.093  0.00  0.00     0.075 H 
ATOM     18  H8  W37 d   1      64.225  70.315  61.041  0.00  0.00     0.075 H 
BRANCH  16  19
ATOM     19  N1  W37 d   1      62.377  71.288  60.804  0.00  0.00    -0.072 N 
ATOM     20  H6  W37 d   1      62.728  71.934  60.114  0.00  0.00     0.279 HD
BRANCH  19  21
ATOM     21  C1A W37 d   1      61.800  70.116  60.110  0.00  0.00     0.097 C 
ATOM     22  H4  W37 d   1      62.024  69.214  60.699  0.00  0.00     0.082 H 
ATOM     23  H5  W37 d   1      60.710  70.249  60.044  0.00  0.00     0.082 H 
BRANCH  21  24
ATOM     24  C2A W37 d   1      62.348  69.928  58.713  0.00  0.00    -0.087 C 
ATOM     25  C3A W37 d   1      63.441  69.180  58.477  0.00  0.00    -0.123 C 
ATOM     26  H1  W37 d   1      63.812  69.063  57.460  0.00  0.00     0.066 H 
ATOM     27  H2  W37 d   1      63.955  68.691  59.303  0.00  0.00     0.066 H 
ATOM     28  H3  W37 d   1      61.845  70.411  57.877  0.00  0.00     0.078 H 
ENDBRANCH  21  24
ENDBRANCH  19  21
BRANCH  19  29
ATOM     29  C1E W37 d   1      61.348  71.969  61.611  0.00  0.00     0.067 C 
ATOM     30  H28 W37 d   1      60.521  72.287  60.959  0.00  0.00     0.068 H 
ATOM     31  H29 W37 d   1      61.789  72.850  62.100  0.00  0.00     0.068 H 
ATOM     32  H30 W37 d   1      60.966  71.278  62.377  0.00  0.00     0.068 H 
ENDBRANCH  19  29
ENDBRANCH  16  19
ENDBRANCH  13  16
ENDBRANCH  10  13
ENDBRANCH   7  10
ENDBRANCH   4   7
ENDBRANCH   1   4
BRANCH   1  33
ATOM     33  O   W37 d   1      64.667  70.782  67.952  0.00  0.00    -0.351 OA
BRANCH  33  34
ATOM     34  C6C W37 d   1      65.658  71.055  68.895  0.00  0.00     0.069 A 
ATOM     35  C7C W37 d   1      66.081  72.397  69.069  0.00  0.00    -0.050 A 
ATOM     36  C8C W37 d   1      67.084  72.727  70.014  0.00  0.00    -0.067 A 
ATOM     37  H21 W37 d   1      65.631  73.181  68.471  0.00  0.00     0.087 H 
ATOM     38  C8P W37 d   1      67.681  71.713  70.806  0.00  0.00     0.004 A 
ATOM     39  H22 W37 d   1      67.396  73.758  70.132  0.00  0.00     0.085 H 
ATOM     40  C1C W37 d   1      68.699  71.968  71.775  0.00  0.00     0.077 A 
ATOM     41  C4P W37 d   1      67.249  70.336  70.633  0.00  0.00    -0.020 A 
ATOM     42  N2C W37 d   1      69.238  70.919  72.515  0.00  0.00    -0.259 NA
ATOM     43  C3C W37 d   1      68.836  69.614  72.364  0.00  0.00     0.004 A 
ATOM     44  C4C W37 d   1      67.830  69.293  71.418  0.00  0.00    -0.055 A 
ATOM     45  H19 W37 d   1      69.286  68.833  72.966  0.00  0.00     0.114 H 
ATOM     46  H20 W37 d   1      67.505  68.267  71.291  0.00  0.00     0.087 H 
ATOM     47  C5C W37 d   1      66.246  70.026  69.684  0.00  0.00    -0.040 A 
ATOM     48  H23 W37 d   1      65.924  68.999  69.557  0.00  0.00     0.089 H 
BRANCH  40  49
ATOM     49  C1D W37 d   1      69.267  73.290  72.094  0.00  0.00    -0.006 A 
ATOM     50  C2D W37 d   1      70.619  73.537  71.780  0.00  0.00    -0.070 A 
ATOM     51  C3D W37 d   1      71.199  74.778  72.099  0.00  0.00    -0.065 A 
ATOM     52  H24 W37 d   1      71.211  72.771  71.293  0.00  0.00     0.085 H 
ATOM     53  C4D W37 d   1      70.439  75.786  72.734  0.00  0.00     0.011 A 
ATOM     54  H25 W37 d   1      72.239  74.963  71.855  0.00  0.00     0.085 H 
ATOM     55  C5D W37 d   1      69.074  75.554  73.048  0.00  0.00    -0.065 A 
ATOM     56 BR29 W37 d   1      71.241  77.394  73.170  0.00  0.00    -0.051 Br
ATOM     57  C6D W37 d   1      68.484  74.302  72.728  0.00  0.00    -0.070 A 
ATOM     58  H26 W37 d   1      68.486  76.327  73.529  0.00  0.00     0.085 H 
ATOM     59  H27 W37 d   1      67.443  74.115  72.964  0.00  0.00     0.085 H 
ENDBRANCH  40  49
ENDBRANCH  33  34
ENDBRANCH   1  33
TORSDOF 12
