REMARK  1 active torsions:
REMARK  status: ('A' for Active; 'I' for Inactive)
REMARK    1  A    between atoms: CA_2  and  C_6 
ROOT
ATOM      1  N   0HZ d   1      17.479  44.825 102.063  0.00  0.00    -0.065 N 
ATOM      2  CA  0HZ d   1      18.374  44.670 103.256  0.00  0.00     0.151 C 
ATOM      3  CB  0HZ d   1      19.095  46.005 103.372  0.00  0.00    -0.031 C 
ATOM      4  CG  0HZ d   1      18.180  47.026 102.673  0.00  0.00    -0.040 C 
ATOM      5  CD  0HZ d   1      17.157  46.251 101.823  0.00  0.00     0.083 C 
ATOM      6  H1  0HZ d   1      16.624  44.316 102.224  0.00  0.00     0.278 HD
ATOM      7  H2  0HZ d   1      17.944  44.451 101.251  0.00  0.00     0.278 HD
ATOM      8  H3  0HZ d   1      17.783  44.472 104.163  0.00  0.00     0.095 H 
ATOM      9  H4  0HZ d   1      20.073  45.959 102.871  0.00  0.00     0.036 H 
ATOM     10  H5  0HZ d   1      19.236  46.275 104.429  0.00  0.00     0.036 H 
ATOM     11  H6  0HZ d   1      18.780  47.683 102.026  0.00  0.00     0.035 H 
ATOM     12  H7  0HZ d   1      17.655  47.633 103.426  0.00  0.00     0.035 H 
ATOM     13  H8  0HZ d   1      16.131  46.478 102.147  0.00  0.00     0.075 H 
ATOM     14  H9  0HZ d   1      17.268  46.501 100.757  0.00  0.00     0.075 H 
ENDROOT
BRANCH   2  15
ATOM     15  C   0HZ d   1      19.358  43.523 103.031  0.00  0.00     0.117 C 
ATOM     16  O   0HZ d   1      20.468  43.541 103.549  0.00  0.00    -0.305 OA
ATOM     17  H10 0HZ d   1      19.070  42.681 102.404  0.00  0.00     0.146 H 
ENDBRANCH   2  15
TORSDOF 1
