REMARK  9 active torsions:
REMARK  status: ('A' for Active; 'I' for Inactive)
REMARK    1  A    between atoms: C2A_2  and  C1A_3 
REMARK    2  A    between atoms: C1A_3  and  N1_4 
REMARK    3  A    between atoms: N1_4  and  C1B_5 
REMARK    4  A    between atoms: N1_4  and  C1E_26 
REMARK    5  A    between atoms: C1B_5  and  C2B_6 
REMARK    6  A    between atoms: C3B_7  and  C4B_8 
REMARK    7  A    between atoms: C4B_8  and  O5B_9 
REMARK    8  A    between atoms: O5B_9  and  C6C_10 
REMARK    9  A    between atoms: C3C_15  and  C1D_19 
ROOT
ATOM      1  O5B R17 d   1      63.719  71.254  63.965  0.00  0.00    -0.347 OA
ENDROOT
BRANCH   1   2
ATOM      2  C4B R17 d   1      62.343  70.855  63.765  0.00  0.00     0.041 C 
ATOM      3  H11 R17 d   1      62.129  69.958  64.364  0.00  0.00     0.081 H 
ATOM      4  H12 R17 d   1      61.674  71.671  64.075  0.00  0.00     0.081 H 
BRANCH   2   5
ATOM      5  C3B R17 d   1      62.126  70.552  62.309  0.00  0.00    -0.082 C 
ATOM      6  C2B R17 d   1      61.905  71.506  61.403  0.00  0.00    -0.080 C 
ATOM      7  H9  R17 d   1      61.887  72.540  61.745  0.00  0.00     0.079 H 
ATOM      8  H10 R17 d   1      62.150  69.514  61.981  0.00  0.00     0.079 H 
BRANCH   6   9
ATOM      9  C1B R17 d   1      61.677  71.242  59.922  0.00  0.00     0.098 C 
ATOM     10  H7  R17 d   1      61.259  70.230  59.817  0.00  0.00     0.082 H 
ATOM     11  H8  R17 d   1      60.949  71.979  59.552  0.00  0.00     0.082 H 
BRANCH   9  12
ATOM     12  N1  R17 d   1      62.905  71.330  59.064  0.00  0.00    -0.069 N 
ATOM     13  H6  R17 d   1      62.599  71.423  58.108  0.00  0.00     0.280 HD
BRANCH  12  14
ATOM     14  C1A R17 d   1      63.730  70.098  59.159  0.00  0.00     0.098 C 
ATOM     15  H4  R17 d   1      64.734  70.311  58.764  0.00  0.00     0.082 H 
ATOM     16  H5  R17 d   1      63.806  69.802  60.216  0.00  0.00     0.082 H 
BRANCH  14  17
ATOM     17  C2A R17 d   1      63.129  68.956  58.374  0.00  0.00    -0.087 C 
ATOM     18  C3A R17 d   1      63.134  67.695  58.805  0.00  0.00    -0.123 C 
ATOM     19  H1  R17 d   1      62.686  66.910  58.197  0.00  0.00     0.066 H 
ATOM     20  H2  R17 d   1      63.586  67.449  59.765  0.00  0.00     0.066 H 
ATOM     21  H3  R17 d   1      62.670  69.173  57.411  0.00  0.00     0.078 H 
ENDBRANCH  14  17
ENDBRANCH  12  14
BRANCH  12  22
ATOM     22  C1E R17 d   1      63.735  72.536  59.398  0.00  0.00     0.067 C 
ATOM     23  H21 R17 d   1      64.622  72.562  58.748  0.00  0.00     0.068 H 
ATOM     24  H22 R17 d   1      64.052  72.483  60.450  0.00  0.00     0.068 H 
ATOM     25  H23 R17 d   1      63.139  73.447  59.241  0.00  0.00     0.068 H 
ENDBRANCH  12  22
ENDBRANCH   9  12
ENDBRANCH   6   9
ENDBRANCH   2   5
ENDBRANCH   1   2
BRANCH   1  26
ATOM     26  C6C R17 d   1      64.243  71.062  65.268  0.00  0.00     0.071 A 
ATOM     27  C7C R17 d   1      63.717  70.056  66.139  0.00  0.00    -0.017 A 
ATOM     28  C7P R17 d   1      64.302  69.932  67.412  0.00  0.00     0.088 A 
ATOM     29  H13 R17 d   1      62.900  69.415  65.830  0.00  0.00     0.092 H 
ATOM     30  O1C R17 d   1      63.975  69.071  68.372  0.00  0.00    -0.321 OA
ATOM     31  C3P R17 d   1      65.371  70.739  67.869  0.00  0.00     0.011 A 
ATOM     32  C2C R17 d   1      64.801  69.281  69.448  0.00  0.00     0.031 A 
ATOM     33  C3C R17 d   1      65.672  70.276  69.209  0.00  0.00     0.009 A 
ATOM     34  H14 R17 d   1      64.756  68.714  70.377  0.00  0.00     0.124 H 
ATOM     35  C4C R17 d   1      65.891  71.731  67.019  0.00  0.00    -0.067 A 
ATOM     36  C5C R17 d   1      65.316  71.885  65.713  0.00  0.00    -0.050 A 
ATOM     37  H15 R17 d   1      66.708  72.365  67.343  0.00  0.00     0.085 H 
ATOM     38  H16 R17 d   1      65.708  72.647  65.049  0.00  0.00     0.087 H 
BRANCH  33  39
ATOM     39  C1D R17 d   1      66.714  70.743  70.167  0.00  0.00    -0.023 A 
ATOM     40  C2D R17 d   1      67.447  69.769  70.892  0.00  0.00    -0.071 A 
ATOM     41  C3D R17 d   1      68.443  70.165  71.802  0.00  0.00    -0.065 A 
ATOM     42  H17 R17 d   1      67.239  68.716  70.744  0.00  0.00     0.084 H 
ATOM     43  C4D R17 d   1      68.711  71.528  71.991  0.00  0.00     0.011 A 
ATOM     44  H18 R17 d   1      69.002  69.419  72.356  0.00  0.00     0.085 H 
ATOM     45  C5D R17 d   1      67.984  72.520  71.270  0.00  0.00    -0.065 A 
ATOM     46 BR25 R17 d   1      70.010  72.026  73.192  0.00  0.00    -0.051 Br
ATOM     47  C6D R17 d   1      66.983  72.123  70.357  0.00  0.00    -0.071 A 
ATOM     48  H19 R17 d   1      68.198  73.572  71.422  0.00  0.00     0.085 H 
ATOM     49  H20 R17 d   1      66.423  72.868  69.804  0.00  0.00     0.084 H 
ENDBRANCH  33  39
ENDBRANCH   1  26
TORSDOF 9
