REMARK  12 active torsions:
REMARK  status: ('A' for Active; 'I' for Inactive)
REMARK    1  A    between atoms: C2A_1  and  C1A_2 
REMARK    2  A    between atoms: C1A_2  and  N1_3 
REMARK    3  A    between atoms: N1_3  and  C1E_4 
REMARK    4  A    between atoms: N1_3  and  C1B_5 
REMARK    5  A    between atoms: C1B_5  and  C2B_6 
REMARK    6  A    between atoms: C2B_6  and  C3B_7 
REMARK    7  A    between atoms: C3B_7  and  C4B_8 
REMARK    8  A    between atoms: C4B_8  and  C5B_9 
REMARK    9  A    between atoms: C5B_9  and  C6B_10 
REMARK   10  A    between atoms: C6B_10  and  O7B_11 
REMARK   11  A    between atoms: O7B_11  and  C6C_12 
REMARK   12  A    between atoms: C3C_16  and  C1D_17 
ROOT
ATOM      1  C5B R19 d   1      63.414  69.383  65.629  0.00  0.00    -0.045 C 
ATOM      2  H16 R19 d   1      63.095  68.388  65.287  0.00  0.00     0.036 H 
ATOM      3  H17 R19 d   1      62.587  69.869  66.167  0.00  0.00     0.036 H 
ENDROOT
BRANCH   1   4
ATOM      4  C4B R19 d   1      63.806  70.238  64.417  0.00  0.00    -0.063 C 
ATOM      5  H14 R19 d   1      63.493  71.278  64.589  0.00  0.00     0.033 H 
ATOM      6  H15 R19 d   1      64.897  70.201  64.283  0.00  0.00     0.033 H 
BRANCH   4   7
ATOM      7  C3B R19 d   1      63.120  69.703  63.151  0.00  0.00    -0.063 C 
ATOM      8  H12 R19 d   1      63.886  69.493  62.390  0.00  0.00     0.033 H 
ATOM      9  H13 R19 d   1      62.585  68.774  63.399  0.00  0.00     0.033 H 
BRANCH   7  10
ATOM     10  C2B R19 d   1      62.109  70.732  62.580  0.00  0.00    -0.042 C 
ATOM     11  H10 R19 d   1      61.163  70.218  62.355  0.00  0.00     0.035 H 
ATOM     12  H11 R19 d   1      61.931  71.514  63.333  0.00  0.00     0.035 H 
BRANCH  10  13
ATOM     13  C1B R19 d   1      62.651  71.400  61.267  0.00  0.00     0.083 C 
ATOM     14  H8  R19 d   1      62.326  72.451  61.270  0.00  0.00     0.075 H 
ATOM     15  H9  R19 d   1      63.750  71.356  61.300  0.00  0.00     0.075 H 
BRANCH  13  16
ATOM     16  N1  R19 d   1      62.209  70.788  59.959  0.00  0.00    -0.072 N 
ATOM     17  H4  R19 d   1      62.584  71.352  59.212  0.00  0.00     0.279 HD
BRANCH  16  18
ATOM     18  C1A R19 d   1      62.716  69.401  59.778  0.00  0.00     0.097 C 
ATOM     19  H2  R19 d   1      63.665  69.299  60.325  0.00  0.00     0.082 H 
ATOM     20  H3  R19 d   1      61.977  68.699  60.192  0.00  0.00     0.082 H 
BRANCH  18  21
ATOM     21  C2A R19 d   1      62.954  69.052  58.327  0.00  0.00    -0.087 C 
ATOM     22  C3A R19 d   1      63.803  68.095  57.937  0.00  0.00    -0.123 C 
ATOM     23  H28 R19 d   1      63.937  67.885  56.877  0.00  0.00     0.066 H 
ATOM     24  H29 R19 d   1      64.361  67.526  58.679  0.00  0.00     0.066 H 
ATOM     25  H1  R19 d   1      62.409  69.605  57.564  0.00  0.00     0.078 H 
ENDBRANCH  18  21
ENDBRANCH  16  18
BRANCH  16  26
ATOM     26  C1E R19 d   1      60.721  70.816  59.863  0.00  0.00     0.067 C 
ATOM     27  H5  R19 d   1      60.364  71.848  59.999  0.00  0.00     0.068 H 
ATOM     28  H6  R19 d   1      60.291  70.173  60.645  0.00  0.00     0.068 H 
ATOM     29  H7  R19 d   1      60.410  70.448  58.874  0.00  0.00     0.068 H 
ENDBRANCH  16  26
ENDBRANCH  13  16
ENDBRANCH  10  13
ENDBRANCH   7  10
ENDBRANCH   4   7
ENDBRANCH   1   4
BRANCH   1  30
ATOM     30  C6B R19 d   1      64.617  69.238  66.567  0.00  0.00     0.026 C 
ATOM     31  H18 R19 d   1      65.411  69.937  66.266  0.00  0.00     0.075 H 
ATOM     32  H19 R19 d   1      65.000  68.208  66.525  0.00  0.00     0.075 H 
BRANCH  30  33
ATOM     33  O7B R19 d   1      64.185  69.540  67.897  0.00  0.00    -0.351 OA
BRANCH  33  34
ATOM     34  C6C R19 d   1      65.165  70.059  68.755  0.00  0.00     0.071 A 
ATOM     35  C5C R19 d   1      65.441  71.455  68.728  0.00  0.00    -0.050 A 
ATOM     36  C4C R19 d   1      66.423  72.045  69.581  0.00  0.00    -0.067 A 
ATOM     37  H20 R19 d   1      64.891  72.088  68.041  0.00  0.00     0.087 H 
ATOM     38  C3P R19 d   1      67.119  71.200  70.461  0.00  0.00     0.011 A 
ATOM     39  H21 R19 d   1      66.624  73.110  69.550  0.00  0.00     0.085 H 
ATOM     40  C3C R19 d   1      68.158  71.462  71.441  0.00  0.00     0.009 A 
ATOM     41  C7P R19 d   1      66.840  69.774  70.491  0.00  0.00     0.088 A 
ATOM     42  C2C R19 d   1      68.443  70.233  71.991  0.00  0.00     0.031 A 
ATOM     43  O1C R19 d   1      67.661  69.220  71.432  0.00  0.00    -0.321 OA
ATOM     44  H26 R19 d   1      69.188  70.070  72.768  0.00  0.00     0.124 H 
ATOM     45  C7C R19 d   1      65.863  69.199  69.642  0.00  0.00    -0.017 A 
ATOM     46  H27 R19 d   1      65.655  68.135  69.669  0.00  0.00     0.092 H 
BRANCH  40  47
ATOM     47  C1D R19 d   1      68.818  72.785  71.821  0.00  0.00    -0.023 A 
ATOM     48  C6D R19 d   1      68.037  73.917  72.212  0.00  0.00    -0.071 A 
ATOM     49  C5D R19 d   1      68.673  75.143  72.584  0.00  0.00    -0.065 A 
ATOM     50  H22 R19 d   1      66.955  73.846  72.227  0.00  0.00     0.084 H 
ATOM     51  C4D R19 d   1      70.108  75.251  72.569  0.00  0.00     0.011 A 
ATOM     52  H23 R19 d   1      68.071  75.995  72.879  0.00  0.00     0.085 H 
ATOM     53 BR27 R19 d   1      70.987  76.857  73.076  0.00  0.00    -0.051 Br
ATOM     54  C3D R19 d   1      70.875  74.113  72.171  0.00  0.00    -0.065 A 
ATOM     55  C2D R19 d   1      70.236  72.897  71.802  0.00  0.00    -0.071 A 
ATOM     56  H24 R19 d   1      71.957  74.177  72.150  0.00  0.00     0.085 H 
ATOM     57  H25 R19 d   1      70.837  72.046  71.503  0.00  0.00     0.084 H 
ENDBRANCH  40  47
ENDBRANCH  33  34
ENDBRANCH  30  33
ENDBRANCH   1  30
TORSDOF 12
