REMARK  7 active torsions:
REMARK  status: ('A' for Active; 'I' for Inactive)
REMARK    1  A    between atoms: N1E_4  and  C1D_7 
REMARK    2  A    between atoms: C1D_7  and  C4C_8 
REMARK    3  A    between atoms: C1C_11  and  C4B_14 
REMARK    4  A    between atoms: C1B_17  and  N4_20 
REMARK       I    between atoms: N4_20  and  C1_21 
REMARK    5  A    between atoms: N4_20  and  C1A_29 
REMARK    6  A    between atoms: C1_21  and  O3_22 
REMARK    7  A    between atoms: O3_22  and  C1F_23 
ROOT
ATOM      1  C4B R23 d   1      65.725  70.958  67.877  0.00  0.00    -0.028 C 
ATOM      2  C3B R23 d   1      65.039  70.773  69.276  0.00  0.00    -0.056 C 
ATOM      3  C2B R23 d   1      66.041  71.158  70.397  0.00  0.00    -0.045 C 
ATOM      4  C1B R23 d   1      67.361  70.323  70.306  0.00  0.00     0.016 C 
ATOM      5  C6B R23 d   1      68.019  70.479  68.907  0.00  0.00    -0.045 C 
ATOM      6  C5B R23 d   1      67.029  70.088  67.763  0.00  0.00    -0.056 C 
ATOM      7  H18 R23 d   1      66.031  72.012  67.801  0.00  0.00     0.047 H 
ATOM      8  H19 R23 d   1      64.736  69.723  69.400  0.00  0.00     0.034 H 
ATOM      9  H20 R23 d   1      64.152  71.421  69.338  0.00  0.00     0.034 H 
ATOM     10  H21 R23 d   1      65.570  70.975  71.374  0.00  0.00     0.036 H 
ATOM     11  H22 R23 d   1      66.288  72.226  70.303  0.00  0.00     0.036 H 
ATOM     12  H23 R23 d   1      67.074  69.266  70.409  0.00  0.00     0.072 H 
ATOM     13  H24 R23 d   1      68.903  69.827  68.853  0.00  0.00     0.036 H 
ATOM     14  H25 R23 d   1      68.327  71.526  68.771  0.00  0.00     0.036 H 
ATOM     15  H26 R23 d   1      67.506  70.268  66.788  0.00  0.00     0.034 H 
ATOM     16  H27 R23 d   1      66.768  69.023  67.852  0.00  0.00     0.034 H 
ENDROOT
BRANCH   1  17
ATOM     17  C1C R23 d   1      64.752  70.690  66.728  0.00  0.00    -0.054 A 
ATOM     18  C2C R23 d   1      63.974  69.496  66.596  0.00  0.00    -0.076 A 
ATOM     19  C3C R23 d   1      63.080  69.350  65.487  0.00  0.00    -0.075 A 
ATOM     20  H15 R23 d   1      64.061  68.705  67.332  0.00  0.00     0.084 H 
ATOM     21  C4C R23 d   1      62.958  70.387  64.509  0.00  0.00    -0.033 A 
ATOM     22  H14 R23 d   1      62.490  68.446  65.388  0.00  0.00     0.084 H 
ATOM     23  C5C R23 d   1      63.734  71.560  64.650  0.00  0.00    -0.075 A 
ATOM     24  C6C R23 d   1      64.616  71.707  65.742  0.00  0.00    -0.076 A 
ATOM     25  H17 R23 d   1      63.651  72.352  63.914  0.00  0.00     0.084 H 
ATOM     26  H16 R23 d   1      65.203  72.614  65.832  0.00  0.00     0.084 H 
BRANCH  21  27
ATOM     27  C1D R23 d   1      62.001  70.232  63.332  0.00  0.00     0.107 C 
ATOM     28  H12 R23 d   1      61.780  69.162  63.201  0.00  0.00     0.083 H 
ATOM     29  H13 R23 d   1      61.072  70.773  63.564  0.00  0.00     0.083 H 
BRANCH  27  30
ATOM     30  N1E R23 d   1      62.546  70.759  62.058  0.00  0.00    -0.067 N 
ATOM     31  C6E R23 d   1      61.594  71.691  61.329  0.00  0.00     0.084 C 
ATOM     32  C5E R23 d   1      60.782  70.917  60.237  0.00  0.00    -0.042 C 
ATOM     33  H5  R23 d   1      60.894  72.130  62.055  0.00  0.00     0.076 H 
ATOM     34  H6  R23 d   1      62.173  72.492  60.847  0.00  0.00     0.076 H 
ATOM     35  C4E R23 d   1      61.752  70.340  59.134  0.00  0.00    -0.062 C 
ATOM     36  H3  R23 d   1      60.238  70.087  60.711  0.00  0.00     0.035 H 
ATOM     37  H4  R23 d   1      60.064  71.604  59.765  0.00  0.00     0.035 H 
ATOM     38  C3E R23 d   1      63.183  70.023  59.708  0.00  0.00    -0.042 C 
ATOM     39  H1  R23 d   1      61.850  71.080  58.326  0.00  0.00     0.033 H 
ATOM     40  H2  R23 d   1      61.319  69.413  58.731  0.00  0.00     0.033 H 
ATOM     41  C2E R23 d   1      63.071  69.615  61.213  0.00  0.00     0.084 C 
ATOM     42  H10 R23 d   1      63.819  70.916  59.618  0.00  0.00     0.035 H 
ATOM     43  H11 R23 d   1      63.630  69.196  59.138  0.00  0.00     0.035 H 
ATOM     44  H8  R23 d   1      62.385  68.760  61.302  0.00  0.00     0.076 H 
ATOM     45  H9  R23 d   1      64.067  69.326  61.581  0.00  0.00     0.076 H 
ATOM     46  H7  R23 d   1      63.346  71.323  62.300  0.00  0.00     0.280 HD
ENDBRANCH  27  30
ENDBRANCH  21  27
ENDBRANCH   1  17
BRANCH   4  47
ATOM     47  N4  R23 d   1      68.317  70.611  71.413  0.00  0.00    -0.327 N 
ATOM     48  C1  R23 d   1      68.757  71.931  71.624  0.00  0.00     0.368 C 
ATOM     49  O2  R23 d   1      68.389  72.875  70.923  0.00  0.00    -0.238 OA
BRANCH  48  50
ATOM     50  O3  R23 d   1      69.614  72.289  72.602  0.00  0.00    -0.261 OA
BRANCH  50  51
ATOM     51  C1F R23 d   1      70.055  73.624  72.793  0.00  0.00     0.081 A 
ATOM     52  C6F R23 d   1      71.260  74.071  72.176  0.00  0.00    -0.049 A 
ATOM     53  C5F R23 d   1      71.717  75.406  72.377  0.00  0.00    -0.059 A 
ATOM     54  H28 R23 d   1      71.831  73.393  71.552  0.00  0.00     0.087 H 
ATOM     55  C4F R23 d   1      70.975  76.301  73.195  0.00  0.00     0.034 A 
ATOM     56  H29 R23 d   1      72.634  75.740  71.904  0.00  0.00     0.086 H 
ATOM     57  C3F R23 d   1      69.763  75.864  73.810  0.00  0.00    -0.059 A 
ATOM     58 CL31 R23 d   1      71.562  77.930  73.444  0.00  0.00    -0.084 Cl
ATOM     59  C2F R23 d   1      69.304  74.526  73.610  0.00  0.00    -0.049 A 
ATOM     60  H30 R23 d   1      69.192  76.547  74.428  0.00  0.00     0.086 H 
ATOM     61  H31 R23 d   1      68.385  74.194  74.079  0.00  0.00     0.087 H 
ENDBRANCH  50  51
ENDBRANCH  48  50
BRANCH  47  62
ATOM     62  C1A R23 d   1      68.792  69.524  72.278  0.00  0.00    -0.014 C 
ATOM     63  H32 R23 d   1      69.485  69.930  73.030  0.00  0.00     0.056 H 
ATOM     64  H33 R23 d   1      69.313  68.771  71.668  0.00  0.00     0.056 H 
ATOM     65  H34 R23 d   1      67.934  69.057  72.784  0.00  0.00     0.056 H 
ENDBRANCH  47  62
ENDBRANCH   4  47
TORSDOF 7
