REMARK  25 active torsions:
REMARK  status: ('A' for Active; 'I' for Inactive)
REMARK    1  A    between atoms: CA_2  and  N_1 
REMARK    2  A    between atoms: CA_2  and  CB_5 
REMARK    3  A    between atoms: C_3  and  CA_2 
REMARK       I    between atoms: N_10  and  C_3 
REMARK    4  A    between atoms: CB_5  and  CG_6 
REMARK    5  A    between atoms: CG_6  and  CD_7 
REMARK       I    between atoms: CD_7  and  NE2_9 
REMARK    6  A    between atoms: CA_11  and  N_10 
REMARK    7  A    between atoms: CA_11  and  CB_14 
REMARK    8  A    between atoms: C_12  and  CA_11 
REMARK       I    between atoms: N_16  and  C_12 
REMARK    9  A    between atoms: CB_14  and  OG_15 
REMARK   10  A    between atoms: CA_17  and  N_16 
REMARK   11  A    between atoms: CA_17  and  CB_20 
REMARK   12  A    between atoms: C_18  and  CA_17 
REMARK       I    between atoms: N_28  and  C_18 
REMARK   13  A    between atoms: CB_20  and  CG_21 
REMARK   14  A    between atoms: CZ_26  and  OH_27 
REMARK   15  A    between atoms: CA_29  and  N_28 
REMARK   16  A    between atoms: CA_29  and  CB_30 
REMARK   17  A    between atoms: C_37  and  CA_29 
REMARK   18  A    between atoms: CB_30  and  CG2_31 
REMARK   19  A    between atoms: CB_30  and  OG1_32 
REMARK   20  A    between atoms: OG1_32  and  P_33 
REMARK       I    between atoms: C_37  and  N_39 
REMARK   21  A    between atoms: N_39  and  CA_40 
REMARK   22  A    between atoms: CA_40  and  CB_43 
REMARK   23  A    between atoms: CA_40  and  C_41 
REMARK   24  A    between atoms: CB_43  and  CG2_45 
REMARK   25  A    between atoms: CB_43  and  CG1_44 
ROOT
ATOM      1  CA  TYR d   1      39.171  54.303  25.844  0.00  0.00     0.093 C 
ATOM      2  H17 TYR d   1      40.138  53.863  26.128  0.00  0.00     0.088 H 
ENDROOT
BRANCH   1   3
ATOM      3  N   TYR d   1      39.179  54.591  24.419  0.00  0.00    -0.346 N 
ATOM      4  C   SER d   1      39.701  53.702  23.585  0.00  0.00     0.243 C 
ATOM      5  O   SER d   1      40.205  52.642  23.975  0.00  0.00    -0.271 OA
ATOM      6  H16 TYR d   1      38.796  55.447  24.073  0.00  0.00     0.163 HD
BRANCH   4   7
ATOM      7  CA  SER d   1      39.677  54.051  22.108  0.00  0.00     0.109 C 
ATOM      8  H12 SER d   1      40.017  55.085  21.948  0.00  0.00     0.090 H 
BRANCH   7   9
ATOM      9  N   SER d   1      40.565  53.117  21.477  0.00  0.00    -0.344 N 
ATOM     10  C   GLN d   1      41.634  53.441  20.769  0.00  0.00     0.249 C 
ATOM     11  O   GLN d   1      41.990  54.599  20.572  0.00  0.00    -0.271 OA
ATOM     12  H11 SER d   1      40.359  52.144  21.581  0.00  0.00     0.163 HD
BRANCH  10  13
ATOM     13  CA  GLN d   1      42.385  52.238  20.178  0.00  0.00     0.176 C 
ATOM     14  H4  GLN d   1      41.739  51.355  20.295  0.00  0.00     0.099 H 
BRANCH  13  15
ATOM     15  N   GLN d   1      42.667  52.399  18.713  0.00  0.00    -0.066 N 
ATOM     16  H1  GLN d   1      43.159  51.587  18.374  0.00  0.00     0.275 HD
ATOM     17  H2  GLN d   1      43.234  53.220  18.568  0.00  0.00     0.275 HD
ATOM     18  H3  GLN d   1      41.798  52.498  18.212  0.00  0.00     0.275 HD
ENDBRANCH  13  15
BRANCH  13  19
ATOM     19  CB  GLN d   1      43.683  51.978  20.954  0.00  0.00    -0.022 C 
ATOM     20  H5  GLN d   1      43.568  52.384  21.970  0.00  0.00     0.037 H 
ATOM     21  H6  GLN d   1      44.505  52.499  20.442  0.00  0.00     0.037 H 
BRANCH  19  22
ATOM     22  CG  GLN d   1      44.049  50.478  21.065  0.00  0.00     0.011 C 
ATOM     23  H7  GLN d   1      43.320  49.987  21.726  0.00  0.00     0.047 H 
ATOM     24  H8  GLN d   1      45.055  50.394  21.502  0.00  0.00     0.047 H 
BRANCH  22  25
ATOM     25  CD  GLN d   1      44.042  49.747  19.686  0.00  0.00     0.215 C 
ATOM     26  NE2 GLN d   1      45.235  49.321  19.218  0.00  0.00    -0.370 N 
ATOM     27  H9  GLN d   1      45.287  48.847  18.339  0.00  0.00     0.159 HD
ATOM     28  H10 GLN d   1      46.066  49.480  19.750  0.00  0.00     0.159 HD
ATOM     29  OE1 GLN d   1      42.977  49.586  19.053  0.00  0.00    -0.274 OA
ENDBRANCH  22  25
ENDBRANCH  19  22
ENDBRANCH  13  19
ENDBRANCH  10  13
ENDBRANCH   7   9
BRANCH   7  30
ATOM     30  CB  SER d   1      38.266  53.872  21.537  0.00  0.00     0.044 C 
ATOM     31  H13 SER d   1      37.618  54.672  21.925  0.00  0.00     0.077 H 
ATOM     32  H14 SER d   1      37.872  52.895  21.853  0.00  0.00     0.077 H 
BRANCH  30  33
ATOM     33  OG  SER d   1      38.276  53.931  20.107  0.00  0.00    -0.398 OA
ATOM     34  H15 SER d   1      38.832  53.240  19.767  0.00  0.00     0.209 HD
ENDBRANCH  30  33
ENDBRANCH   7  30
ENDBRANCH   4   7
ENDBRANCH   1   3
BRANCH   1  35
ATOM     35  CB  TYR d   1      38.932  55.580  26.656  0.00  0.00    -0.014 C 
ATOM     36  H18 TYR d   1      38.951  55.329  27.727  0.00  0.00     0.043 H 
ATOM     37  H19 TYR d   1      37.945  55.989  26.393  0.00  0.00     0.043 H 
BRANCH  35  38
ATOM     38  CG  TYR d   1      39.969  56.614  26.386  0.00  0.00    -0.056 A 
ATOM     39  CD1 TYR d   1      41.204  56.550  27.016  0.00  0.00    -0.074 A 
ATOM     40  CE1 TYR d   1      42.220  57.424  26.691  0.00  0.00    -0.051 A 
ATOM     41  H20 TYR d   1      41.373  55.798  27.779  0.00  0.00     0.084 H 
ATOM     42  CZ  TYR d   1      42.013  58.374  25.710  0.00  0.00     0.065 A 
ATOM     43  H22 TYR d   1      43.174  57.366  27.202  0.00  0.00     0.087 H 
ATOM     44  CE2 TYR d   1      40.790  58.468  25.067  0.00  0.00    -0.051 A 
ATOM     45  CD2 TYR d   1      39.764  57.589  25.417  0.00  0.00    -0.074 A 
ATOM     46  H23 TYR d   1      40.631  59.217  24.299  0.00  0.00     0.087 H 
ATOM     47  H21 TYR d   1      38.799  57.667  24.929  0.00  0.00     0.084 H 
BRANCH  42  48
ATOM     48  OH  TYR d   1      43.062  59.175  25.329  0.00  0.00    -0.361 OA
ATOM     49  H24 TYR d   1      42.818  60.087  25.437  0.00  0.00     0.217 HD
ENDBRANCH  42  48
ENDBRANCH  35  38
ENDBRANCH   1  35
BRANCH   1  50
ATOM     50  C   TYR d   1      38.060  53.339  26.167  0.00  0.00     0.241 C 
ATOM     51  O   TYR d   1      36.949  53.426  25.595  0.00  0.00    -0.271 OA
ATOM     52  N   TPO d   1      38.375  52.417  27.070  0.00  0.00    -0.344 N 
ATOM     53  H25 TPO d   1      39.318  52.356  27.397  0.00  0.00     0.163 HD
BRANCH  52  54
ATOM     54  CA  TPO d   1      37.371  51.485  27.599  0.00  0.00     0.114 C 
ATOM     55  H26 TPO d   1      36.357  51.877  27.430  0.00  0.00     0.091 H 
BRANCH  54  56
ATOM     56  CB  TPO d   1      37.485  50.062  26.941  0.00  0.00     0.076 C 
ATOM     57  H27 TPO d   1      36.736  49.392  27.387  0.00  0.00     0.087 H 
BRANCH  56  58
ATOM     58  CG2 TPO d   1      37.213  50.146  25.434  0.00  0.00    -0.049 C 
ATOM     59  H28 TPO d   1      37.297  49.143  24.990  0.00  0.00     0.031 H 
ATOM     60  H29 TPO d   1      37.948  50.817  24.965  0.00  0.00     0.031 H 
ATOM     61  H30 TPO d   1      36.199  50.538  25.266  0.00  0.00     0.031 H 
ENDBRANCH  56  58
BRANCH  56  62
ATOM     62  OG1 TPO d   1      38.801  49.563  27.253  0.00  0.00    -0.275 OA
BRANCH  62  63
ATOM     63  P   TPO d   1      39.292  48.094  26.936  0.00  0.00     0.422 P 
ATOM     64  O1P TPO d   1      39.367  47.983  25.345  0.00  0.00    -0.617 OA
ATOM     65  O2P TPO d   1      38.311  47.064  27.523  0.00  0.00    -0.617 OA
ATOM     66  O3P TPO d   1      40.741  47.992  27.540  0.00  0.00    -0.617 OA
ENDBRANCH  62  63
ENDBRANCH  56  62
ENDBRANCH  54  56
BRANCH  54  67
ATOM     67  C   TPO d   1      37.679  51.422  29.086  0.00  0.00     0.243 C 
ATOM     68  N   VAL d   1      36.788  50.852  29.872  0.00  0.00    -0.344 N 
ATOM     69  H31 VAL d   1      35.920  50.552  29.475  0.00  0.00     0.163 HD
ATOM     70  O   TPO d   1      38.729  51.916  29.511  0.00  0.00    -0.271 OA
BRANCH  68  71
ATOM     71  CA  VAL d   1      37.016  50.640  31.300  0.00  0.00     0.099 C 
ATOM     72  H32 VAL d   1      38.099  50.723  31.477  0.00  0.00     0.090 H 
BRANCH  71  73
ATOM     73  CB  VAL d   1      36.292  51.660  32.215  0.00  0.00    -0.032 C 
ATOM     74  H33 VAL d   1      36.430  51.353  33.262  0.00  0.00     0.042 H 
BRANCH  73  75
ATOM     75  CG2 VAL d   1      34.773  51.664  31.920  0.00  0.00    -0.071 C 
ATOM     76  H37 VAL d   1      34.368  50.652  32.070  0.00  0.00     0.028 H 
ATOM     77  H38 VAL d   1      34.602  51.977  30.879  0.00  0.00     0.028 H 
ATOM     78  H39 VAL d   1      34.269  52.365  32.601  0.00  0.00     0.028 H 
ENDBRANCH  73  75
BRANCH  73  79
ATOM     79  CG1 VAL d   1      36.954  53.057  32.028  0.00  0.00    -0.071 C 
ATOM     80  H34 VAL d   1      36.449  53.791  32.673  0.00  0.00     0.028 H 
ATOM     81  H35 VAL d   1      36.863  53.368  30.977  0.00  0.00     0.028 H 
ATOM     82  H36 VAL d   1      38.018  52.998  32.302  0.00  0.00     0.028 H 
ENDBRANCH  73  79
ENDBRANCH  71  73
BRANCH  71  83
ATOM     83  C   VAL d   1      36.554  49.272  31.731  0.00  0.00     0.197 C 
ATOM     84  O   VAL d   1      35.969  48.520  30.886  0.00  0.00    -0.646 OA
ATOM     85  OXT VAL d   1      36.784  48.963  32.936  0.00  0.00    -0.646 OA
ENDBRANCH  71  83
ENDBRANCH  68  71
ENDBRANCH  54  67
ENDBRANCH  52  54
ENDBRANCH   1  50
TORSDOF 25
