REMARK  26 active torsions:
REMARK  status: ('A' for Active; 'I' for Inactive)
REMARK    1  A    between atoms: C4_2  and  C11_3 
REMARK    2  A    between atoms: C11_3  and  C18_4 
REMARK    3  A    between atoms: C11_3  and  C17_5 
REMARK    4  A    between atoms: C17_5  and  O24_6 
REMARK    5  A    between atoms: O24_6  and  C31_7 
REMARK    6  A    between atoms: C31_7  and  C36_9 
REMARK    7  A    between atoms: C6_11  and  O13_12 
REMARK    8  A    between atoms: C2_13  and  C7_14 
REMARK    9  A    between atoms: C20_17  and  C27_18 
REMARK   10  A    between atoms: C27_18  and  O32_19 
REMARK   11  A    between atoms: O32_19  and  C38_20 
REMARK   12  A    between atoms: C15_24  and  C23_25 
REMARK   13  A    between atoms: C9_26  and  O16_27 
REMARK   14  A    between atoms: C3_28  and  O8_29 
REMARK   15  A    between atoms: O8_29  and  C14_30 
REMARK   16  A    between atoms: C30_32  and  C35_42 
REMARK   17  A    between atoms: C33_33  and  O39_34 
REMARK   18  A    between atoms: C28_35  and  O34_36 
REMARK   19  A    between atoms: O34_36  and  C40_37 
REMARK   20  A    between atoms: C40_37  and  C42_39 
REMARK   21  A    between atoms: C21_40  and  O29_41 
REMARK   22  A    between atoms: C35_42  and  O41_43 
REMARK   23  A    between atoms: O41_43  and  C44_44 
REMARK   24  A    between atoms: C44_44  and  C47_45 
REMARK   25  A    between atoms: C44_44  and  C46_46 
REMARK   26  A    between atoms: C44_44  and  C45_47 
ROOT
ATOM      1  C1  FSC d   1      35.659  49.193  38.061  0.00  0.00    -0.031 C 
ATOM      2  C4  FSC d   1      36.492  50.118  37.504  0.00  0.00    -0.066 C 
ATOM      3  C10 FSC d   1      37.730  49.431  36.942  0.00  0.00    -0.018 C 
ATOM      4  C6  FSC d   1      37.469  47.910  37.018  0.00  0.00     0.053 C 
ATOM      5  C2  FSC d   1      35.989  47.813  37.487  0.00  0.00     0.026 C 
ATOM      6  C5  FSC d   1      35.146  47.329  36.311  0.00  0.00    -0.085 C 
ATOM      7  C12 FSC d   1      34.044  47.822  35.687  0.00  0.00    -0.072 C 
ATOM      8  C20 FSC d   1      33.608  47.100  34.427  0.00  0.00    -0.011 C 
ATOM      9  C26 FSC d   1      32.716  48.093  33.666  0.00  0.00    -0.056 C 
ATOM     10  C25 FSC d   1      32.106  49.014  34.747  0.00  0.00    -0.057 C 
ATOM     11  C19 FSC d   1      33.101  49.011  35.918  0.00  0.00    -0.026 C 
ATOM     12  C15 FSC d   1      32.380  49.079  37.334  0.00  0.00    -0.023 C 
ATOM     13  C9  FSC d   1      33.139  49.983  38.378  0.00  0.00     0.068 C 
ATOM     14  C3  FSC d   1      34.464  49.411  39.019  0.00  0.00     0.090 C 
ATOM     15  H10 FSC d   1      38.614  49.694  37.541  0.00  0.00     0.043 H 
ATOM     16  H11 FSC d   1      37.891  49.736  35.898  0.00  0.00     0.043 H 
ATOM     17  H12 FSC d   1      38.119  47.459  37.782  0.00  0.00     0.085 H 
ATOM     18  H17 FSC d   1      35.502  46.393  35.882  0.00  0.00     0.079 H 
ATOM     19  H18 FSC d   1      34.489  46.849  33.819  0.00  0.00     0.050 H 
ATOM     20  H24 FSC d   1      31.922  47.559  33.124  0.00  0.00     0.034 H 
ATOM     21  H25 FSC d   1      33.315  48.680  32.954  0.00  0.00     0.034 H 
ATOM     22  H26 FSC d   1      31.130  48.625  35.074  0.00  0.00     0.034 H 
ATOM     23  H27 FSC d   1      31.982  50.034  34.354  0.00  0.00     0.034 H 
ATOM     24  H28 FSC d   1      33.709  49.925  35.846  0.00  0.00     0.047 H 
ATOM     25  H29 FSC d   1      31.408  49.559  37.149  0.00  0.00     0.044 H 
ATOM     26  H33 FSC d   1      33.395  50.925  37.871  0.00  0.00     0.088 H 
ATOM     27  H35 FSC d   1      34.224  48.443  39.483  0.00  0.00     0.094 H 
ENDROOT
BRANCH  14  28
ATOM     28  O8  FSC d   1      34.882  50.346  40.034  0.00  0.00    -0.346 OA
BRANCH  28  29
ATOM     29  C14 FSC d   1      34.963  49.861  41.404  0.00  0.00     0.159 C 
ATOM     30  O22 FSC d   1      36.223  49.129  41.619  0.00  0.00    -0.348 OA
ATOM     31  C30 FSC d   1      37.451  49.945  41.530  0.00  0.00     0.089 C 
ATOM     32  C33 FSC d   1      37.375  51.298  42.326  0.00  0.00     0.090 C 
ATOM     33  H37 FSC d   1      37.603  50.197  40.470  0.00  0.00     0.090 H 
ATOM     34  C28 FSC d   1      36.057  52.002  41.924  0.00  0.00     0.104 C 
ATOM     35  H38 FSC d   1      37.373  51.100  43.408  0.00  0.00     0.091 H 
ATOM     36  C21 FSC d   1      34.880  51.081  42.354  0.00  0.00     0.111 C 
ATOM     37  H40 FSC d   1      36.052  52.020  40.824  0.00  0.00     0.092 H 
ATOM     38  H44 FSC d   1      34.986  50.773  43.405  0.00  0.00     0.094 H 
ATOM     39  H36 FSC d   1      34.118  49.185  41.602  0.00  0.00     0.133 H 
BRANCH  31  40
ATOM     40  C35 FSC d   1      38.651  49.117  42.000  0.00  0.00     0.047 C 
ATOM     41  H46 FSC d   1      39.480  49.793  42.256  0.00  0.00     0.078 H 
ATOM     42  H47 FSC d   1      38.965  48.442  41.190  0.00  0.00     0.078 H 
BRANCH  40  43
ATOM     43  O41 FSC d   1      38.297  48.330  43.169  0.00  0.00    -0.374 OA
BRANCH  43  44
ATOM     44  C44 FSC d   1      39.040  47.110  43.498  0.00  0.00     0.071 C 
BRANCH  44  45
ATOM     45  C47 FSC d   1      39.028  46.139  42.309  0.00  0.00    -0.045 C 
ATOM     46  H48 FSC d   1      39.589  45.230  42.572  0.00  0.00     0.032 H 
ATOM     47  H49 FSC d   1      39.497  46.620  41.438  0.00  0.00     0.032 H 
ATOM     48  H50 FSC d   1      37.989  45.871  42.065  0.00  0.00     0.032 H 
ENDBRANCH  44  45
BRANCH  44  49
ATOM     49  C46 FSC d   1      38.379  46.414  44.696  0.00  0.00    -0.045 C 
ATOM     50  H51 FSC d   1      38.937  45.499  44.942  0.00  0.00     0.032 H 
ATOM     51  H52 FSC d   1      37.341  46.153  44.442  0.00  0.00     0.032 H 
ATOM     52  H53 FSC d   1      38.385  47.091  45.563  0.00  0.00     0.032 H 
ENDBRANCH  44  49
BRANCH  44  53
ATOM     53  C45 FSC d   1      40.500  47.439  43.845  0.00  0.00    -0.080 C 
ATOM     54  C48 FSC d   1      40.827  48.414  44.729  0.00  0.00    -0.122 C 
ATOM     55  H55 FSC d   1      41.873  48.620  44.951  0.00  0.00     0.066 H 
ATOM     56  H56 FSC d   1      40.043  48.991  45.217  0.00  0.00     0.066 H 
ATOM     57  H54 FSC d   1      41.297  46.872  43.366  0.00  0.00     0.080 H 
ENDBRANCH  44  53
ENDBRANCH  43  44
ENDBRANCH  40  43
ENDBRANCH  31  40
BRANCH  32  58
ATOM     58  O39 FSC d   1      38.510  52.101  41.993  0.00  0.00    -0.390 OA
ATOM     59  H39 FSC d   1      38.508  52.278  41.060  0.00  0.00     0.210 HD
ENDBRANCH  32  58
BRANCH  34  60
ATOM     60  O34 FSC d   1      35.893  53.404  42.316  0.00  0.00    -0.311 OA
BRANCH  60  61
ATOM     61  C40 FSC d   1      35.927  53.848  43.598  0.00  0.00     0.255 C 
ATOM     62  O43 FSC d   1      36.992  54.185  44.091  0.00  0.00    -0.266 OA
BRANCH  61  63
ATOM     63  C42 FSC d   1      34.642  53.970  44.401  0.00  0.00     0.004 C 
ATOM     64  H41 FSC d   1      34.874  54.344  45.409  0.00  0.00     0.041 H 
ATOM     65  H42 FSC d   1      34.162  52.983  44.477  0.00  0.00     0.041 H 
ATOM     66  H43 FSC d   1      33.960  54.672  43.898  0.00  0.00     0.041 H 
ENDBRANCH  61  63
ENDBRANCH  60  61
ENDBRANCH  34  60
BRANCH  36  67
ATOM     67  O29 FSC d   1      33.631  51.746  42.164  0.00  0.00    -0.388 OA
ATOM     68  H45 FSC d   1      33.529  51.970  41.246  0.00  0.00     0.210 HD
ENDBRANCH  36  67
ENDBRANCH  28  29
ENDBRANCH  14  28
BRANCH  13  69
ATOM     69  O16 FSC d   1      32.245  50.248  39.456  0.00  0.00    -0.392 OA
ATOM     70  H34 FSC d   1      32.681  50.793  40.101  0.00  0.00     0.210 HD
ENDBRANCH  13  69
BRANCH   2  71
ATOM     71  C11 FSC d   1      36.207  51.623  37.427  0.00  0.00    -0.014 C 
ATOM     72  H1  FSC d   1      35.321  51.843  38.041  0.00  0.00     0.049 H 
BRANCH  71  73
ATOM     73  C18 FSC d   1      35.924  52.057  35.987  0.00  0.00    -0.067 C 
ATOM     74  H2  FSC d   1      35.724  53.138  35.963  0.00  0.00     0.028 H 
ATOM     75  H3  FSC d   1      35.047  51.513  35.606  0.00  0.00     0.028 H 
ATOM     76  H4  FSC d   1      36.798  51.832  35.358  0.00  0.00     0.028 H 
ENDBRANCH  71  73
BRANCH  71  77
ATOM     77  C17 FSC d   1      37.393  52.414  37.972  0.00  0.00     0.035 C 
ATOM     78  H5  FSC d   1      38.112  52.606  37.162  0.00  0.00     0.076 H 
ATOM     79  H6  FSC d   1      37.885  51.838  38.770  0.00  0.00     0.076 H 
BRANCH  77  80
ATOM     80  O24 FSC d   1      36.921  53.656  38.499  0.00  0.00    -0.321 OA
BRANCH  80  81
ATOM     81  C31 FSC d   1      37.796  54.487  39.115  0.00  0.00     0.254 C 
ATOM     82  O37 FSC d   1      38.644  54.046  39.875  0.00  0.00    -0.266 OA
BRANCH  81  83
ATOM     83  C36 FSC d   1      37.716  55.968  38.869  0.00  0.00     0.004 C 
ATOM     84  H7  FSC d   1      38.499  56.479  39.449  0.00  0.00     0.041 H 
ATOM     85  H8  FSC d   1      36.728  56.339  39.181  0.00  0.00     0.041 H 
ATOM     86  H9  FSC d   1      37.862  56.170  37.798  0.00  0.00     0.041 H 
ENDBRANCH  81  83
ENDBRANCH  80  81
ENDBRANCH  77  80
ENDBRANCH  71  77
ENDBRANCH   2  71
BRANCH   5  87
ATOM     87  C7  FSC d   1      35.844  46.717  38.552  0.00  0.00    -0.060 C 
ATOM     88  H14 FSC d   1      34.794  46.657  38.876  0.00  0.00     0.029 H 
ATOM     89  H15 FSC d   1      36.481  46.958  39.416  0.00  0.00     0.029 H 
ATOM     90  H16 FSC d   1      36.152  45.750  38.127  0.00  0.00     0.029 H 
ENDBRANCH   5  87
BRANCH  12  91
ATOM     91  C23 FSC d   1      32.075  47.710  37.964  0.00  0.00    -0.070 C 
ATOM     92  H30 FSC d   1      31.579  47.856  38.935  0.00  0.00     0.028 H 
ATOM     93  H31 FSC d   1      33.014  47.157  38.111  0.00  0.00     0.028 H 
ATOM     94  H32 FSC d   1      31.413  47.139  37.297  0.00  0.00     0.028 H 
ENDBRANCH  12  91
BRANCH   4  95
ATOM     95  O13 FSC d   1      37.750  47.257  35.769  0.00  0.00    -0.394 OA
ATOM     96  H13 FSC d   1      37.579  46.327  35.854  0.00  0.00     0.210 HD
ENDBRANCH   4  95
BRANCH   8  97
ATOM     97  C27 FSC d   1      32.850  45.805  34.750  0.00  0.00     0.026 C 
ATOM     98  H19 FSC d   1      31.781  46.030  34.877  0.00  0.00     0.075 H 
ATOM     99  H20 FSC d   1      33.246  45.373  35.681  0.00  0.00     0.075 H 
BRANCH  97 100
ATOM    100  O32 FSC d   1      33.013  44.867  33.686  0.00  0.00    -0.395 OA
BRANCH 100 101
ATOM    101  C38 FSC d   1      32.257  43.679  33.915  0.00  0.00     0.004 C 
ATOM    102  H21 FSC d   1      32.407  42.982  33.077  0.00  0.00     0.066 H 
ATOM    103  H22 FSC d   1      31.190  43.933  33.994  0.00  0.00     0.066 H 
ATOM    104  H23 FSC d   1      32.592  43.206  34.850  0.00  0.00     0.066 H 
ENDBRANCH 100 101
ENDBRANCH  97 100
ENDBRANCH   8  97
TORSDOF 26
