REMARK WARNING: 32 MAX_TORS EXCEEDED!!!
REMARK  80 active torsions:
REMARK  status: ('A' for Active; 'I' for Inactive)
REMARK    1  A    between atoms: N_1  and  CA_2 
REMARK    2  A    between atoms: CA_2  and  C_3 
REMARK    3  A    between atoms: CA_2  and  CB_5 
REMARK       I    between atoms: C_3  and  N_9 
REMARK    4  A    between atoms: CB_5  and  CG_6 
REMARK    5  A    between atoms: CG_6  and  CD1_7 
REMARK    6  A    between atoms: CG_6  and  CD2_8 
REMARK    7  A    between atoms: N_9  and  CA_10 
REMARK    8  A    between atoms: CA_10  and  C_11 
REMARK    9  A    between atoms: CA_10  and  CB_13 
REMARK       I    between atoms: C_11  and  N_17 
REMARK   10  A    between atoms: CB_13  and  CG_14 
REMARK   11  A    between atoms: N_17  and  CA_18 
REMARK   12  A    between atoms: CA_18  and  C_19 
REMARK   13  A    between atoms: CA_18  and  CB_21 
REMARK       I    between atoms: C_19  and  N_29 
REMARK   14  A    between atoms: CB_21  and  CG_22 
REMARK   15  A    between atoms: CZ_27  and  OH_28 
REMARK   16  A    between atoms: N_29  and  CA_30 
REMARK   17  A    between atoms: CA_30  and  C_31 
REMARK   18  A    between atoms: CA_30  and  CB_33 
REMARK       I    between atoms: C_31  and  N_39 
REMARK   19  A    between atoms: CB_33  and  CG_34 
REMARK   20  A    between atoms: N_39  and  CA_40 
REMARK   21  A    between atoms: CA_40  and  C_41 
REMARK   22  A    between atoms: CA_40  and  CB_43 
REMARK       I    between atoms: C_41  and  N_50 
REMARK   23  A    between atoms: CB_43  and  CG_44 
REMARK   24  A    between atoms: N_50  and  CA_51 
REMARK   25  A    between atoms: CA_51  and  C_52 
REMARK       I    between atoms: C_52  and  N_54 
REMARK   26  A    between atoms: N_54  and  CA_55 
REMARK   27  A    between atoms: CA_55  and  C_56 
REMARK   28  A    between atoms: CA_55  and  CB_58 
REMARK       I    between atoms: C_56  and  N_62 
REMARK   29  A    between atoms: CB_58  and  CG_59 
REMARK   30  A    between atoms: CG_59  and  CD1_60 
REMARK   31  A    between atoms: CG_59  and  CD2_61 
REMARK   32  A    between atoms: N_62  and  CA_63 
REMARK   33  A    between atoms: CA_63  and  C_64 
REMARK   34  A    between atoms: CA_63  and  CB_66 
REMARK       I    between atoms: C_64  and  N_71 
REMARK   35  A    between atoms: CB_66  and  CG_67 
REMARK   36  A    between atoms: CG_67  and  CD_68 
REMARK   37  A    between atoms: N_71  and  CA_72 
REMARK   38  A    between atoms: CA_72  and  C_73 
REMARK   39  A    between atoms: CA_72  and  CB_75 
REMARK       I    between atoms: C_73  and  N_80 
REMARK   40  A    between atoms: CB_75  and  CG_76 
REMARK   41  A    between atoms: CG_76  and  CD_77 
REMARK   42  A    between atoms: N_80  and  CA_81 
REMARK   43  A    between atoms: CA_81  and  C_82 
REMARK       I    between atoms: C_82  and  N_84 
REMARK   44  A    between atoms: N_84  and  CA_85 
REMARK   45  A    between atoms: CA_85  and  C_86 
REMARK   46  A    between atoms: CA_85  and  CB_88 
REMARK       I    between atoms: C_86  and  N_93 
REMARK   47  A    between atoms: CB_88  and  CG_89 
REMARK   48  A    between atoms: CG_89  and  CD_90 
REMARK   49  A    between atoms: N_93  and  CA_94 
REMARK   50  A    between atoms: CA_94  and  C_95 
REMARK       I    between atoms: C_95  and  N_97 
REMARK   51  A    between atoms: N_97  and  CA_98 
REMARK   52  A    between atoms: CA_98  and  C_99 
REMARK   53  A    between atoms: CA_98  and  CB_101 
REMARK       I    between atoms: C_99  and  N_105 
REMARK   54  A    between atoms: CB_101  and  CG1_102 
REMARK   55  A    between atoms: CB_101  and  CG2_103 
REMARK   56  A    between atoms: CG1_102  and  CD1_104 
REMARK   57  A    between atoms: N_105  and  CA_106 
REMARK   58  A    between atoms: CA_106  and  C_107 
REMARK   59  A    between atoms: CA_106  and  CB_109 
REMARK       I    between atoms: C_107  and  N_116 
REMARK   60  A    between atoms: CB_109  and  CG_110 
REMARK   61  A    between atoms: CG_110  and  CD_111 
REMARK   62  A    between atoms: CD_111  and  NE_112 
REMARK       I    between atoms: NE_112  and  CZ_113 
REMARK       I    between atoms: CZ_113  and  NH1_114 
REMARK   63  A    between atoms: N_116  and  CA_117 
REMARK   64  A    between atoms: CA_117  and  C_118 
REMARK   65  A    between atoms: CA_117  and  CB_120 
REMARK       I    between atoms: C_118  and  N_124 
REMARK   66  A    between atoms: CB_120  and  CG_121 
REMARK   67  A    between atoms: N_124  and  CA_125 
REMARK   68  A    between atoms: CA_125  and  C_126 
REMARK   69  A    between atoms: CA_125  and  CB_128 
REMARK       I    between atoms: C_126  and  N_132 
REMARK   70  A    between atoms: CB_128  and  CG_129 
REMARK   71  A    between atoms: CG_129  and  CD1_130 
REMARK   72  A    between atoms: CG_129  and  CD2_131 
REMARK   73  A    between atoms: N_132  and  CA_133 
REMARK   74  A    between atoms: CA_133  and  C_134 
REMARK   75  A    between atoms: CA_133  and  CB_136 
REMARK       I    between atoms: C_134  and  N_143 
REMARK   76  A    between atoms: CB_136  and  CG_137 
REMARK   77  A    between atoms: N_143  and  CA_144 
REMARK   78  A    between atoms: CA_144  and  C_145 
REMARK   79  A    between atoms: CA_144  and  CB_146 
REMARK   80  A    between atoms: CB_146  and  CG_147 
ROOT
ATOM      1  CA  GLU d   1      28.679 156.733  41.779  0.00  0.00     0.090 C 
ATOM      2  H64 GLU d   1      27.664 156.585  41.381  0.00  0.00     0.087 H 
ENDROOT
BRANCH   1   3
ATOM      3  N   GLU d   1      29.606 156.268  40.729  0.00  0.00    -0.346 N 
ATOM      4  C   GLU d   1      29.807 156.948  39.599  0.00  0.00     0.241 C 
ATOM      5  O   GLU d   1      29.272 158.027  39.368  0.00  0.00    -0.271 OA
ATOM      6  H63 GLU d   1      30.102 155.411  40.870  0.00  0.00     0.163 HD
BRANCH   4   7
ATOM      7  CA  GLU d   1      30.751 156.332  38.572  0.00  0.00     0.090 C 
ATOM      8  H58 GLU d   1      30.600 155.243  38.553  0.00  0.00     0.087 H 
BRANCH   7   9
ATOM      9  N   GLU d   1      30.460 156.883  37.259  0.00  0.00    -0.346 N 
ATOM     10  C   LEU d   1      29.790 156.205  36.334  0.00  0.00     0.241 C 
ATOM     11  O   LEU d   1      29.411 155.042  36.483  0.00  0.00    -0.271 OA
ATOM     12  H57 GLU d   1      30.776 157.807  37.044  0.00  0.00     0.163 HD
BRANCH  10  13
ATOM     13  CA  LEU d   1      29.518 156.956  35.042  0.00  0.00     0.089 C 
ATOM     14  H47 LEU d   1      30.269 157.751  34.920  0.00  0.00     0.087 H 
BRANCH  13  15
ATOM     15  N   LEU d   1      29.626 156.034  33.926  0.00  0.00    -0.346 N 
ATOM     16  C   GLY d   1      30.811 155.555  33.572  0.00  0.00     0.236 C 
ATOM     17  O   GLY d   1      31.856 155.916  34.105  0.00  0.00    -0.272 OA
ATOM     18  H46 LEU d   1      28.806 155.760  33.424  0.00  0.00     0.163 HD
BRANCH  16  19
ATOM     19  CA  GLY d   1      30.833 154.548  32.440  0.00  0.00     0.069 C 
ATOM     20  H44 GLY d   1      31.209 155.052  31.537  0.00  0.00     0.078 H 
ATOM     21  H45 GLY d   1      31.517 153.732  32.717  0.00  0.00     0.078 H 
BRANCH  19  22
ATOM     22  N   GLY d   1      29.537 153.971  32.133  0.00  0.00    -0.351 N 
ATOM     23  C   PHE d   1      29.103 152.876  32.749  0.00  0.00     0.241 C 
ATOM     24  O   PHE d   1      29.732 152.321  33.650  0.00  0.00    -0.271 OA
ATOM     25  H43 GLY d   1      28.958 154.406  31.443  0.00  0.00     0.163 HD
BRANCH  23  26
ATOM     26  CA  PHE d   1      27.764 152.317  32.294  0.00  0.00     0.093 C 
ATOM     27  H35 PHE d   1      27.277 153.032  31.615  0.00  0.00     0.088 H 
BRANCH  26  28
ATOM     28  N   PHE d   1      28.009 151.065  31.576  0.00  0.00    -0.346 N 
ATOM     29  C   HIS d   1      28.177 151.055  30.255  0.00  0.00     0.241 C 
ATOM     30  O   HIS d   1      28.041 152.060  29.569  0.00  0.00    -0.271 OA
ATOM     31  H34 PHE d   1      28.051 150.205  32.085  0.00  0.00     0.163 HD
BRANCH  29  32
ATOM     32  CA  HIS d   1      28.534 149.711  29.598  0.00  0.00     0.094 C 
ATOM     33  H28 HIS d   1      28.781 148.999  30.400  0.00  0.00     0.088 H 
BRANCH  32  34
ATOM     34  N   HIS d   1      27.426 149.151  28.822  0.00  0.00    -0.346 N 
ATOM     35  C   TYR d   1      26.451 148.457  29.396  0.00  0.00     0.241 C 
ATOM     36  O   TYR d   1      26.400 148.251  30.602  0.00  0.00    -0.271 OA
ATOM     37  H27 HIS d   1      27.403 149.295  27.833  0.00  0.00     0.163 HD
BRANCH  35  38
ATOM     38  CA  TYR d   1      25.379 147.892  28.492  0.00  0.00     0.093 C 
ATOM     39  H19 TYR d   1      25.736 147.861  27.452  0.00  0.00     0.088 H 
BRANCH  38  40
ATOM     40  N   TYR d   1      25.115 146.546  28.978  0.00  0.00    -0.346 N 
ATOM     41  C   ASP d   1      25.475 145.469  28.295  0.00  0.00     0.241 C 
ATOM     42  O   ASP d   1      26.037 145.538  27.203  0.00  0.00    -0.271 OA
ATOM     43  H18 TYR d   1      24.648 146.430  29.854  0.00  0.00     0.163 HD
BRANCH  41  44
ATOM     44  CA  ASP d   1      25.137 144.115  28.946  0.00  0.00     0.098 C 
ATOM     45  H15 ASP d   1      26.077 143.667  29.299  0.00  0.00     0.088 H 
BRANCH  44  46
ATOM     46  N   ASP d   1      24.249 144.277  30.107  0.00  0.00    -0.345 N 
ATOM     47  C   LEU d   1      22.954 144.583  29.978  0.00  0.00     0.249 C 
ATOM     48  O   LEU d   1      22.401 144.738  28.881  0.00  0.00    -0.271 OA
ATOM     49  H14 ASP d   1      24.627 144.154  31.025  0.00  0.00     0.163 HD
BRANCH  47  50
ATOM     50  CA  LEU d   1      22.145 144.745  31.275  0.00  0.00     0.176 C 
ATOM     51  H4  LEU d   1      21.856 145.804  31.348  0.00  0.00     0.099 H 
BRANCH  50  52
ATOM     52  N   LEU d   1      20.884 143.939  31.244  0.00  0.00    -0.066 N 
ATOM     53  H1  LEU d   1      20.381 144.069  32.108  0.00  0.00     0.275 HD
ATOM     54  H2  LEU d   1      21.111 142.964  31.131  0.00  0.00     0.275 HD
ATOM     55  H3  LEU d   1      20.311 144.242  30.472  0.00  0.00     0.275 HD
ENDBRANCH  50  52
BRANCH  50  56
ATOM     56  CB  LEU d   1      22.988 144.412  32.523  0.00  0.00    -0.028 C 
ATOM     57  H5  LEU d   1      22.408 144.765  33.388  0.00  0.00     0.037 H 
ATOM     58  H6  LEU d   1      23.912 145.002  32.436  0.00  0.00     0.037 H 
BRANCH  56  59
ATOM     59  CG  LEU d   1      23.426 142.978  32.857  0.00  0.00    -0.059 C 
ATOM     60  H7  LEU d   1      23.946 142.572  31.977  0.00  0.00     0.038 H 
BRANCH  59  61
ATOM     61  CD1 LEU d   1      24.404 142.977  34.030  0.00  0.00    -0.073 C 
ATOM     62  H8  LEU d   1      24.706 141.943  34.255  0.00  0.00     0.028 H 
ATOM     63  H9  LEU d   1      23.918 143.417  34.913  0.00  0.00     0.028 H 
ATOM     64  H10 LEU d   1      25.293 143.570  33.767  0.00  0.00     0.028 H 
ENDBRANCH  59  61
BRANCH  59  65
ATOM     65  CD2 LEU d   1      22.241 142.070  33.158  0.00  0.00    -0.073 C 
ATOM     66  H11 LEU d   1      21.546 142.080  32.306  0.00  0.00     0.028 H 
ATOM     67  H12 LEU d   1      21.723 142.430  34.059  0.00  0.00     0.028 H 
ATOM     68  H13 LEU d   1      22.599 141.044  33.327  0.00  0.00     0.028 H 
ENDBRANCH  59  65
ENDBRANCH  56  59
ENDBRANCH  50  56
ENDBRANCH  47  50
ENDBRANCH  44  46
BRANCH  44  69
ATOM     69  CB  ASP d   1      24.510 143.163  27.925  0.00  0.00     0.043 C 
ATOM     70  H16 ASP d   1      23.681 143.683  27.422  0.00  0.00     0.052 H 
ATOM     71  H17 ASP d   1      24.121 142.282  28.457  0.00  0.00     0.052 H 
BRANCH  69  72
ATOM     72  CG  ASP d   1      25.496 142.698  26.877  0.00  0.00     0.175 C 
ATOM     73  OD1 ASP d   1      25.735 143.452  25.910  0.00  0.00    -0.648 OA
ATOM     74  OD2 ASP d   1      26.077 141.590  26.934  0.00  0.00    -0.648 OA
ENDBRANCH  69  72
ENDBRANCH  44  69
ENDBRANCH  41  44
ENDBRANCH  38  40
BRANCH  38  75
ATOM     75  CB  TYR d   1      24.103 148.737  28.567  0.00  0.00    -0.014 C 
ATOM     76  H20 TYR d   1      23.693 148.649  29.584  0.00  0.00     0.043 H 
ATOM     77  H21 TYR d   1      23.380 148.332  27.843  0.00  0.00     0.043 H 
BRANCH  75  78
ATOM     78  CG  TYR d   1      24.301 150.204  28.264  0.00  0.00    -0.056 A 
ATOM     79  CD1 TYR d   1      24.387 150.653  26.956  0.00  0.00    -0.074 A 
ATOM     80  CE1 TYR d   1      24.560 151.984  26.672  0.00  0.00    -0.051 A 
ATOM     81  H22 TYR d   1      24.316 149.940  26.143  0.00  0.00     0.084 H 
ATOM     82  CZ  TYR d   1      24.650 152.896  27.694  0.00  0.00     0.065 A 
ATOM     83  H24 TYR d   1      24.625 152.315  25.642  0.00  0.00     0.087 H 
ATOM     84  CE2 TYR d   1      24.559 152.483  29.008  0.00  0.00    -0.051 A 
ATOM     85  CD2 TYR d   1      24.384 151.148  29.288  0.00  0.00    -0.074 A 
ATOM     86  H25 TYR d   1      24.625 153.206  29.813  0.00  0.00     0.087 H 
ATOM     87  H23 TYR d   1      24.309 150.824  30.320  0.00  0.00     0.084 H 
BRANCH  82  88
ATOM     88  OH  TYR d   1      24.833 154.234  27.383  0.00  0.00    -0.361 OA
ATOM     89  H26 TYR d   1      24.873 154.336  26.439  0.00  0.00     0.217 HD
ENDBRANCH  82  88
ENDBRANCH  75  78
ENDBRANCH  38  75
ENDBRANCH  35  38
ENDBRANCH  32  34
BRANCH  32  90
ATOM     90  CB  HIS d   1      29.769 149.871  28.692  0.00  0.00     0.004 C 
ATOM     91  H29 HIS d   1      29.475 150.462  27.812  0.00  0.00     0.046 H 
ATOM     92  H30 HIS d   1      30.091 148.870  28.371  0.00  0.00     0.046 H 
BRANCH  90  93
ATOM     93  CG  HIS d   1      30.936 150.552  29.345  0.00  0.00     0.053 A 
ATOM     94  ND1 HIS d   1      31.401 150.211  30.598  0.00  0.00    -0.247 NA
ATOM     95  CE1 HIS d   1      32.436 150.972  30.909  0.00  0.00     0.064 A 
ATOM     96  NE2 HIS d   1      32.663 151.792  29.900  0.00  0.00    -0.359 N 
ATOM     97  H32 HIS d   1      33.004 150.930  31.837  0.00  0.00     0.143 H 
ATOM     98  CD2 HIS d   1      31.739 151.550  28.911  0.00  0.00     0.002 A 
ATOM     99  H33 HIS d   1      33.411 152.499  29.860  0.00  0.00     0.166 HD
ATOM    100  H31 HIS d   1      31.667 152.066  27.955  0.00  0.00     0.114 H 
ENDBRANCH  90  93
ENDBRANCH  32  90
ENDBRANCH  29  32
ENDBRANCH  26  28
BRANCH  26 101
ATOM    101  CB  PHE d   1      26.872 152.102  33.508  0.00  0.00    -0.014 C 
ATOM    102  H36 PHE d   1      26.839 153.039  34.084  0.00  0.00     0.043 H 
ATOM    103  H37 PHE d   1      27.314 151.307  34.126  0.00  0.00     0.043 H 
BRANCH 101 104
ATOM    104  CG  PHE d   1      25.476 151.711  33.170  0.00  0.00    -0.056 A 
ATOM    105  CD1 PHE d   1      25.160 150.388  32.926  0.00  0.00    -0.077 A 
ATOM    106  CE1 PHE d   1      23.866 150.020  32.620  0.00  0.00    -0.082 A 
ATOM    107  H38 PHE d   1      25.936 149.632  32.975  0.00  0.00     0.084 H 
ATOM    108  CZ  PHE d   1      22.875 150.981  32.557  0.00  0.00    -0.083 A 
ATOM    109  H40 PHE d   1      23.627 148.980  32.429  0.00  0.00     0.083 H 
ATOM    110  CE2 PHE d   1      23.177 152.301  32.799  0.00  0.00    -0.082 A 
ATOM    111  H42 PHE d   1      21.858 150.694  32.316  0.00  0.00     0.083 H 
ATOM    112  CD2 PHE d   1      24.466 152.666  33.102  0.00  0.00    -0.077 A 
ATOM    113  H41 PHE d   1      22.398 153.053  32.751  0.00  0.00     0.083 H 
ATOM    114  H39 PHE d   1      24.699 153.708  33.290  0.00  0.00     0.084 H 
ENDBRANCH 101 104
ENDBRANCH  26 101
ENDBRANCH  23  26
ENDBRANCH  19  22
ENDBRANCH  16  19
ENDBRANCH  13  15
BRANCH  13 115
ATOM    115  CB  LEU d   1      28.133 157.595  35.106  0.00  0.00    -0.035 C 
ATOM    116  H48 LEU d   1      28.021 158.041  36.105  0.00  0.00     0.037 H 
ATOM    117  H49 LEU d   1      27.392 156.792  34.978  0.00  0.00     0.037 H 
BRANCH 115 118
ATOM    118  CG  LEU d   1      27.813 158.683  34.079  0.00  0.00    -0.059 C 
ATOM    119  H50 LEU d   1      27.972 158.268  33.072  0.00  0.00     0.038 H 
BRANCH 118 120
ATOM    120  CD1 LEU d   1      26.348 159.093  34.204  0.00  0.00    -0.073 C 
ATOM    121  H51 LEU d   1      26.122 159.875  33.464  0.00  0.00     0.028 H 
ATOM    122  H52 LEU d   1      26.161 159.481  35.216  0.00  0.00     0.028 H 
ATOM    123  H53 LEU d   1      25.706 158.219  34.021  0.00  0.00     0.028 H 
ENDBRANCH 118 120
BRANCH 118 124
ATOM    124  CD2 LEU d   1      28.734 159.873  34.248  0.00  0.00    -0.073 C 
ATOM    125  H54 LEU d   1      29.779 159.544  34.153  0.00  0.00     0.028 H 
ATOM    126  H55 LEU d   1      28.579 160.318  35.242  0.00  0.00     0.028 H 
ATOM    127  H56 LEU d   1      28.513 160.621  33.472  0.00  0.00     0.028 H 
ENDBRANCH 118 124
ENDBRANCH 115 118
ENDBRANCH  13 115
ENDBRANCH  10  13
ENDBRANCH   7   9
BRANCH   7 128
ATOM    128  CB  GLU d   1      32.200 156.628  38.923  0.00  0.00    -0.029 C 
ATOM    129  H59 GLU d   1      32.429 156.173  39.898  0.00  0.00     0.037 H 
ATOM    130  H60 GLU d   1      32.334 157.718  38.986  0.00  0.00     0.037 H 
BRANCH 128 131
ATOM    131  CG  GLU d   1      33.161 156.075  37.887  0.00  0.00     0.018 C 
ATOM    132  H61 GLU d   1      32.961 156.568  36.924  0.00  0.00     0.049 H 
ATOM    133  H62 GLU d   1      32.987 154.993  37.789  0.00  0.00     0.049 H 
BRANCH 131 134
ATOM    134  CD  GLU d   1      34.612 156.300  38.253  0.00  0.00     0.172 C 
ATOM    135  OE1 GLU d   1      34.942 157.441  38.638  0.00  0.00    -0.648 OA
ATOM    136  OE2 GLU d   1      35.415 155.339  38.148  0.00  0.00    -0.648 OA
ENDBRANCH 131 134
ENDBRANCH 128 131
ENDBRANCH   7 128
ENDBRANCH   4   7
ENDBRANCH   1   3
BRANCH   1 137
ATOM    137  C   GLU d   1      28.796 158.226  42.116  0.00  0.00     0.240 C 
ATOM    138  O   GLU d   1      27.805 158.919  42.314  0.00  0.00    -0.271 OA
ATOM    139  N   GLY d   1      30.006 158.744  42.166  0.00  0.00    -0.351 N 
ATOM    140  H69 GLY d   1      30.815 158.173  42.025  0.00  0.00     0.163 HD
BRANCH 139 141
ATOM    141  CA  GLY d   1      30.135 160.161  42.431  0.00  0.00     0.069 C 
ATOM    142  H70 GLY d   1      31.157 160.353  42.790  0.00  0.00     0.078 H 
ATOM    143  H71 GLY d   1      29.414 160.432  43.216  0.00  0.00     0.078 H 
BRANCH 141 144
ATOM    144  C   GLY d   1      29.879 161.050  41.218  0.00  0.00     0.236 C 
ATOM    145  O   GLY d   1      30.190 162.248  41.254  0.00  0.00    -0.272 OA
ATOM    146  N   GLU d   1      29.336 160.480  40.143  0.00  0.00    -0.346 N 
ATOM    147  H72 GLU d   1      29.112 159.506  40.164  0.00  0.00     0.163 HD
BRANCH 146 148
ATOM    148  CA  GLU d   1      29.061 161.255  38.929  0.00  0.00     0.090 C 
ATOM    149  H73 GLU d   1      29.332 162.300  39.138  0.00  0.00     0.087 H 
BRANCH 148 150
ATOM    150  C   GLU d   1      27.588 161.229  38.525  0.00  0.00     0.240 C 
ATOM    151  O   GLU d   1      26.890 160.232  38.678  0.00  0.00    -0.271 OA
ATOM    152  N   GLY d   1      27.111 162.336  37.992  0.00  0.00    -0.351 N 
ATOM    153  H78 GLY d   1      27.696 163.142  37.896  0.00  0.00     0.163 HD
BRANCH 152 154
ATOM    154  CA  GLY d   1      25.738 162.377  37.548  0.00  0.00     0.069 C 
ATOM    155  H79 GLY d   1      25.099 162.695  38.386  0.00  0.00     0.078 H 
ATOM    156  H80 GLY d   1      25.437 161.372  37.218  0.00  0.00     0.078 H 
BRANCH 154 157
ATOM    157  C   GLY d   1      25.564 163.342  36.404  0.00  0.00     0.236 C 
ATOM    158  O   GLY d   1      26.406 164.211  36.171  0.00  0.00    -0.272 OA
ATOM    159  N   ILE d   1      24.448 163.199  35.706  0.00  0.00    -0.346 N 
ATOM    160  H81 ILE d   1      23.793 162.495  35.982  0.00  0.00     0.163 HD
BRANCH 159 161
ATOM    161  CA  ILE d   1      24.141 164.030  34.552  0.00  0.00     0.092 C 
ATOM    162  H82 ILE d   1      24.714 163.645  33.696  0.00  0.00     0.088 H 
BRANCH 161 163
ATOM    163  C   ILE d   1      24.525 165.500  34.755  0.00  0.00     0.241 C 
ATOM    164  O   ILE d   1      24.899 166.192  33.814  0.00  0.00    -0.271 OA
ATOM    165  N   ARG d   1      24.442 165.979  35.983  0.00  0.00    -0.346 N 
ATOM    166  H92 ARG d   1      24.189 165.375  36.739  0.00  0.00     0.163 HD
BRANCH 165 167
ATOM    167  CA  ARG d   1      24.716 167.377  36.237  0.00  0.00     0.089 C 
ATOM    168  H93 ARG d   1      24.148 167.955  35.493  0.00  0.00     0.087 H 
BRANCH 167 169
ATOM    169  C   ARG d   1      26.189 167.776  36.064  0.00  0.00     0.241 C 
ATOM    170  O   ARG d   1      26.495 168.929  35.760  0.00  0.00    -0.271 OA
ATOM    171  N   ASP d   1      27.100 166.826  36.243  0.00  0.00    -0.346 N 
ATOM    172 5H10 ASP d   1      26.809 165.904  36.499  0.00  0.00     0.163 HD
BRANCH 171 173
ATOM    173  CA  ASP d   1      28.514 167.111  36.071  0.00  0.00     0.098 C 
ATOM    174 6H10 ASP d   1      28.733 168.088  36.526  0.00  0.00     0.088 H 
BRANCH 173 175
ATOM    175  C   ASP d   1      28.880 167.157  34.591  0.00  0.00     0.241 C 
ATOM    176  O   ASP d   1      29.894 167.735  34.209  0.00  0.00    -0.271 OA
ATOM    177  N   LEU d   1      28.063 166.536  33.750  0.00  0.00    -0.346 N 
ATOM    178 9H10 LEU d   1      27.230 166.104  34.096  0.00  0.00     0.163 HD
BRANCH 177 179
ATOM    179  CA  LEU d   1      28.368 166.479  32.332  0.00  0.00     0.089 C 
ATOM    180 0H11 LEU d   1      29.409 166.143  32.218  0.00  0.00     0.087 H 
BRANCH 179 181
ATOM    181  C   LEU d   1      28.243 167.848  31.685  0.00  0.00     0.241 C 
ATOM    182  O   LEU d   1      28.907 168.132  30.687  0.00  0.00    -0.271 OA
ATOM    183  N   PHE d   1      27.372 168.670  32.266  0.00  0.00    -0.346 N 
ATOM    184 0H12 PHE d   1      26.843 168.319  33.039  0.00  0.00     0.163 HD
BRANCH 183 185
ATOM    185  CA  PHE d   1      27.138 170.045  31.851  0.00  0.00     0.093 C 
ATOM    186 1H12 PHE d   1      27.771 170.312  30.992  0.00  0.00     0.088 H 
BRANCH 185 187
ATOM    187  C   PHE d   1      27.458 170.875  33.064  0.00  0.00     0.241 C 
ATOM    188  O   PHE d   1      26.584 171.561  33.597  0.00  0.00    -0.271 OA
ATOM    189  N   ASP d   1      28.702 170.786  33.523  0.00  0.00    -0.355 N 
ATOM    190 9H12 ASP d   1      29.365 170.228  33.024  0.00  0.00     0.162 HD
BRANCH 189 191
ATOM    191  CA  ASP d   1      29.129 171.480  34.737  0.00  0.00     0.018 C 
ATOM    192 0H13 ASP d   1      28.426 172.302  34.938  0.00  0.00     0.072 H 
BRANCH 191 193
ATOM    193  C   ASP d   1      30.528 172.065  34.577  0.00  0.00    -0.057 C 
ATOM    194 1H13 ASP d   1      30.819 172.579  35.505  0.00  0.00     0.030 H 
ATOM    195 2H13 ASP d   1      30.532 172.783  33.744  0.00  0.00     0.030 H 
ATOM    196 3H13 ASP d   1      31.242 171.255  34.367  0.00  0.00     0.030 H 
ENDBRANCH 191 193
BRANCH 191 197
ATOM    197  CB  ASP d   1      29.107 170.508  35.920  0.00  0.00     0.034 C 
ATOM    198 4H13 ASP d   1      30.014 169.886  35.881  0.00  0.00     0.052 H 
ATOM    199 5H13 ASP d   1      28.218 169.866  35.831  0.00  0.00     0.052 H 
BRANCH 197 200
ATOM    200  CG  ASP d   1      29.062 171.212  37.256  0.00  0.00     0.174 C 
ATOM    201  OD1 ASP d   1      29.122 170.507  38.299  0.00  0.00    -0.648 OA
ATOM    202  OD2 ASP d   1      28.964 172.461  37.360  0.00  0.00    -0.648 OA
ENDBRANCH 197 200
ENDBRANCH 191 197
ENDBRANCH 189 191
ENDBRANCH 185 187
BRANCH 185 203
ATOM    203  CB  PHE d   1      25.665 170.275  31.527  0.00  0.00    -0.014 C 
ATOM    204 2H12 PHE d   1      25.541 171.319  31.204  0.00  0.00     0.043 H 
ATOM    205 3H12 PHE d   1      25.079 170.102  32.442  0.00  0.00     0.043 H 
BRANCH 203 206
ATOM    206  CG  PHE d   1      25.131 169.389  30.456  0.00  0.00    -0.056 A 
ATOM    207  CD1 PHE d   1      24.637 168.137  30.763  0.00  0.00    -0.077 A 
ATOM    208  CE1 PHE d   1      24.128 167.319  29.770  0.00  0.00    -0.082 A 
ATOM    209 4H12 PHE d   1      24.648 167.792  31.791  0.00  0.00     0.084 H 
ATOM    210  CZ  PHE d   1      24.123 167.757  28.445  0.00  0.00    -0.083 A 
ATOM    211 6H12 PHE d   1      23.734 166.341  30.020  0.00  0.00     0.083 H 
ATOM    212  CE2 PHE d   1      24.620 169.000  28.130  0.00  0.00    -0.082 A 
ATOM    213 8H12 PHE d   1      23.727 167.118  27.664  0.00  0.00     0.083 H 
ATOM    214  CD2 PHE d   1      25.118 169.810  29.134  0.00  0.00    -0.077 A 
ATOM    215 7H12 PHE d   1      24.621 169.343  27.102  0.00  0.00     0.083 H 
ATOM    216 5H12 PHE d   1      25.505 170.791  28.884  0.00  0.00     0.084 H 
ENDBRANCH 203 206
ENDBRANCH 185 203
ENDBRANCH 183 185
ENDBRANCH 179 181
BRANCH 179 217
ATOM    217  CB  LEU d   1      27.465 165.468  31.644  0.00  0.00    -0.035 C 
ATOM    218 1H11 LEU d   1      27.606 165.539  30.555  0.00  0.00     0.037 H 
ATOM    219 2H11 LEU d   1      26.417 165.690  31.894  0.00  0.00     0.037 H 
BRANCH 217 220
ATOM    220  CG  LEU d   1      27.800 164.054  32.101  0.00  0.00    -0.059 C 
ATOM    221 3H11 LEU d   1      27.710 164.001  33.196  0.00  0.00     0.038 H 
BRANCH 220 222
ATOM    222  CD1 LEU d   1      26.863 163.041  31.499  0.00  0.00    -0.073 C 
ATOM    223 4H11 LEU d   1      27.135 162.035  31.851  0.00  0.00     0.028 H 
ATOM    224 5H11 LEU d   1      26.938 163.078  30.402  0.00  0.00     0.028 H 
ATOM    225 6H11 LEU d   1      25.831 163.269  31.804  0.00  0.00     0.028 H 
ENDBRANCH 220 222
BRANCH 220 226
ATOM    226  CD2 LEU d   1      29.221 163.771  31.711  0.00  0.00    -0.073 C 
ATOM    227 7H11 LEU d   1      29.882 164.524  32.163  0.00  0.00     0.028 H 
ATOM    228 8H11 LEU d   1      29.316 163.810  30.616  0.00  0.00     0.028 H 
ATOM    229 9H11 LEU d   1      29.507 162.771  32.068  0.00  0.00     0.028 H 
ENDBRANCH 220 226
ENDBRANCH 217 220
ENDBRANCH 179 217
ENDBRANCH 177 179
ENDBRANCH 173 175
BRANCH 173 230
ATOM    230  CB  ASP d   1      29.370 166.041  36.750  0.00  0.00     0.043 C 
ATOM    231 7H10 ASP d   1      30.405 166.409  36.814  0.00  0.00     0.052 H 
ATOM    232 8H10 ASP d   1      29.342 165.128  36.136  0.00  0.00     0.052 H 
BRANCH 230 233
ATOM    233  CG  ASP d   1      28.891 165.697  38.152  0.00  0.00     0.175 C 
ATOM    234  OD1 ASP d   1      28.516 166.619  38.909  0.00  0.00    -0.648 OA
ATOM    235  OD2 ASP d   1      28.865 164.521  38.584  0.00  0.00    -0.648 OA
ENDBRANCH 230 233
ENDBRANCH 173 230
ENDBRANCH 171 173
ENDBRANCH 167 169
BRANCH 167 236
ATOM    236  CB  ARG d   1      24.180 167.752  37.613  0.00  0.00    -0.036 C 
ATOM    237  H94 ARG d   1      24.590 167.038  38.343  0.00  0.00     0.036 H 
ATOM    238  H95 ARG d   1      23.084 167.660  37.587  0.00  0.00     0.036 H 
BRANCH 236 239
ATOM    239  CG  ARG d   1      24.516 169.134  38.080  0.00  0.00    -0.048 C 
ATOM    240  H96 ARG d   1      23.639 169.557  38.592  0.00  0.00     0.035 H 
ATOM    241  H97 ARG d   1      24.764 169.752  37.205  0.00  0.00     0.035 H 
BRANCH 239 242
ATOM    242  CD  ARG d   1      25.680 169.150  39.026  0.00  0.00     0.009 C 
ATOM    243  H98 ARG d   1      26.593 169.420  38.475  0.00  0.00     0.064 H 
ATOM    244  H99 ARG d   1      25.802 168.151  39.470  0.00  0.00     0.064 H 
BRANCH 242 245
ATOM    245  NE  ARG d   1      25.451 170.120  40.081  0.00  0.00    -0.227 N 
ATOM    246  CZ  ARG d   1      26.073 170.115  41.246  0.00  0.00     0.665 C 
ATOM    247  NH1 ARG d   1      26.984 169.188  41.522  0.00  0.00    -0.235 N 
ATOM    248  NH2 ARG d   1      25.783 171.053  42.133  0.00  0.00    -0.235 N 
ATOM    249 1H10 ARG d   1      27.464 169.193  42.434  0.00  0.00     0.174 HD
ATOM    250 2H10 ARG d   1      27.211 168.465  40.825  0.00  0.00     0.174 HD
ATOM    251 3H10 ARG d   1      25.076 171.769  41.913  0.00  0.00     0.174 HD
ATOM    252 4H10 ARG d   1      26.264 171.067  43.044  0.00  0.00     0.174 HD
ATOM    253 0H10 ARG d   1      24.757 170.862  39.910  0.00  0.00     0.177 HD
ENDBRANCH 242 245
ENDBRANCH 239 242
ENDBRANCH 236 239
ENDBRANCH 167 236
ENDBRANCH 165 167
ENDBRANCH 161 163
BRANCH 161 254
ATOM    254  CB  ILE d   1      22.647 163.930  34.224  0.00  0.00    -0.030 C 
ATOM    255  H83 ILE d   1      22.391 162.875  34.046  0.00  0.00     0.043 H 
BRANCH 254 256
ATOM    256  CG1 ILE d   1      22.325 164.735  32.961  0.00  0.00    -0.063 C 
ATOM    257  H84 ILE d   1      22.646 165.774  33.123  0.00  0.00     0.033 H 
ATOM    258  H85 ILE d   1      21.237 164.708  32.802  0.00  0.00     0.033 H 
BRANCH 256 259
ATOM    259  CD1 ILE d   1      23.006 164.215  31.698  0.00  0.00    -0.076 C 
ATOM    260  H89 ILE d   1      22.723 164.846  30.843  0.00  0.00     0.027 H 
ATOM    261  H90 ILE d   1      22.688 163.179  31.510  0.00  0.00     0.027 H 
ATOM    262  H91 ILE d   1      24.098 164.245  31.831  0.00  0.00     0.027 H 
ENDBRANCH 256 259
ENDBRANCH 254 256
BRANCH 254 263
ATOM    263  CG2 ILE d   1      21.837 164.440  35.390  0.00  0.00    -0.071 C 
ATOM    264  H86 ILE d   1      22.078 163.853  36.289  0.00  0.00     0.028 H 
ATOM    265  H87 ILE d   1      20.765 164.340  35.164  0.00  0.00     0.028 H 
ATOM    266  H88 ILE d   1      22.077 165.499  35.568  0.00  0.00     0.028 H 
ENDBRANCH 254 263
ENDBRANCH 161 254
ENDBRANCH 159 161
ENDBRANCH 154 157
ENDBRANCH 152 154
ENDBRANCH 148 150
BRANCH 148 267
ATOM    267  CB  GLU d   1      29.922 160.765  37.752  0.00  0.00    -0.029 C 
ATOM    268  H74 GLU d   1      29.413 161.046  36.818  0.00  0.00     0.037 H 
ATOM    269  H75 GLU d   1      29.992 159.669  37.816  0.00  0.00     0.037 H 
BRANCH 267 270
ATOM    270  CG  GLU d   1      31.344 161.328  37.703  0.00  0.00     0.018 C 
ATOM    271  H76 GLU d   1      31.720 161.415  38.733  0.00  0.00     0.049 H 
ATOM    272  H77 GLU d   1      31.308 162.325  37.240  0.00  0.00     0.049 H 
BRANCH 270 273
ATOM    273  CD  GLU d   1      32.315 160.458  36.904  0.00  0.00     0.172 C 
ATOM    274  OE1 GLU d   1      33.318 161.012  36.393  0.00  0.00    -0.648 OA
ATOM    275  OE2 GLU d   1      32.079 159.221  36.804  0.00  0.00    -0.648 OA
ENDBRANCH 270 273
ENDBRANCH 267 270
ENDBRANCH 148 267
ENDBRANCH 146 148
ENDBRANCH 141 144
ENDBRANCH 139 141
ENDBRANCH   1 137
BRANCH   1 276
ATOM    276  CB  GLU d   1      28.793 155.870  43.048  0.00  0.00    -0.029 C 
ATOM    277  H65 GLU d   1      28.271 156.388  43.866  0.00  0.00     0.037 H 
ATOM    278  H66 GLU d   1      29.859 155.767  43.301  0.00  0.00     0.037 H 
BRANCH 276 279
ATOM    279  CG  GLU d   1      28.193 154.464  42.908  0.00  0.00     0.018 C 
ATOM    280  H67 GLU d   1      28.863 153.860  42.278  0.00  0.00     0.049 H 
ATOM    281  H68 GLU d   1      27.211 154.551  42.421  0.00  0.00     0.049 H 
BRANCH 279 282
ATOM    282  CD  GLU d   1      28.009 153.747  44.246  0.00  0.00     0.172 C 
ATOM    283  OE1 GLU d   1      27.676 154.413  45.253  0.00  0.00    -0.648 OA
ATOM    284  OE2 GLU d   1      28.188 152.512  44.291  0.00  0.00    -0.648 OA
ENDBRANCH 279 282
ENDBRANCH 276 279
ENDBRANCH   1 276
TORSDOF 80
