REMARK WARNING: 32 MAX_TORS EXCEEDED!!!
REMARK  35 active torsions:
REMARK  status: ('A' for Active; 'I' for Inactive)
REMARK    1  A    between atoms: CA_2  and  N_1 
REMARK    2  A    between atoms: CA_2  and  CB_5 
REMARK    3  A    between atoms: C_3  and  CA_2 
REMARK       I    between atoms: N_9  and  C_3 
REMARK    4  A    between atoms: CB_5  and  CG_6 
REMARK    5  A    between atoms: CA_10  and  N_9 
REMARK    6  A    between atoms: CA_10  and  CB_13 
REMARK    7  A    between atoms: C_11  and  CA_10 
REMARK       I    between atoms: N_15  and  C_11 
REMARK    8  A    between atoms: CB_13  and  OG_14 
REMARK    9  A    between atoms: CA_16  and  N_15 
REMARK   10  A    between atoms: C_17  and  CA_16 
REMARK       I    between atoms: N_19  and  C_17 
REMARK   11  A    between atoms: CA_20  and  N_19 
REMARK   12  A    between atoms: CA_20  and  CB_23 
REMARK   13  A    between atoms: C_21  and  CA_20 
REMARK       I    between atoms: N_30  and  C_21 
REMARK   14  A    between atoms: CB_23  and  CG_24 
REMARK   15  A    between atoms: CA_31  and  N_30 
REMARK   16  A    between atoms: CA_31  and  CB_34 
REMARK   17  A    between atoms: C_32  and  CA_31 
REMARK       I    between atoms: N_36  and  C_32 
REMARK   18  A    between atoms: CB_34  and  OG_35 
REMARK   19  A    between atoms: CA_37  and  N_36 
REMARK   20  A    between atoms: CA_37  and  CB_40 
REMARK   21  A    between atoms: C_38  and  CA_37 
REMARK       I    between atoms: N_47  and  C_38 
REMARK   22  A    between atoms: CB_40  and  CG_41 
REMARK   23  A    between atoms: CA_48  and  N_47 
REMARK   24  A    between atoms: C_49  and  CA_48 
REMARK       I    between atoms: N_51  and  C_49 
REMARK   25  A    between atoms: CA_52  and  N_51 
REMARK   26  A    between atoms: CA_52  and  CB_55 
REMARK   27  A    between atoms: C_53  and  CA_52 
REMARK       I    between atoms: C_53  and  N_57 
REMARK   28  A    between atoms: CB_55  and  OG_56 
REMARK   29  A    between atoms: N_57  and  CA_58 
REMARK   30  A    between atoms: CA_58  and  CB_61 
REMARK   31  A    between atoms: CA_58  and  C_59 
REMARK   32  A    between atoms: CB_61  and  CG_62 
REMARK   33  A    between atoms: CG_62  and  CD_63 
REMARK   34  A    between atoms: CD_63  and  CE_64 
REMARK   35  A    between atoms: CE_64  and  NZ_65 
ROOT
ATOM      1  C   SER d   1      -1.953  35.139  -6.895  0.00  0.00     0.243 C 
ATOM      2  O   SER d   1      -1.597  34.275  -7.727  0.00  0.00    -0.271 OA
ATOM      3  N   PHE d   1      -2.223  34.881  -5.643  0.00  0.00    -0.346 N 
ATOM      4  H29 PHE d   1      -2.451  35.636  -5.028  0.00  0.00     0.163 HD
ENDROOT
BRANCH   1   5
ATOM      5  CA  SER d   1      -2.108  36.586  -7.307  0.00  0.00     0.109 C 
ATOM      6  H25 SER d   1      -1.797  37.192  -6.443  0.00  0.00     0.090 H 
BRANCH   5   7
ATOM      7  N   SER d   1      -1.203  36.913  -8.377  0.00  0.00    -0.344 N 
ATOM      8  C   PHE d   1      -0.509  38.063  -8.342  0.00  0.00     0.241 C 
ATOM      9  O   PHE d   1      -0.723  38.940  -7.548  0.00  0.00    -0.271 OA
ATOM     10  H24 SER d   1      -1.091  36.284  -9.147  0.00  0.00     0.163 HD
BRANCH   8  11
ATOM     11  CA  PHE d   1       0.574  38.240  -9.365  0.00  0.00     0.093 C 
ATOM     12  H16 PHE d   1       0.432  37.481 -10.148  0.00  0.00     0.088 H 
BRANCH  11  13
ATOM     13  N   PHE d   1       0.505  39.565  -9.989  0.00  0.00    -0.346 N 
ATOM     14  C   GLY d   1      -0.350  39.831 -10.952  0.00  0.00     0.236 C 
ATOM     15  O   GLY d   1      -1.140  38.999 -11.384  0.00  0.00    -0.272 OA
ATOM     16  H15 PHE d   1       1.124  40.285  -9.674  0.00  0.00     0.163 HD
BRANCH  14  17
ATOM     17  CA  GLY d   1      -0.259  41.228 -11.546  0.00  0.00     0.069 C 
ATOM     18  H13 GLY d   1      -0.042  41.945 -10.741  0.00  0.00     0.078 H 
ATOM     19  H14 GLY d   1       0.555  41.249 -12.285  0.00  0.00     0.078 H 
BRANCH  17  20
ATOM     20  N   GLY d   1      -1.478  41.607 -12.188  0.00  0.00    -0.350 N 
ATOM     21  C   SER d   1      -2.373  42.403 -11.629  0.00  0.00     0.242 C 
ATOM     22  O   SER d   1      -2.284  42.810 -10.460  0.00  0.00    -0.271 OA
ATOM     23  H12 GLY d   1      -1.663  41.253 -13.105  0.00  0.00     0.163 HD
BRANCH  21  24
ATOM     24  CA  SER d   1      -3.490  42.843 -12.575  0.00  0.00     0.109 C 
ATOM     25  H8  SER d   1      -3.646  42.049 -13.320  0.00  0.00     0.090 H 
BRANCH  24  26
ATOM     26  N   SER d   1      -4.754  43.046 -11.859  0.00  0.00    -0.344 N 
ATOM     27  C   ASP d   1      -5.567  42.024 -11.578  0.00  0.00     0.249 C 
ATOM     28  O   ASP d   1      -5.394  40.881 -12.033  0.00  0.00    -0.271 OA
ATOM     29  H7  SER d   1      -5.013  43.969 -11.575  0.00  0.00     0.163 HD
BRANCH  27  30
ATOM     30  CA  ASP d   1      -6.768  42.330 -10.685  0.00  0.00     0.185 C 
ATOM     31  H4  ASP d   1      -6.460  42.188  -9.639  0.00  0.00     0.100 H 
BRANCH  30  32
ATOM     32  N   ASP d   1      -7.197  43.748 -10.846  0.00  0.00    -0.066 N 
ATOM     33  H1  ASP d   1      -7.989  43.929 -10.249  0.00  0.00     0.275 HD
ATOM     34  H2  ASP d   1      -7.455  43.914 -11.806  0.00  0.00     0.275 HD
ATOM     35  H3  ASP d   1      -6.438  44.360 -10.591  0.00  0.00     0.275 HD
ENDBRANCH  30  32
BRANCH  30  36
ATOM     36  CB  ASP d   1      -7.918  41.351 -10.977  0.00  0.00     0.050 C 
ATOM     37  H5  ASP d   1      -7.633  40.354 -10.609  0.00  0.00     0.052 H 
ATOM     38  H6  ASP d   1      -8.076  41.309 -12.065  0.00  0.00     0.052 H 
BRANCH  36  39
ATOM     39  CG  ASP d   1      -9.224  41.758 -10.312  0.00  0.00     0.175 C 
ATOM     40  OD1 ASP d   1      -9.220  42.743  -9.524  0.00  0.00    -0.648 OA
ATOM     41  OD2 ASP d   1     -10.315  41.155 -10.523  0.00  0.00    -0.648 OA
ENDBRANCH  36  39
ENDBRANCH  30  36
ENDBRANCH  27  30
ENDBRANCH  24  26
BRANCH  24  42
ATOM     42  CB  SER d   1      -3.049  44.144 -13.324  0.00  0.00     0.044 C 
ATOM     43  H9  SER d   1      -3.813  44.414 -14.068  0.00  0.00     0.077 H 
ATOM     44  H10 SER d   1      -2.090  43.966 -13.832  0.00  0.00     0.077 H 
BRANCH  42  45
ATOM     45  OG  SER d   1      -2.903  45.188 -12.411  0.00  0.00    -0.398 OA
ATOM     46  H11 SER d   1      -2.243  44.956 -11.769  0.00  0.00     0.209 HD
ENDBRANCH  42  45
ENDBRANCH  24  42
ENDBRANCH  21  24
ENDBRANCH  17  20
ENDBRANCH  14  17
ENDBRANCH  11  13
BRANCH  11  47
ATOM     47  CB  PHE d   1       1.950  38.035  -8.740  0.00  0.00    -0.014 C 
ATOM     48  H17 PHE d   1       2.023  38.648  -7.830  0.00  0.00     0.043 H 
ATOM     49  H18 PHE d   1       2.719  38.354  -9.459  0.00  0.00     0.043 H 
BRANCH  47  50
ATOM     50  CG  PHE d   1       2.190  36.593  -8.377  0.00  0.00    -0.056 A 
ATOM     51  CD1 PHE d   1       2.674  35.702  -9.324  0.00  0.00    -0.077 A 
ATOM     52  CE1 PHE d   1       2.858  34.378  -9.030  0.00  0.00    -0.082 A 
ATOM     53  H19 PHE d   1       2.912  36.062 -10.318  0.00  0.00     0.084 H 
ATOM     54  CZ  PHE d   1       2.570  33.927  -7.746  0.00  0.00    -0.083 A 
ATOM     55  H21 PHE d   1       3.222  33.692  -9.786  0.00  0.00     0.083 H 
ATOM     56  CE2 PHE d   1       2.102  34.795  -6.816  0.00  0.00    -0.082 A 
ATOM     57  H23 PHE d   1       2.719  32.884  -7.490  0.00  0.00     0.083 H 
ATOM     58  CD2 PHE d   1       1.894  36.106  -7.115  0.00  0.00    -0.077 A 
ATOM     59  H22 PHE d   1       1.889  34.438  -5.815  0.00  0.00     0.083 H 
ATOM     60  H20 PHE d   1       1.494  36.773  -6.360  0.00  0.00     0.084 H 
ENDBRANCH  47  50
ENDBRANCH  11  47
ENDBRANCH   8  11
ENDBRANCH   5   7
BRANCH   5  61
ATOM     61  CB  SER d   1      -3.476  36.949  -7.571  0.00  0.00     0.044 C 
ATOM     62  H26 SER d   1      -3.530  37.993  -7.913  0.00  0.00     0.077 H 
ATOM     63  H27 SER d   1      -4.081  36.830  -6.660  0.00  0.00     0.077 H 
BRANCH  61  64
ATOM     64  OG  SER d   1      -3.911  36.148  -8.505  0.00  0.00    -0.398 OA
ATOM     65  H28 SER d   1      -3.854  35.250  -8.202  0.00  0.00     0.209 HD
ENDBRANCH  61  64
ENDBRANCH   5  61
ENDBRANCH   1   5
BRANCH   3  66
ATOM     66  CA  PHE d   1      -2.199  33.509  -5.117  0.00  0.00     0.093 C 
ATOM     67  H30 PHE d   1      -1.502  32.907  -5.718  0.00  0.00     0.088 H 
BRANCH  66  68
ATOM     68  CB  PHE d   1      -1.728  33.557  -3.664  0.00  0.00    -0.014 C 
ATOM     69  H31 PHE d   1      -1.843  32.552  -3.231  0.00  0.00     0.043 H 
ATOM     70  H32 PHE d   1      -2.367  34.267  -3.118  0.00  0.00     0.043 H 
BRANCH  68  71
ATOM     71  CG  PHE d   1      -0.297  33.983  -3.491  0.00  0.00    -0.056 A 
ATOM     72  CD1 PHE d   1       0.027  35.337  -3.357  0.00  0.00    -0.077 A 
ATOM     73  CE1 PHE d   1       1.349  35.708  -3.155  0.00  0.00    -0.082 A 
ATOM     74  H33 PHE d   1      -0.749  36.092  -3.411  0.00  0.00     0.084 H 
ATOM     75  CZ  PHE d   1       2.339  34.779  -3.062  0.00  0.00    -0.083 A 
ATOM     76  H35 PHE d   1       1.598  36.760  -3.070  0.00  0.00     0.083 H 
ATOM     77  CE2 PHE d   1       2.049  33.437  -3.192  0.00  0.00    -0.082 A 
ATOM     78  H37 PHE d   1       3.361  35.095  -2.885  0.00  0.00     0.083 H 
ATOM     79  CD2 PHE d   1       0.719  33.048  -3.389  0.00  0.00    -0.077 A 
ATOM     80  H36 PHE d   1       2.838  32.696  -3.142  0.00  0.00     0.083 H 
ATOM     81  H34 PHE d   1       0.480  31.993  -3.463  0.00  0.00     0.084 H 
ENDBRANCH  68  71
ENDBRANCH  66  68
BRANCH  66  82
ATOM     82  C   PHE d   1      -3.574  32.853  -5.142  0.00  0.00     0.241 C 
ATOM     83  O   PHE d   1      -4.553  33.449  -4.898  0.00  0.00    -0.271 OA
ATOM     84  N   GLY d   1      -3.654  31.562  -5.253  0.00  0.00    -0.351 N 
ATOM     85  H38 GLY d   1      -2.788  31.067  -5.319  0.00  0.00     0.163 HD
BRANCH  84  86
ATOM     86  CA  GLY d   1      -4.888  30.739  -5.293  0.00  0.00     0.069 C 
ATOM     87  H39 GLY d   1      -5.450  30.944  -4.370  0.00  0.00     0.078 H 
ATOM     88  H40 GLY d   1      -4.579  29.683  -5.308  0.00  0.00     0.078 H 
BRANCH  86  89
ATOM     89  C   GLY d   1      -5.841  30.951  -6.462  0.00  0.00     0.236 C 
ATOM     90  O   GLY d   1      -5.645  31.816  -7.350  0.00  0.00    -0.272 OA
ATOM     91  N   SER d   1      -6.929  30.184  -6.458  0.00  0.00    -0.344 N 
ATOM     92  H41 SER d   1      -7.159  29.668  -5.633  0.00  0.00     0.163 HD
BRANCH  91  93
ATOM     93  CA  SER d   1      -7.792  30.078  -7.625  0.00  0.00     0.109 C 
ATOM     94  H42 SER d   1      -7.149  30.016  -8.515  0.00  0.00     0.090 H 
BRANCH  93  95
ATOM     95  CB  SER d   1      -8.585  28.800  -7.473  0.00  0.00     0.044 C 
ATOM     96  H43 SER d   1      -7.880  27.959  -7.391  0.00  0.00     0.077 H 
ATOM     97  H44 SER d   1      -9.210  28.668  -8.368  0.00  0.00     0.077 H 
BRANCH  95  98
ATOM     98  OG  SER d   1      -9.444  28.795  -6.308  0.00  0.00    -0.398 OA
ATOM     99  H45 SER d   1      -9.914  27.971  -6.266  0.00  0.00     0.209 HD
ENDBRANCH  95  98
ENDBRANCH  93  95
BRANCH  93 100
ATOM    100  C   SER d   1      -8.798  31.203  -7.852  0.00  0.00     0.243 C 
ATOM    101  O   SER d   1      -9.448  31.239  -8.891  0.00  0.00    -0.271 OA
ATOM    102  N   LYS d   1      -8.891  32.156  -6.928  0.00  0.00    -0.345 N 
ATOM    103  H46 LYS d   1      -8.283  32.143  -6.134  0.00  0.00     0.163 HD
BRANCH 102 104
ATOM    104  CA  LYS d   1      -9.887  33.229  -7.072  0.00  0.00     0.096 C 
ATOM    105  H47 LYS d   1     -10.886  32.771  -7.112  0.00  0.00     0.089 H 
BRANCH 104 106
ATOM    106  CB  LYS d   1      -9.827  34.163  -5.878  0.00  0.00    -0.037 C 
ATOM    107  H48 LYS d   1      -8.931  34.794  -5.979  0.00  0.00     0.036 H 
ATOM    108  H49 LYS d   1      -9.744  33.552  -4.967  0.00  0.00     0.036 H 
BRANCH 106 109
ATOM    109  CG  LYS d   1     -11.048  35.083  -5.730  0.00  0.00    -0.061 C 
ATOM    110  H50 LYS d   1     -11.958  34.467  -5.678  0.00  0.00     0.033 H 
ATOM    111  H51 LYS d   1     -11.105  35.749  -6.604  0.00  0.00     0.033 H 
BRANCH 109 112
ATOM    112  CD  LYS d   1     -10.945  35.929  -4.463  0.00  0.00    -0.043 C 
ATOM    113  H52 LYS d   1     -11.815  36.600  -4.418  0.00  0.00     0.035 H 
ATOM    114  H53 LYS d   1     -10.023  36.527  -4.515  0.00  0.00     0.035 H 
BRANCH 112 115
ATOM    115  CE  LYS d   1     -10.910  35.084  -3.174  0.00  0.00     0.080 C 
ATOM    116  H54 LYS d   1     -10.368  34.150  -3.385  0.00  0.00     0.075 H 
ATOM    117  H55 LYS d   1     -11.945  34.850  -2.883  0.00  0.00     0.075 H 
BRANCH 115 118
ATOM    118  NZ  LYS d   1     -10.223  35.789  -1.999  0.00  0.00    -0.079 N 
ATOM    119  H56 LYS d   1     -10.234  35.185  -1.192  0.00  0.00     0.274 HD
ATOM    120  H57 LYS d   1     -10.714  36.643  -1.786  0.00  0.00     0.274 HD
ATOM    121  H58 LYS d   1      -9.269  36.002  -2.246  0.00  0.00     0.274 HD
ENDBRANCH 115 118
ENDBRANCH 112 115
ENDBRANCH 109 112
ENDBRANCH 106 109
ENDBRANCH 104 106
BRANCH 104 122
ATOM    122  C   LYS d   1      -9.670  34.025  -8.351  0.00  0.00     0.196 C 
ATOM    123  O   LYS d   1      -8.535  34.310  -8.712  0.00  0.00    -0.646 OA
ATOM    124  OXT LYS d   1     -10.614  34.389  -9.074  0.00  0.00    -0.646 OA
ENDBRANCH 104 122
ENDBRANCH 102 104
ENDBRANCH  93 100
ENDBRANCH  91  93
ENDBRANCH  86  89
ENDBRANCH  84  86
ENDBRANCH  66  82
ENDBRANCH   3  66
TORSDOF 35
