REMARK  3 active torsions:
REMARK  status: ('A' for Active; 'I' for Inactive)
REMARK    1  A    between atoms: N1_2  and  C1_4 
REMARK    2  A    between atoms: C4_8  and  C5_9 
REMARK    3  A    between atoms: N2_10  and  N3_11 
ROOT
ATOM      1  C5  FUR d   1      36.926  53.786  77.340  0.00  0.00     0.055 C 
ATOM      2  N2  FUR d   1      36.113  53.985  76.443  0.00  0.00    -0.173 NA
ATOM      3  H3  FUR d   1      37.506  53.072  76.756  0.00  0.00     0.121 H 
ENDROOT
BRANCH   1   4
ATOM      4  C4  FUR d   1      37.669  53.693  78.350  0.00  0.00     0.097 A 
ATOM      5  O1  FUR d   1      37.895  54.649  79.489  0.00  0.00    -0.287 OA
ATOM      6  C1  FUR d   1      38.911  53.929  80.337  0.00  0.00     0.215 A 
ATOM      7  C2  FUR d   1      39.026  52.921  79.650  0.00  0.00    -0.025 A 
ATOM      8  C3  FUR d   1      38.444  52.815  78.703  0.00  0.00    -0.044 A 
ATOM      9  H1  FUR d   1      39.699  52.125  79.965  0.00  0.00     0.090 H 
ATOM     10  H2  FUR d   1      38.567  51.924  78.089  0.00  0.00     0.088 H 
BRANCH   6  11
ATOM     11  N1  FUR d   1      39.491  54.283  81.483  0.00  0.00    -0.090 N 
ATOM     12  O3  FUR d   1      40.594  53.850  81.777  0.00  0.00    -0.530 OA
ATOM     13  O2  FUR d   1      38.917  55.046  82.242  0.00  0.00    -0.530 OA
ENDBRANCH   6  11
ENDBRANCH   1   4
BRANCH   2  14
ATOM     14  N3  FUR d   1      35.694  52.944  75.582  0.00  0.00    -0.186 N 
ATOM     15  C8  FUR d   1      34.570  53.024  74.898  0.00  0.00     0.392 A 
ATOM     16  O5  FUR d   1      33.756  53.934  74.890  0.00  0.00    -0.236 OA
ATOM     17  O4  FUR d   1      34.433  51.816  74.119  0.00  0.00    -0.271 OA
ATOM     18  C7  FUR d   1      35.563  50.972  74.370  0.00  0.00     0.041 A 
ATOM     19  C6  FUR d   1      36.458  51.721  75.373  0.00  0.00     0.031 A 
ATOM     20  H5  FUR d   1      35.752  49.991  73.936  0.00  0.00     0.126 H 
ATOM     21  H4  FUR d   1      37.408  51.418  75.810  0.00  0.00     0.118 H 
ENDBRANCH   2  14
TORSDOF 3
