REMARK  17 active torsions:
REMARK  status: ('A' for Active; 'I' for Inactive)
REMARK    1  A    between atoms: CA_2  and  N_1 
REMARK    2  A    between atoms: CA_2  and  CB_5 
REMARK    3  A    between atoms: C_3  and  CA_2 
REMARK       I    between atoms: N_9  and  C_3 
REMARK    4  A    between atoms: CB_5  and  CG_6 
REMARK    5  A    between atoms: CA_10  and  N_9 
REMARK    6  A    between atoms: CA_10  and  CB_13 
REMARK    7  A    between atoms: C_11  and  CA_10 
REMARK       I    between atoms: N_15  and  C_11 
REMARK    8  A    between atoms: CB_13  and  OG_14 
REMARK    9  A    between atoms: CA_16  and  N_15 
REMARK   10  A    between atoms: CA_16  and  CB_19 
REMARK   11  A    between atoms: C_17  and  CA_16 
REMARK       I    between atoms: C_17  and  N_22 
REMARK   12  A    between atoms: CB_19  and  CG2_21 
REMARK   13  A    between atoms: CB_19  and  CG1_20 
REMARK   14  A    between atoms: N_22  and  CA_23 
REMARK   15  A    between atoms: CA_23  and  CB_26 
REMARK   16  A    between atoms: CA_23  and  C_24 
REMARK   17  A    between atoms: CB_26  and  CG_27 
ROOT
ATOM      1  CA  VAL d   1      23.740  12.776  13.477  0.00  0.00     0.092 C 
ATOM      2  H13 VAL d   1      23.349  12.286  12.573  0.00  0.00     0.088 H 
ENDROOT
BRANCH   1   3
ATOM      3  N   VAL d   1      24.441  13.996  13.075  0.00  0.00    -0.346 N 
ATOM      4  C   SER d   1      24.329  14.496  11.858  0.00  0.00     0.243 C 
ATOM      5  O   SER d   1      23.764  13.885  10.946  0.00  0.00    -0.271 OA
ATOM      6  H12 VAL d   1      25.021  14.464  13.741  0.00  0.00     0.163 HD
BRANCH   4   7
ATOM      7  CA  SER d   1      24.959  15.906  11.714  0.00  0.00     0.109 C 
ATOM      8  H8  SER d   1      25.707  16.023  12.512  0.00  0.00     0.090 H 
BRANCH   7   9
ATOM      9  N   SER d   1      25.624  16.029  10.435  0.00  0.00    -0.344 N 
ATOM     10  C   ASP d   1      26.851  15.596  10.250  0.00  0.00     0.249 C 
ATOM     11  O   ASP d   1      27.418  15.005  11.135  0.00  0.00    -0.271 OA
ATOM     12  H7  SER d   1      25.137  16.454   9.672  0.00  0.00     0.163 HD
BRANCH  10  13
ATOM     13  CA  ASP d   1      27.397  15.844   8.864  0.00  0.00     0.185 C 
ATOM     14  H4  ASP d   1      27.131  16.854   8.518  0.00  0.00     0.100 H 
BRANCH  13  15
ATOM     15  N   ASP d   1      28.869  15.698   8.923  0.00  0.00    -0.066 N 
ATOM     16  H1  ASP d   1      29.259  15.859   8.008  0.00  0.00     0.275 HD
ATOM     17  H2  ASP d   1      29.102  14.766   9.229  0.00  0.00     0.275 HD
ATOM     18  H3  ASP d   1      29.247  16.369   9.573  0.00  0.00     0.275 HD
ENDBRANCH  13  15
BRANCH  13  19
ATOM     19  CB  ASP d   1      26.801  14.803   7.938  0.00  0.00     0.050 C 
ATOM     20  H5  ASP d   1      25.707  14.828   8.049  0.00  0.00     0.052 H 
ATOM     21  H6  ASP d   1      27.178  13.815   8.241  0.00  0.00     0.052 H 
BRANCH  19  22
ATOM     22  CG  ASP d   1      27.133  15.010   6.483  0.00  0.00     0.175 C 
ATOM     23  OD1 ASP d   1      28.267  15.431   6.077  0.00  0.00    -0.648 OA
ATOM     24  OD2 ASP d   1      26.271  14.685   5.657  0.00  0.00    -0.648 OA
ENDBRANCH  19  22
ENDBRANCH  13  19
ENDBRANCH  10  13
ENDBRANCH   7   9
BRANCH   7  25
ATOM     25  CB  SER d   1      23.930  17.044  11.853  0.00  0.00     0.044 C 
ATOM     26  H9  SER d   1      23.367  16.900  12.787  0.00  0.00     0.077 H 
ATOM     27  H10 SER d   1      23.239  17.002  10.998  0.00  0.00     0.077 H 
BRANCH  25  28
ATOM     28  OG  SER d   1      24.551  18.343  11.883  0.00  0.00    -0.398 OA
ATOM     29  H11 SER d   1      25.145  18.392  12.623  0.00  0.00     0.209 HD
ENDBRANCH  25  28
ENDBRANCH   7  25
ENDBRANCH   4   7
ENDBRANCH   1   3
BRANCH   1  30
ATOM     30  CB  VAL d   1      24.655  11.739  14.207  0.00  0.00    -0.033 C 
ATOM     31  H14 VAL d   1      25.420  11.412  13.487  0.00  0.00     0.042 H 
BRANCH  30  32
ATOM     32  CG2 VAL d   1      23.860  10.536  14.639  0.00  0.00    -0.071 C 
ATOM     33  H18 VAL d   1      23.333  10.114  13.771  0.00  0.00     0.028 H 
ATOM     34  H19 VAL d   1      23.128  10.836  15.403  0.00  0.00     0.028 H 
ATOM     35  H20 VAL d   1      24.539   9.779  15.059  0.00  0.00     0.028 H 
ENDBRANCH  30  32
BRANCH  30  36
ATOM     36  CG1 VAL d   1      25.353  12.285  15.394  0.00  0.00    -0.071 C 
ATOM     37  H15 VAL d   1      25.973  11.498  15.849  0.00  0.00     0.028 H 
ATOM     38  H16 VAL d   1      24.611  12.636  16.126  0.00  0.00     0.028 H 
ATOM     39  H17 VAL d   1      25.993  13.126  15.088  0.00  0.00     0.028 H 
ENDBRANCH  30  36
ENDBRANCH   1  30
BRANCH   1  40
ATOM     40  C   VAL d   1      22.568  13.218  14.334  0.00  0.00     0.241 C 
ATOM     41  O   VAL d   1      22.679  14.130  15.124  0.00  0.00    -0.271 OA
ATOM     42  N   PHE d   1      21.494  12.464  14.198  0.00  0.00    -0.344 N 
ATOM     43  H21 PHE d   1      21.526  11.706  13.546  0.00  0.00     0.163 HD
BRANCH  42  44
ATOM     44  CA  PHE d   1      20.248  12.680  14.957  0.00  0.00     0.100 C 
ATOM     45  H22 PHE d   1      20.447  13.424  15.742  0.00  0.00     0.090 H 
BRANCH  44  46
ATOM     46  CB  PHE d   1      19.157  13.220  14.041  0.00  0.00    -0.013 C 
ATOM     47  H23 PHE d   1      18.222  13.310  14.613  0.00  0.00     0.043 H 
ATOM     48  H24 PHE d   1      19.010  12.518  13.207  0.00  0.00     0.043 H 
BRANCH  46  49
ATOM     49  CG  PHE d   1      19.516  14.547  13.494  0.00  0.00    -0.056 A 
ATOM     50  CD1 PHE d   1      20.166  14.663  12.290  0.00  0.00    -0.077 A 
ATOM     51  CE1 PHE d   1      20.562  15.901  11.849  0.00  0.00    -0.082 A 
ATOM     52  H25 PHE d   1      20.365  13.782  11.691  0.00  0.00     0.084 H 
ATOM     53  CZ  PHE d   1      20.358  16.975  12.588  0.00  0.00    -0.083 A 
ATOM     54  H27 PHE d   1      21.047  15.997  10.884  0.00  0.00     0.083 H 
ATOM     55  CE2 PHE d   1      19.724  16.875  13.797  0.00  0.00    -0.082 A 
ATOM     56  H29 PHE d   1      20.695  17.943  12.235  0.00  0.00     0.083 H 
ATOM     57  CD2 PHE d   1      19.296  15.687  14.238  0.00  0.00    -0.077 A 
ATOM     58  H28 PHE d   1      19.568  17.762  14.400  0.00  0.00     0.083 H 
ATOM     59  H26 PHE d   1      18.773  15.620  15.185  0.00  0.00     0.084 H 
ENDBRANCH  46  49
ENDBRANCH  44  46
BRANCH  44  60
ATOM     60  C   PHE d   1      19.776  11.414  15.612  0.00  0.00     0.197 C 
ATOM     61  O   PHE d   1      20.269  10.347  15.214  0.00  0.00    -0.646 OA
ATOM     62  OXT PHE d   1      18.951  11.525  16.501  0.00  0.00    -0.646 OA
ENDBRANCH  44  60
ENDBRANCH  42  44
ENDBRANCH   1  40
TORSDOF 17
