REMARK  10 active torsions:
REMARK  status: ('A' for Active; 'I' for Inactive)
REMARK    1  A    between atoms: C2_1  and  O2_7 
REMARK    2  A    between atoms: C3_2  and  O3_8 
REMARK    3  A    between atoms: C4_3  and  O4_9 
REMARK    4  A    between atoms: C5_4  and  C6_5 
REMARK    5  A    between atoms: C6_5  and  O6_11 
REMARK    6  A    between atoms: C1_6  and  O4_12 
REMARK    7  A    between atoms: O4_12  and  C4_13 
REMARK    8  A    between atoms: C3_14  and  O3_15 
REMARK    9  A    between atoms: C5_19  and  C6_20 
REMARK   10  A    between atoms: C6_20  and  O6_21 
ROOT
ATOM      1  O4  IFM d   1       8.554  -8.418  10.574  0.00  0.00    -0.350 OA
ENDROOT
BRANCH   1   2
ATOM      2  C1  BGC d   1       7.371  -7.706  10.506  0.00  0.00     0.159 C 
ATOM      3  C2  BGC d   1       6.215  -8.713  10.505  0.00  0.00     0.110 C 
ATOM      4  C3  BGC d   1       4.903  -7.979  10.506  0.00  0.00     0.092 C 
ATOM      5  H1  IFM d   1       6.277  -9.337  11.409  0.00  0.00     0.094 H 
ATOM      6  C4  BGC d   1       4.826  -6.926  11.580  0.00  0.00     0.090 C 
ATOM      7  H2  IFM d   1       4.790  -7.474   9.535  0.00  0.00     0.091 H 
ATOM      8  C5  BGC d   1       6.104  -6.078  11.639  0.00  0.00     0.089 C 
ATOM      9  H3  IFM d   1       4.698  -7.423  12.553  0.00  0.00     0.091 H 
ATOM     10  O5  BGC d   1       7.264  -6.918  11.668  0.00  0.00    -0.348 OA
ATOM     11  H4  IFM d   1       6.131  -5.435  10.747  0.00  0.00     0.090 H 
ATOM     12  H7  IFM d   1       7.344  -7.077   9.604  0.00  0.00     0.133 H 
BRANCH   3  13
ATOM     13  O2  BGC d   1       6.316  -9.548   9.354  0.00  0.00    -0.388 OA
ATOM     14  H8  IFM d   1       7.144 -10.014   9.374  0.00  0.00     0.210 HD
ENDBRANCH   3  13
BRANCH   4  15
ATOM     15  O3  BGC d   1       3.860  -8.932  10.644  0.00  0.00    -0.390 OA
ATOM     16  H9  IFM d   1       3.020  -8.493  10.578  0.00  0.00     0.210 HD
ENDBRANCH   4  15
BRANCH   6  17
ATOM     17  O4  BGC d   1       3.704  -6.117  11.331  0.00  0.00    -0.390 OA
ATOM     18  H10 IFM d   1       3.616  -5.476  12.027  0.00  0.00     0.210 HD
ENDBRANCH   6  17
BRANCH   8  19
ATOM     19  C6  BGC d   1       6.203  -5.214  12.881  0.00  0.00     0.043 C 
ATOM     20  H5  IFM d   1       5.303  -4.586  12.958  0.00  0.00     0.078 H 
ATOM     21  H6  IFM d   1       7.093  -4.572  12.805  0.00  0.00     0.078 H 
BRANCH  19  22
ATOM     22  O6  BGC d   1       6.308  -6.014  14.031  0.00  0.00    -0.398 OA
ATOM     23  H11 IFM d   1       6.369  -5.457  14.798  0.00  0.00     0.209 HD
ENDBRANCH  19  22
ENDBRANCH   8  19
ENDBRANCH   1   2
BRANCH   1  24
ATOM     24  C4  IFM d   1       9.733  -7.636  10.353  0.00  0.00     0.075 C 
ATOM     25  C3  IFM d   1      10.808  -8.362  11.122  0.00  0.00     0.084 C 
ATOM     26  C2  IFM d   1      12.159  -8.175  10.497  0.00  0.00     0.107 C 
ATOM     27  H13 IFM d   1      10.581  -9.438  11.152  0.00  0.00     0.089 H 
ATOM     28  N   IFM d   1      12.142  -8.821   9.159  0.00  0.00    -0.072 N 
ATOM     29  H15 IFM d   1      12.929  -8.643  11.127  0.00  0.00     0.079 H 
ATOM     30  H16 IFM d   1      12.375  -7.102  10.390  0.00  0.00     0.079 H 
ATOM     31  C1  IFM d   1      10.996  -8.487   8.317  0.00  0.00     0.089 C 
ATOM     32  H17 IFM d   1      12.147  -9.820   9.296  0.00  0.00     0.277 HD
ATOM     33  H18 IFM d   1      12.979  -8.545   8.669  0.00  0.00     0.277 HD
ATOM     34  C5  IFM d   1       9.960  -7.503   8.843  0.00  0.00     0.017 C 
ATOM     35  H19 IFM d   1      10.468  -9.428   8.102  0.00  0.00     0.076 H 
ATOM     36  H20 IFM d   1      11.394  -8.068   7.381  0.00  0.00     0.076 H 
ATOM     37  H21 IFM d   1       9.002  -7.765   8.371  0.00  0.00     0.049 H 
ATOM     38  H12 IFM d   1       9.611  -6.626  10.772  0.00  0.00     0.088 H 
BRANCH  25  39
ATOM     39  O3  IFM d   1      10.766  -7.827  12.431  0.00  0.00    -0.391 OA
ATOM     40  H14 IFM d   1      11.427  -8.250  12.966  0.00  0.00     0.210 HD
ENDBRANCH  25  39
BRANCH  34  41
ATOM     41  C6  IFM d   1      10.306  -6.087   8.366  0.00  0.00     0.024 C 
ATOM     42  H22 IFM d   1       9.417  -5.446   8.460  0.00  0.00     0.074 H 
ATOM     43  H23 IFM d   1      10.621  -6.126   7.313  0.00  0.00     0.074 H 
BRANCH  41  44
ATOM     44  O6  IFM d   1      11.336  -5.557   9.132  0.00  0.00    -0.400 OA
ATOM     45  H24 IFM d   1      11.539  -4.681   8.825  0.00  0.00     0.209 HD
ENDBRANCH  41  44
ENDBRANCH  34  41
ENDBRANCH   1  24
TORSDOF 10
