REMARK  27 active torsions:
REMARK  status: ('A' for Active; 'I' for Inactive)
REMARK    1  A    between atoms: C1_1  and  C2_2 
REMARK       I    between atoms: C2_2  and  N4_24 
REMARK    2  A    between atoms: C6_26  and  C7_3 
REMARK    3  A    between atoms: N19_29  and  C20_13 
REMARK    4  A    between atoms: C20_13  and  C23_31 
REMARK    5  A    between atoms: C20_13  and  C21_14 
REMARK       I    between atoms: C21_14  and  N26_16 
REMARK    6  A    between atoms: C23_31  and  C24_15 
REMARK    7  A    between atoms: N26_16  and  C27_17 
REMARK    8  A    between atoms: C27_17  and  C28_33 
REMARK    9  A    between atoms: C27_17  and  C32_20 
REMARK   10  A    between atoms: C29_34  and  C30_18 
REMARK   11  A    between atoms: C29_34  and  C31_19 
REMARK   12  A    between atoms: C32_20  and  O34_35 
REMARK   13  A    between atoms: C32_20  and  C33_21 
REMARK   14  A    between atoms: C33_21  and  C35_22 
REMARK       I    between atoms: C35_22  and  N37_37 
REMARK   15  A    between atoms: N4_24  and  C5_25 
REMARK   16  A    between atoms: C5_25  and  C17_27 
REMARK   17  A    between atoms: C5_25  and  C6_26 
REMARK       I    between atoms: C17_27  and  N19_29 
REMARK   18  A    between atoms: C23_31  and  C25_32 
REMARK   19  A    between atoms: C28_33  and  C29_34 
REMARK   20  A    between atoms: N37_37  and  C38_38 
REMARK   21  A    between atoms: C38_38  and  C41_41 
REMARK   22  A    between atoms: C38_38  and  C39_39 
REMARK   23  A    between atoms: C39_39  and  C40_40 
REMARK       I    between atoms: C41_41  and  N43_43 
REMARK   24  A    between atoms: N43_43  and  C44_44 
REMARK   25  A    between atoms: C44_44  and  C56_56 
REMARK   26  A    between atoms: C44_44  and  C45_45 
REMARK   27  A    between atoms: C45_45  and  C46_46 
REMARK       I    between atoms: C56_56  and  N58_58 
ROOT
ATOM      1  C27 LP1 d   1     -10.593  15.996  27.999  0.00  0.00     0.037 C 
ATOM      2  H16 LP1 d   1      -9.751  15.304  27.853  0.00  0.00     0.076 H 
ENDROOT
BRANCH   1   3
ATOM      3  N26 LP1 d   1     -10.724  16.243  29.430  0.00  0.00    -0.352 N 
ATOM      4  C21 LP1 d   1     -10.069  15.420  30.240  0.00  0.00     0.241 C 
ATOM      5  O22 LP1 d   1      -9.354  14.553  29.800  0.00  0.00    -0.271 OA
ATOM      6  H15 LP1 d   1     -11.280  16.995  29.784  0.00  0.00     0.163 HD
BRANCH   4   7
ATOM      7  C20 LP1 d   1     -10.189  15.512  31.726  0.00  0.00     0.092 C 
ATOM      8  H11 LP1 d   1     -10.837  16.374  31.943  0.00  0.00     0.088 H 
BRANCH   7   9
ATOM      9  N19 LP1 d   1     -10.822  14.329  32.239  0.00  0.00    -0.346 N 
ATOM     10  C17 LP1 d   1     -11.966  14.457  32.910  0.00  0.00     0.241 C 
ATOM     11  O18 LP1 d   1     -12.355  15.588  33.112  0.00  0.00    -0.271 OA
ATOM     12  H30 LP1 d   1     -10.413  13.428  32.096  0.00  0.00     0.163 HD
BRANCH  10  13
ATOM     13  C5  LP1 d   1     -12.449  13.065  33.238  0.00  0.00     0.093 C 
ATOM     14  H27 LP1 d   1     -11.598  12.399  33.031  0.00  0.00     0.088 H 
BRANCH  13  15
ATOM     15  N4  LP1 d   1     -12.733  12.862  34.634  0.00  0.00    -0.348 N 
ATOM     16  C2  LP1 d   1     -11.893  12.101  35.362  0.00  0.00     0.214 C 
ATOM     17  O3  LP1 d   1     -10.884  11.510  34.973  0.00  0.00    -0.274 OA
ATOM     18  H26 LP1 d   1     -13.539  13.278  35.056  0.00  0.00     0.163 HD
BRANCH  16  19
ATOM     19  C1  LP1 d   1     -12.268  12.010  36.860  0.00  0.00    -0.003 C 
ATOM     20  H1  LP1 d   1     -11.538  11.375  37.383  0.00  0.00     0.040 H 
ATOM     21  H2  LP1 d   1     -13.273  11.573  36.961  0.00  0.00     0.040 H 
ATOM     22  H3  LP1 d   1     -12.260  13.017  37.302  0.00  0.00     0.040 H 
ENDBRANCH  16  19
ENDBRANCH  13  15
BRANCH  13  23
ATOM     23  C6  LP1 d   1     -13.540  12.639  32.251  0.00  0.00    -0.013 C 
ATOM     24  H28 LP1 d   1     -13.141  12.743  31.231  0.00  0.00     0.043 H 
ATOM     25  H29 LP1 d   1     -14.401  13.311  32.379  0.00  0.00     0.043 H 
BRANCH  23  26
ATOM     26  C7  LP1 d   1     -14.012  11.239  32.426  0.00  0.00    -0.045 A 
ATOM     27  C11 LP1 d   1     -13.355  10.117  31.928  0.00  0.00    -0.020 A 
ATOM     28  C12 LP1 d   1     -13.845   8.808  32.153  0.00  0.00    -0.025 A 
ATOM     29  C13 LP1 d   1     -12.196  10.258  31.177  0.00  0.00    -0.072 A 
ATOM     30  C10 LP1 d   1     -15.042   8.628  32.868  0.00  0.00    -0.072 A 
ATOM     31  C14 LP1 d   1     -13.180   7.687  31.649  0.00  0.00    -0.072 A 
ATOM     32  C9  LP1 d   1     -15.701   9.763  33.362  0.00  0.00    -0.082 A 
ATOM     33  H6  LP1 d   1     -15.446   7.636  33.033  0.00  0.00     0.084 H 
ATOM     34  C8  LP1 d   1     -15.204  11.048  33.132  0.00  0.00    -0.076 A 
ATOM     35  H5  LP1 d   1     -16.614   9.641  33.934  0.00  0.00     0.083 H 
ATOM     36  H4  LP1 d   1     -15.749  11.908  33.505  0.00  0.00     0.084 H 
ATOM     37  C16 LP1 d   1     -12.012   7.848  30.932  0.00  0.00    -0.082 A 
ATOM     38  H8  LP1 d   1     -13.580   6.694  31.821  0.00  0.00     0.084 H 
ATOM     39  C15 LP1 d   1     -11.553   9.120  30.697  0.00  0.00    -0.082 A 
ATOM     40  H10 LP1 d   1     -11.468   6.987  30.562  0.00  0.00     0.083 H 
ATOM     41  H9  LP1 d   1     -10.649   9.244  30.111  0.00  0.00     0.083 H 
ATOM     42  H7  LP1 d   1     -11.796  11.243  30.967  0.00  0.00     0.084 H 
ENDBRANCH  23  26
ENDBRANCH  13  23
ENDBRANCH  10  13
ENDBRANCH   7   9
BRANCH   7  43
ATOM     43  C23 LP1 d   1      -8.863  15.734  32.487  0.00  0.00    -0.033 C 
ATOM     44  H31 LP1 d   1      -8.128  14.959  32.224  0.00  0.00     0.042 H 
BRANCH  43  45
ATOM     45  C24 LP1 d   1      -8.352  17.097  32.100  0.00  0.00    -0.071 C 
ATOM     46  H12 LP1 d   1      -7.405  17.295  32.623  0.00  0.00     0.028 H 
ATOM     47  H13 LP1 d   1      -9.093  17.860  32.382  0.00  0.00     0.028 H 
ATOM     48  H14 LP1 d   1      -8.185  17.131  31.013  0.00  0.00     0.028 H 
ENDBRANCH  43  45
BRANCH  43  49
ATOM     49  C25 LP1 d   1      -9.153  15.694  33.962  0.00  0.00    -0.071 C 
ATOM     50  H32 LP1 d   1      -9.525  14.696  34.236  0.00  0.00     0.028 H 
ATOM     51  H33 LP1 d   1      -9.915  16.449  34.207  0.00  0.00     0.028 H 
ATOM     52  H34 LP1 d   1      -8.231  15.908  34.523  0.00  0.00     0.028 H 
ENDBRANCH  43  49
ENDBRANCH   7  43
ENDBRANCH   4   7
ENDBRANCH   1   3
BRANCH   1  53
ATOM     53  C28 LP1 d   1     -11.903  15.232  27.608  0.00  0.00    -0.041 C 
ATOM     54  H35 LP1 d   1     -11.795  14.963  26.547  0.00  0.00     0.036 H 
ATOM     55  H36 LP1 d   1     -12.724  15.956  27.721  0.00  0.00     0.036 H 
BRANCH  53  56
ATOM     56  C29 LP1 d   1     -12.363  13.944  28.332  0.00  0.00    -0.059 C 
ATOM     57  H37 LP1 d   1     -11.822  13.943  29.290  0.00  0.00     0.038 H 
BRANCH  56  58
ATOM     58  C30 LP1 d   1     -13.833  13.928  28.655  0.00  0.00    -0.073 C 
ATOM     59  H17 LP1 d   1     -14.086  12.987  29.166  0.00  0.00     0.028 H 
ATOM     60  H18 LP1 d   1     -14.414  14.007  27.724  0.00  0.00     0.028 H 
ATOM     61  H19 LP1 d   1     -14.074  14.778  29.311  0.00  0.00     0.028 H 
ENDBRANCH  56  58
BRANCH  56  62
ATOM     62  C31 LP1 d   1     -12.043  12.632  27.660  0.00  0.00    -0.073 C 
ATOM     63  H20 LP1 d   1     -10.973  12.602  27.406  0.00  0.00     0.028 H 
ATOM     64  H21 LP1 d   1     -12.641  12.535  26.742  0.00  0.00     0.028 H 
ATOM     65  H22 LP1 d   1     -12.281  11.803  28.342  0.00  0.00     0.028 H 
ENDBRANCH  56  62
ENDBRANCH  53  56
ENDBRANCH   1  53
BRANCH   1  66
ATOM     66  C32 LP1 d   1     -10.251  17.257  27.147  0.00  0.00     0.063 C 
ATOM     67  H23 LP1 d   1     -10.819  17.148  26.211  0.00  0.00     0.086 H 
BRANCH  66  68
ATOM     68  O34 LP1 d   1     -10.659  18.465  27.734  0.00  0.00    -0.393 OA
ATOM     69  H38 LP1 d   1     -10.230  18.568  28.576  0.00  0.00     0.210 HD
ENDBRANCH  66  68
BRANCH  66  70
ATOM     70  C33 LP1 d   1      -8.770  17.384  26.754  0.00  0.00     0.035 C 
ATOM     71  H24 LP1 d   1      -8.172  17.116  27.637  0.00  0.00     0.051 H 
ATOM     72  H25 LP1 d   1      -8.589  18.437  26.494  0.00  0.00     0.051 H 
BRANCH  70  73
ATOM     73  C35 LP1 d   1      -8.267  16.533  25.588  0.00  0.00     0.220 C 
ATOM     74  N37 LP1 d   1      -8.186  17.086  24.375  0.00  0.00    -0.348 N 
ATOM     75  H39 LP1 d   1      -8.510  18.029  24.301  0.00  0.00     0.163 HD
ATOM     76  O36 LP1 d   1      -7.915  15.353  25.656  0.00  0.00    -0.274 OA
BRANCH  74  77
ATOM     77  C38 LP1 d   1      -7.692  16.495  23.167  0.00  0.00     0.089 C 
ATOM     78  H40 LP1 d   1      -7.002  15.693  23.469  0.00  0.00     0.087 H 
BRANCH  77  79
ATOM     79  C41 LP1 d   1      -6.895  17.491  22.341  0.00  0.00     0.241 C 
ATOM     80  N43 LP1 d   1      -5.704  17.010  21.917  0.00  0.00    -0.346 N 
ATOM     81  H46 LP1 d   1      -5.434  16.081  22.172  0.00  0.00     0.163 HD
ATOM     82  O42 LP1 d   1      -7.300  18.631  22.000  0.00  0.00    -0.271 OA
BRANCH  80  83
ATOM     83  C44 LP1 d   1      -4.810  17.808  21.103  0.00  0.00     0.093 C 
ATOM     84  H47 LP1 d   1      -5.462  18.539  20.602  0.00  0.00     0.088 H 
BRANCH  83  85
ATOM     85  C56 LP1 d   1      -4.298  16.985  19.973  0.00  0.00     0.238 C 
ATOM     86  N58 LP1 d   1      -4.118  17.521  18.780  0.00  0.00    -0.368 N 
ATOM     87  H57 LP1 d   1      -3.774  16.960  18.027  0.00  0.00     0.159 HD
ATOM     88  H58 LP1 d   1      -4.326  18.488  18.630  0.00  0.00     0.159 HD
ATOM     89  O57 LP1 d   1      -4.063  15.762  20.071  0.00  0.00    -0.271 OA
ENDBRANCH  83  85
BRANCH  83  90
ATOM     90  C45 LP1 d   1      -3.872  18.720  21.946  0.00  0.00    -0.013 C 
ATOM     91  H48 LP1 d   1      -4.448  19.561  22.359  0.00  0.00     0.043 H 
ATOM     92  H49 LP1 d   1      -3.063  19.107  21.309  0.00  0.00     0.043 H 
BRANCH  90  93
ATOM     93  C46 LP1 d   1      -3.271  17.890  23.097  0.00  0.00    -0.045 A 
ATOM     94  C50 LP1 d   1      -3.838  17.870  24.391  0.00  0.00    -0.020 A 
ATOM     95  C51 LP1 d   1      -3.262  17.034  25.414  0.00  0.00    -0.025 A 
ATOM     96  C52 LP1 d   1      -4.916  18.686  24.744  0.00  0.00    -0.072 A 
ATOM     97  C49 LP1 d   1      -2.182  16.212  25.073  0.00  0.00    -0.072 A 
ATOM     98  C53 LP1 d   1      -3.804  17.055  26.707  0.00  0.00    -0.072 A 
ATOM     99  C48 LP1 d   1      -1.658  16.220  23.791  0.00  0.00    -0.082 A 
ATOM    100  H52 LP1 d   1      -1.749  15.560  25.823  0.00  0.00     0.084 H 
ATOM    101  C47 LP1 d   1      -2.182  17.064  22.805  0.00  0.00    -0.076 A 
ATOM    102  H51 LP1 d   1      -0.831  15.563  23.548  0.00  0.00     0.083 H 
ATOM    103  H50 LP1 d   1      -1.743  17.077  21.814  0.00  0.00     0.084 H 
ATOM    104  C55 LP1 d   1      -4.899  17.869  27.019  0.00  0.00    -0.082 A 
ATOM    105  H54 LP1 d   1      -3.368  16.430  27.478  0.00  0.00     0.084 H 
ATOM    106  C54 LP1 d   1      -5.427  18.683  26.050  0.00  0.00    -0.082 A 
ATOM    107  H56 LP1 d   1      -5.325  17.856  28.016  0.00  0.00     0.083 H 
ATOM    108  H55 LP1 d   1      -6.255  19.337  26.298  0.00  0.00     0.083 H 
ATOM    109  H53 LP1 d   1      -5.364  19.331  23.997  0.00  0.00     0.084 H 
ENDBRANCH  90  93
ENDBRANCH  83  90
ENDBRANCH  80  83
ENDBRANCH  77  79
BRANCH  77 110
ATOM    110  C39 LP1 d   1      -8.797  15.835  22.293  0.00  0.00    -0.041 C 
ATOM    111  H41 LP1 d   1      -8.321  15.130  21.596  0.00  0.00     0.036 H 
ATOM    112  H42 LP1 d   1      -9.313  16.622  21.724  0.00  0.00     0.036 H 
BRANCH 110 113
ATOM    113  C40 LP1 d   1      -9.817  15.086  23.117  0.00  0.00    -0.074 C 
ATOM    114  H43 LP1 d   1     -10.571  14.641  22.451  0.00  0.00     0.027 H 
ATOM    115  H44 LP1 d   1     -10.307  15.781  23.814  0.00  0.00     0.027 H 
ATOM    116  H45 LP1 d   1      -9.315  14.290  23.686  0.00  0.00     0.027 H 
ENDBRANCH 110 113
ENDBRANCH  77 110
ENDBRANCH  74  77
ENDBRANCH  70  73
ENDBRANCH  66  70
ENDBRANCH   1  66
TORSDOF 27
