REMARK  10 active torsions:
REMARK  status: ('A' for Active; 'I' for Inactive)
REMARK    1  A    between atoms: PA_1  and  O3A_4 
REMARK    2  A    between atoms: PA_1  and  O5_13 
REMARK    3  A    between atoms: O3A_4  and  PB_5 
REMARK    4  A    between atoms: PB_5  and  O3B_8 
REMARK    5  A    between atoms: O3B_8  and  PG_9 
REMARK    6  A    between atoms: O5_13  and  C5_14 
REMARK    7  A    between atoms: C5_14  and  C4_15 
REMARK    8  A    between atoms: C3_17  and  O3_18 
REMARK    9  A    between atoms: C1_20  and  N1_21 
REMARK   10  A    between atoms: C5_27  and  C5M_28 
ROOT
ATOM      1  C4  TTP d   1      36.623  16.585   9.558  0.00  0.00     0.087 C 
ATOM      2  O4  TTP d   1      36.033  15.370   9.989  0.00  0.00    -0.356 OA
ATOM      3  C3  TTP d   1      35.649  17.170   8.537  0.00  0.00     0.066 C 
ATOM      4  C2  TTP d   1      34.300  16.492   8.861  0.00  0.00     0.002 C 
ATOM      5  C1  TTP d   1      34.783  15.151   9.397  0.00  0.00     0.116 C 
ATOM      6  H3  TTP d   1      37.596  16.403   9.078  0.00  0.00     0.090 H 
ATOM      7  H4  TTP d   1      35.556  18.258   8.669  0.00  0.00     0.087 H 
ATOM      8  H6  TTP d   1      33.681  16.370   7.960  0.00  0.00     0.043 H 
ATOM      9  H7  TTP d   1      33.736  17.053   9.620  0.00  0.00     0.043 H 
ATOM     10  H8  TTP d   1      34.861  14.441   8.561  0.00  0.00     0.118 H 
ENDROOT
BRANCH   1  11
ATOM     11  C5  TTP d   1      36.832  17.469  10.822  0.00  0.00     0.058 C 
ATOM     12  H1  TTP d   1      37.097  16.826  11.674  0.00  0.00     0.079 H 
ATOM     13  H2  TTP d   1      37.647  18.183  10.634  0.00  0.00     0.079 H 
BRANCH  11  14
ATOM     14  O5  TTP d   1      35.603  18.210  11.139  0.00  0.00    -0.287 OA
BRANCH  14  15
ATOM     15  PA  TTP d   1      35.433  18.797  12.606  0.00  0.00     0.417 P 
ATOM     16  O1A TTP d   1      35.157  17.720  13.587  0.00  0.00    -0.624 OA
ATOM     17  O2A TTP d   1      34.444  19.882  12.470  0.00  0.00    -0.624 OA
BRANCH  15  18
ATOM     18  O3A TTP d   1      36.836  19.451  12.945  0.00  0.00    -0.180 OA
BRANCH  18  19
ATOM     19  PB  TTP d   1      37.578  20.684  12.252  0.00  0.00     0.428 P 
ATOM     20  O1B TTP d   1      38.953  20.635  12.753  0.00  0.00    -0.624 OA
ATOM     21  O2B TTP d   1      37.407  20.574  10.774  0.00  0.00    -0.624 OA
BRANCH  19  22
ATOM     22  O3B TTP d   1      36.841  21.935  12.882  0.00  0.00    -0.173 OA
BRANCH  22  23
ATOM     23  PG  TTP d   1      37.259  23.469  13.380  0.00  0.00     0.431 P 
ATOM     24  O1G TTP d   1      37.795  24.186  12.214  0.00  0.00    -0.616 OA
ATOM     25  O2G TTP d   1      36.073  24.087  14.030  0.00  0.00    -0.616 OA
ATOM     26  O3G TTP d   1      38.397  23.240  14.456  0.00  0.00    -0.616 OA
ENDBRANCH  22  23
ENDBRANCH  19  22
ENDBRANCH  18  19
ENDBRANCH  15  18
ENDBRANCH  14  15
ENDBRANCH  11  14
ENDBRANCH   1  11
BRANCH   3  27
ATOM     27  O3  TTP d   1      36.133  16.909   7.217  0.00  0.00    -0.393 OA
ATOM     28  H5  TTP d   1      36.987  17.311   7.109  0.00  0.00     0.210 HD
ENDBRANCH   3  27
BRANCH   5  29
ATOM     29  N1  TTP d   1      33.919  14.534  10.508  0.00  0.00    -0.282 N 
ATOM     30  C2  TTP d   1      33.100  13.446  10.008  0.00  0.00     0.330 A 
ATOM     31  O2  TTP d   1      33.116  13.079   8.811  0.00  0.00    -0.246 OA
ATOM     32  N3  TTP d   1      32.307  12.790  10.927  0.00  0.00    -0.286 N 
ATOM     33  C4  TTP d   1      32.258  13.151  12.218  0.00  0.00     0.190 A 
ATOM     34  H9  TTP d   1      31.750  12.019  10.620  0.00  0.00     0.172 HD
ATOM     35  O4  TTP d   1      31.440  12.424  12.998  0.00  0.00    -0.171 OA
ATOM     36  C5  TTP d   1      33.067  14.254  12.740  0.00  0.00     0.008 A 
ATOM     37  C6  TTP d   1      33.848  14.891  11.834  0.00  0.00    -0.003 A 
ATOM     38  H13 TTP d   1      34.452  15.731  12.175  0.00  0.00     0.113 H 
BRANCH  36  39
ATOM     39  C5M TTP d   1      33.013  14.663  14.193  0.00  0.00    -0.046 C 
ATOM     40  H10 TTP d   1      33.697  15.508  14.362  0.00  0.00     0.033 H 
ATOM     41  H11 TTP d   1      33.315  13.814  14.824  0.00  0.00     0.033 H 
ATOM     42  H12 TTP d   1      31.987  14.965  14.451  0.00  0.00     0.033 H 
ENDBRANCH  36  39
ENDBRANCH   5  29
TORSDOF 10
