REMARK WARNING: 32 MAX_TORS EXCEEDED!!!
REMARK  48 active torsions:
REMARK  status: ('A' for Active; 'I' for Inactive)
REMARK    1  A    between atoms: N_1  and  CA_2 
REMARK    2  A    between atoms: CA_2  and  C_3 
REMARK    3  A    between atoms: CA_2  and  CB_5 
REMARK       I    between atoms: C_3  and  N_6 
REMARK    4  A    between atoms: CA_7  and  C_8 
REMARK       I    between atoms: C_8  and  N_13 
REMARK    5  A    between atoms: N_13  and  CA_14 
REMARK    6  A    between atoms: CA_14  and  C_15 
REMARK    7  A    between atoms: CA_14  and  CB_17 
REMARK       I    between atoms: C_15  and  N_19 
REMARK    8  A    between atoms: CB_17  and  OG_18 
REMARK    9  A    between atoms: N_19  and  CA_20 
REMARK   10  A    between atoms: CA_20  and  C_21 
REMARK   11  A    between atoms: CA_20  and  CB_23 
REMARK       I    between atoms: C_21  and  N_27 
REMARK   12  A    between atoms: CB_23  and  CG1_24 
REMARK   13  A    between atoms: CB_23  and  CG2_25 
REMARK   14  A    between atoms: CG1_24  and  CD1_26 
REMARK   15  A    between atoms: N_27  and  CA_28 
REMARK   16  A    between atoms: CA_28  and  C_29 
REMARK   17  A    between atoms: CA_28  and  CB_31 
REMARK       I    between atoms: C_29  and  N_35 
REMARK   18  A    between atoms: CB_31  and  CG_32 
REMARK   19  A    between atoms: N_35  and  CA_36 
REMARK   20  A    between atoms: CA_36  and  C_37 
REMARK   21  A    between atoms: CA_36  and  CB_39 
REMARK       I    between atoms: C_37  and  N_46 
REMARK   22  A    between atoms: CB_39  and  CG_40 
REMARK   23  A    between atoms: CG_40  and  CD_41 
REMARK   24  A    between atoms: CD_41  and  NE_42 
REMARK       I    between atoms: NE_42  and  CZ_43 
REMARK       I    between atoms: CZ_43  and  NH1_44 
REMARK   25  A    between atoms: N_46  and  CA_47 
REMARK   26  A    between atoms: CA_47  and  C_48 
REMARK   27  A    between atoms: CA_47  and  CB_50 
REMARK       I    between atoms: C_48  and  N_52 
REMARK   28  A    between atoms: CB_50  and  OG_51 
REMARK   29  A    between atoms: N_52  and  CA_53 
REMARK   30  A    between atoms: CA_53  and  C_54 
REMARK   31  A    between atoms: CA_53  and  CB_56 
REMARK       I    between atoms: C_54  and  N_59 
REMARK   32  A    between atoms: CB_56  and  OG1_57 
REMARK   33  A    between atoms: CB_56  and  CG2_58 
REMARK   34  A    between atoms: N_59  and  CA_60 
REMARK   35  A    between atoms: CA_60  and  C_61 
REMARK   36  A    between atoms: CA_60  and  CB_63 
REMARK       I    between atoms: C_61  and  N_68 
REMARK   37  A    between atoms: CB_63  and  CG_64 
REMARK   38  A    between atoms: CG_64  and  CD_65 
REMARK   39  A    between atoms: CD_65  and  CE_66 
REMARK   40  A    between atoms: CE_66  and  NZ_67 
REMARK   41  A    between atoms: CA_69  and  C_70 
REMARK       I    between atoms: C_70  and  N_75 
REMARK   42  A    between atoms: CA_76  and  C_77 
REMARK       I    between atoms: C_77  and  N_82 
REMARK   43  A    between atoms: N_82  and  CA_83 
REMARK   44  A    between atoms: CA_83  and  C_84 
REMARK   45  A    between atoms: CA_83  and  CB_86 
REMARK   46  A    between atoms: CB_86  and  CG_87 
REMARK   47  A    between atoms: CG_87  and  CD1_88 
REMARK   48  A    between atoms: CG_87  and  CD2_89 
ROOT
ATOM      1  C   NON d   1      15.381  25.076  21.724  0.00  0.00     0.241 C 
ATOM      2  O   NON d   1      16.302  24.367  22.149  0.00  0.00    -0.271 OA
ATOM      3  N   NON d   1      15.427  26.415  21.768  0.00  0.00    -0.344 N 
ATOM      4  H48 NON d   1      14.679  26.949  21.374  0.00  0.00     0.163 HD
ENDROOT
BRANCH   3   5
ATOM      5  CA  NON d   1      16.575  27.114  22.395  0.00  0.00     0.109 C 
ATOM      6  H49 NON d   1      17.470  26.758  21.864  0.00  0.00     0.090 H 
BRANCH   5   7
ATOM      7  C   NON d   1      16.816  26.785  23.903  0.00  0.00     0.243 C 
ATOM      8  O   NON d   1      17.939  26.931  24.404  0.00  0.00    -0.271 OA
ATOM      9  N   NON d   1      15.783  26.330  24.609  0.00  0.00    -0.344 N 
ATOM     10  H53 NON d   1      14.890  26.249  24.167  0.00  0.00     0.163 HD
BRANCH   9  11
ATOM     11  CA  NON d   1      15.919  25.944  26.019  0.00  0.00     0.113 C 
ATOM     12  H54 NON d   1      16.776  26.502  26.426  0.00  0.00     0.091 H 
BRANCH  11  13
ATOM     13  C   NON d   1      16.199  24.450  26.220  0.00  0.00     0.243 C 
ATOM     14  O   NON d   1      16.281  23.968  27.354  0.00  0.00    -0.271 OA
ATOM     15  N   NON d   1      16.373  23.724  25.123  0.00  0.00    -0.346 N 
ATOM     16  H60 NON d   1      16.308  24.155  24.223  0.00  0.00     0.163 HD
BRANCH  15  17
ATOM     17  CA  NON d   1      16.658  22.300  25.229  0.00  0.00     0.089 C 
ATOM     18  H61 NON d   1      15.868  21.815  25.821  0.00  0.00     0.087 H 
BRANCH  17  19
ATOM     19  C   NON d   1      18.017  22.046  25.885  0.00  0.00     0.243 C 
ATOM     20  O   NON d   1      19.033  22.609  25.413  0.00  0.00    -0.271 OA
ATOM     21  N   NON d   1      18.051  21.205  26.931  0.00  0.00    -0.337 N 
ATOM     22  CA  NON d   1      19.337  20.731  27.471  0.00  0.00     0.092 C 
ATOM     23  CD  NON d   1      16.896  20.583  27.629  0.00  0.00    -0.001 C 
ATOM     24  CB  NON d   1      18.983  20.274  28.887  0.00  0.00    -0.036 C 
ATOM     25  H73 NON d   1      20.085  21.537  27.492  0.00  0.00     0.087 H 
ATOM     26  CG  NON d   1      17.492  19.726  28.729  0.00  0.00    -0.048 C 
ATOM     27  H74 NON d   1      19.021  21.115  29.595  0.00  0.00     0.036 H 
ATOM     28  H75 NON d   1      19.662  19.478  29.226  0.00  0.00     0.036 H 
ATOM     29  H76 NON d   1      16.930  19.848  29.667  0.00  0.00     0.035 H 
ATOM     30  H77 NON d   1      17.495  18.665  28.439  0.00  0.00     0.035 H 
ATOM     31  H78 NON d   1      16.316  19.962  26.931  0.00  0.00     0.064 H 
ATOM     32  H79 NON d   1      16.244  21.359  28.058  0.00  0.00     0.064 H 
BRANCH  22  33
ATOM     33  C   NON d   1      19.849  19.570  26.621  0.00  0.00     0.243 C 
ATOM     34  O   NON d   1      19.086  19.064  25.763  0.00  0.00    -0.271 OA
ATOM     35  N   NON d   1      21.122  19.178  26.772  0.00  0.00    -0.337 N 
ATOM     36  CA  NON d   1      21.596  17.970  26.097  0.00  0.00     0.091 C 
ATOM     37  CD  NON d   1      22.186  19.839  27.560  0.00  0.00    -0.001 C 
ATOM     38  CB  NON d   1      23.076  17.868  26.502  0.00  0.00    -0.036 C 
ATOM     39  H80 NON d   1      21.483  18.051  25.006  0.00  0.00     0.087 H 
ATOM     40  CG  NON d   1      23.464  19.197  27.008  0.00  0.00    -0.048 C 
ATOM     41  H81 NON d   1      23.691  17.599  25.631  0.00  0.00     0.036 H 
ATOM     42  H82 NON d   1      23.203  17.110  27.289  0.00  0.00     0.036 H 
ATOM     43  H83 NON d   1      23.876  19.809  26.192  0.00  0.00     0.035 H 
ATOM     44  H84 NON d   1      24.215  19.096  27.806  0.00  0.00     0.035 H 
ATOM     45  H85 NON d   1      22.070  19.632  28.634  0.00  0.00     0.064 H 
ATOM     46  H86 NON d   1      22.185  20.926  27.394  0.00  0.00     0.064 H 
BRANCH  36  47
ATOM     47  C   NON d   1      20.841  16.750  26.617  0.00  0.00     0.241 C 
ATOM     48  O   NON d   1      20.453  16.698  27.793  0.00  0.00    -0.271 OA
ATOM     49  N   NON d   1      20.613  15.772  25.752  0.00  0.00    -0.345 N 
ATOM     50  H87 NON d   1      20.829  15.893  24.783  0.00  0.00     0.163 HD
BRANCH  49  51
ATOM     51  CA  NON d   1      20.044  14.520  26.230  0.00  0.00     0.096 C 
ATOM     52  H88 NON d   1      19.231  14.747  26.936  0.00  0.00     0.089 H 
BRANCH  51  53
ATOM     53  C   NON d   1      21.124  13.732  26.960  0.00  0.00     0.196 C 
ATOM     54  O   NON d   1      22.035  13.285  26.230  0.00  0.00    -0.646 OA
ATOM     55  OXT NON d   1      20.994  13.592  28.208  0.00  0.00    -0.646 OA
ENDBRANCH  51  53
BRANCH  51  56
ATOM     56  CB  NON d   1      19.467  13.700  25.076  0.00  0.00    -0.034 C 
ATOM     57  H89 NON d   1      20.262  13.609  24.321  0.00  0.00     0.037 H 
ATOM     58  H90 NON d   1      18.630  14.280  24.660  0.00  0.00     0.037 H 
BRANCH  56  59
ATOM     59  CG  NON d   1      18.937  12.278  25.341  0.00  0.00    -0.059 C 
ATOM     60  H91 NON d   1      19.760  11.659  25.728  0.00  0.00     0.038 H 
BRANCH  59  61
ATOM     61  CD1 NON d   1      17.839  12.307  26.386  0.00  0.00    -0.073 C 
ATOM     62  H92 NON d   1      17.473  11.285  26.562  0.00  0.00     0.028 H 
ATOM     63  H93 NON d   1      17.010  12.937  26.030  0.00  0.00     0.028 H 
ATOM     64  H94 NON d   1      18.237  12.721  27.324  0.00  0.00     0.028 H 
ENDBRANCH  59  61
BRANCH  59  65
ATOM     65  CD2 NON d   1      18.463  11.680  24.018  0.00  0.00    -0.073 C 
ATOM     66  H95 NON d   1      19.293  11.682  23.297  0.00  0.00     0.028 H 
ATOM     67  H96 NON d   1      17.631  12.281  23.621  0.00  0.00     0.028 H 
ATOM     68  H97 NON d   1      18.123  10.647  24.183  0.00  0.00     0.028 H 
ENDBRANCH  59  65
ENDBRANCH  56  59
ENDBRANCH  51  56
ENDBRANCH  49  51
ENDBRANCH  36  47
ENDBRANCH  22  33
ENDBRANCH  17  19
BRANCH  17  69
ATOM     69  CB  NON d   1      16.705  21.703  23.836  0.00  0.00    -0.038 C 
ATOM     70  H62 NON d   1      17.457  20.900  23.823  0.00  0.00     0.036 H 
ATOM     71  H63 NON d   1      16.997  22.491  23.126  0.00  0.00     0.036 H 
BRANCH  69  72
ATOM     72  CG  NON d   1      15.407  21.141  23.411  0.00  0.00    -0.061 C 
ATOM     73  H64 NON d   1      14.627  21.907  23.531  0.00  0.00     0.033 H 
ATOM     74  H65 NON d   1      15.168  20.273  24.042  0.00  0.00     0.033 H 
BRANCH  72  75
ATOM     75  CD  NON d   1      15.451  20.700  21.955  0.00  0.00    -0.043 C 
ATOM     76  H66 NON d   1      15.856  21.520  21.343  0.00  0.00     0.035 H 
ATOM     77  H67 NON d   1      14.431  20.462  21.620  0.00  0.00     0.035 H 
BRANCH  75  78
ATOM     78  CE  NON d   1      16.325  19.477  21.784  0.00  0.00     0.080 C 
ATOM     79  H68 NON d   1      15.931  18.665  22.412  0.00  0.00     0.075 H 
ATOM     80  H69 NON d   1      17.350  19.722  22.101  0.00  0.00     0.075 H 
BRANCH  78  81
ATOM     81  NZ  NON d   1      16.351  19.024  20.366  0.00  0.00    -0.079 N 
ATOM     82  H70 NON d   1      16.940  18.210  20.284  0.00  0.00     0.274 HD
ATOM     83  H71 NON d   1      16.715  19.762  19.784  0.00  0.00     0.274 HD
ATOM     84  H72 NON d   1      15.416  18.793  20.070  0.00  0.00     0.274 HD
ENDBRANCH  78  81
ENDBRANCH  75  78
ENDBRANCH  72  75
ENDBRANCH  69  72
ENDBRANCH  17  69
ENDBRANCH  15  17
ENDBRANCH  11  13
BRANCH  11  85
ATOM     85  CB  NON d   1      14.677  26.324  26.831  0.00  0.00     0.060 C 
ATOM     86  H55 NON d   1      14.807  26.025  27.881  0.00  0.00     0.086 H 
BRANCH  85  87
ATOM     87  OG1 NON d   1      13.529  25.688  26.249  0.00  0.00    -0.393 OA
ATOM     88  H56 NON d   1      12.754  25.919  26.747  0.00  0.00     0.210 HD
ENDBRANCH  85  87
BRANCH  85  89
ATOM     89  CG2 NON d   1      14.405  27.799  26.726  0.00  0.00    -0.050 C 
ATOM     90  H57 NON d   1      13.511  28.050  27.315  0.00  0.00     0.031 H 
ATOM     91  H58 NON d   1      14.237  28.067  25.672  0.00  0.00     0.031 H 
ATOM     92  H59 NON d   1      15.268  28.360  27.113  0.00  0.00     0.031 H 
ENDBRANCH  85  89
ENDBRANCH  11  85
ENDBRANCH   9  11
ENDBRANCH   5   7
BRANCH   5  93
ATOM     93  CB  NON d   1      16.499  28.637  22.159  0.00  0.00     0.044 C 
ATOM     94  H50 NON d   1      16.099  28.821  21.151  0.00  0.00     0.077 H 
ATOM     95  H51 NON d   1      17.512  29.059  22.234  0.00  0.00     0.077 H 
BRANCH  93  96
ATOM     96  OG  NON d   1      15.660  29.282  23.111  0.00  0.00    -0.398 OA
ATOM     97  H52 NON d   1      14.781  28.927  23.049  0.00  0.00     0.209 HD
ENDBRANCH  93  96
ENDBRANCH   5  93
ENDBRANCH   3   5
BRANCH   1  98
ATOM     98  CA  NON d   1      14.110  24.427  21.180  0.00  0.00     0.089 C 
ATOM     99  H36 NON d   1      13.874  23.581  21.842  0.00  0.00     0.087 H 
BRANCH  98 100
ATOM    100  N   NON d   1      12.937  25.320  21.201  0.00  0.00    -0.346 N 
ATOM    101  C   NON d   1      12.357  25.716  22.335  0.00  0.00     0.241 C 
ATOM    102  O   NON d   1      12.753  25.389  23.445  0.00  0.00    -0.271 OA
ATOM    103  H35 NON d   1      12.562  25.641  20.331  0.00  0.00     0.163 HD
BRANCH 101 104
ATOM    104  CA  NON d   1      11.146  26.644  22.185  0.00  0.00     0.098 C 
ATOM    105  H32 NON d   1      11.188  27.099  21.184  0.00  0.00     0.088 H 
BRANCH 104 106
ATOM    106  N   NON d   1       9.878  25.931  22.296  0.00  0.00    -0.345 N 
ATOM    107  C   NON d   1       9.014  25.884  21.284  0.00  0.00     0.241 C 
ATOM    108  O   NON d   1       9.175  26.487  20.215  0.00  0.00    -0.271 OA
ATOM    109  H31 NON d   1       9.652  25.467  23.152  0.00  0.00     0.163 HD
BRANCH 107 110
ATOM    110  CA  NON d   1       7.797  24.999  21.483  0.00  0.00     0.092 C 
ATOM    111  H21 NON d   1       7.826  24.595  22.506  0.00  0.00     0.088 H 
BRANCH 110 112
ATOM    112  N   NON d   1       6.583  25.798  21.339  0.00  0.00    -0.346 N 
ATOM    113  C   NON d   1       5.817  26.083  22.389  0.00  0.00     0.243 C 
ATOM    114  O   NON d   1       5.999  25.588  23.503  0.00  0.00    -0.271 OA
ATOM    115  H20 NON d   1       6.323  26.137  20.435  0.00  0.00     0.163 HD
BRANCH 113 116
ATOM    116  CA  NON d   1       4.651  26.996  22.139  0.00  0.00     0.109 C 
ATOM    117  H16 NON d   1       4.362  26.929  21.080  0.00  0.00     0.090 H 
BRANCH 116 118
ATOM    118  N   NON d   1       3.522  26.591  22.975  0.00  0.00    -0.344 N 
ATOM    119  C   NON d   1       2.990  25.377  22.926  0.00  0.00     0.241 C 
ATOM    120  O   NON d   1       3.320  24.520  22.110  0.00  0.00    -0.271 OA
ATOM    121  H15 NON d   1       3.134  27.258  23.611  0.00  0.00     0.163 HD
BRANCH 119 122
ATOM    122  CA  NON d   1       1.924  25.099  23.994  0.00  0.00     0.091 C 
ATOM    123  N   NON d   1       0.963  24.070  23.578  0.00  0.00    -0.337 N 
ATOM    124  C   NON d   1       0.109  24.297  22.570  0.00  0.00     0.250 C 
ATOM    125  CD  NON d   1       1.049  22.852  24.421  0.00  0.00    -0.001 C 
ATOM    126  O   NON d   1       0.084  25.362  21.948  0.00  0.00    -0.271 OA
ATOM    127  CG  NON d   1       1.707  23.365  25.660  0.00  0.00    -0.048 C 
ATOM    128  H13 NON d   1       1.661  22.076  23.938  0.00  0.00     0.064 H 
ATOM    129  H14 NON d   1       0.050  22.448  24.640  0.00  0.00     0.064 H 
ATOM    130  CB  NON d   1       2.600  24.494  25.225  0.00  0.00    -0.036 C 
ATOM    131  H11 NON d   1       0.950  23.729  26.370  0.00  0.00     0.035 H 
ATOM    132  H12 NON d   1       2.301  22.570  26.133  0.00  0.00     0.035 H 
ATOM    133  H9  NON d   1       2.687  25.245  26.024  0.00  0.00     0.036 H 
ATOM    134  H10 NON d   1       3.600  24.116  24.967  0.00  0.00     0.036 H 
ATOM    135  H8  NON d   1       1.402  26.034  24.245  0.00  0.00     0.087 H 
BRANCH 124 136
ATOM    136  CA  NON d   1      -0.830  23.152  22.151  0.00  0.00     0.172 C 
ATOM    137  H4  NON d   1      -0.897  22.442  22.988  0.00  0.00     0.098 H 
BRANCH 136 138
ATOM    138  N   NON d   1      -2.229  23.641  21.846  0.00  0.00    -0.067 N 
ATOM    139  H1  NON d   1      -2.807  22.860  21.577  0.00  0.00     0.275 HD
ATOM    140  H2  NON d   1      -2.195  24.309  21.092  0.00  0.00     0.275 HD
ATOM    141  H3  NON d   1      -2.618  24.080  22.666  0.00  0.00     0.275 HD
ENDBRANCH 136 138
BRANCH 136 142
ATOM    142  CB  NON d   1      -0.233  22.420  20.944  0.00  0.00    -0.042 C 
ATOM    143  H5  NON d   1       0.782  22.075  21.190  0.00  0.00     0.030 H 
ATOM    144  H6  NON d   1      -0.189  23.105  20.085  0.00  0.00     0.030 H 
ATOM    145  H7  NON d   1      -0.863  21.555  20.691  0.00  0.00     0.030 H 
ENDBRANCH 136 142
ENDBRANCH 124 136
ENDBRANCH 119 122
ENDBRANCH 116 118
BRANCH 116 146
ATOM    146  CB  NON d   1       5.031  28.454  22.470  0.00  0.00     0.044 C 
ATOM    147  H17 NON d   1       6.005  28.698  22.022  0.00  0.00     0.077 H 
ATOM    148  H18 NON d   1       5.084  28.589  23.560  0.00  0.00     0.077 H 
BRANCH 146 149
ATOM    149  OG  NON d   1       4.021  29.298  21.925  0.00  0.00    -0.398 OA
ATOM    150  H19 NON d   1       4.231  30.205  22.115  0.00  0.00     0.209 HD
ENDBRANCH 146 149
ENDBRANCH 116 146
ENDBRANCH 113 116
ENDBRANCH 110 112
BRANCH 110 151
ATOM    151  CB  NON d   1       7.808  23.804  20.495  0.00  0.00    -0.030 C 
ATOM    152  H22 NON d   1       7.700  24.198  19.474  0.00  0.00     0.043 H 
BRANCH 151 153
ATOM    153  CG1 NON d   1       6.642  22.835  20.782  0.00  0.00    -0.063 C 
ATOM    154  H23 NON d   1       5.717  23.421  20.887  0.00  0.00     0.033 H 
ATOM    155  H24 NON d   1       6.849  22.305  21.724  0.00  0.00     0.033 H 
BRANCH 153 156
ATOM    156  CD1 NON d   1       6.436  21.773  19.645  0.00  0.00    -0.076 C 
ATOM    157  H28 NON d   1       5.595  21.114  19.907  0.00  0.00     0.027 H 
ATOM    158  H29 NON d   1       7.351  21.172  19.534  0.00  0.00     0.027 H 
ATOM    159  H30 NON d   1       6.218  22.288  18.698  0.00  0.00     0.027 H 
ENDBRANCH 153 156
ENDBRANCH 151 153
BRANCH 151 160
ATOM    160  CG2 NON d   1       9.093  23.038  20.585  0.00  0.00    -0.071 C 
ATOM    161  H25 NON d   1       9.937  23.713  20.383  0.00  0.00     0.028 H 
ATOM    162  H26 NON d   1       9.088  22.225  19.844  0.00  0.00     0.028 H 
ATOM    163  H27 NON d   1       9.197  22.613  21.594  0.00  0.00     0.028 H 
ENDBRANCH 151 160
ENDBRANCH 110 151
ENDBRANCH 107 110
ENDBRANCH 104 106
BRANCH 104 164
ATOM    164  CB  NON d   1      11.228  27.746  23.213  0.00  0.00     0.043 C 
ATOM    165  H33 NON d   1      11.262  27.292  24.214  0.00  0.00     0.052 H 
ATOM    166  H34 NON d   1      10.330  28.376  23.127  0.00  0.00     0.052 H 
BRANCH 164 167
ATOM    167  CG  NON d   1      12.451  28.619  23.035  0.00  0.00     0.175 C 
ATOM    168  OD1 NON d   1      13.209  28.444  22.058  0.00  0.00    -0.648 OA
ATOM    169  OD2 NON d   1      12.726  29.538  23.833  0.00  0.00    -0.648 OA
ENDBRANCH 164 167
ENDBRANCH 104 164
ENDBRANCH 101 104
ENDBRANCH  98 100
BRANCH  98 170
ATOM    170  CB  NON d   1      14.362  23.850  19.769  0.00  0.00    -0.036 C 
ATOM    171  H37 NON d   1      15.287  23.257  19.805  0.00  0.00     0.036 H 
ATOM    172  H38 NON d   1      14.494  24.694  19.076  0.00  0.00     0.036 H 
BRANCH 170 173
ATOM    173  CG  NON d   1      13.250  22.957  19.219  0.00  0.00    -0.048 C 
ATOM    174  H39 NON d   1      12.449  23.608  18.838  0.00  0.00     0.035 H 
ATOM    175  H40 NON d   1      12.863  22.347  20.049  0.00  0.00     0.035 H 
BRANCH 173 176
ATOM    176  CD  NON d   1      13.662  22.013  18.095  0.00  0.00     0.009 C 
ATOM    177  H41 NON d   1      14.681  21.641  18.277  0.00  0.00     0.064 H 
ATOM    178  H42 NON d   1      13.633  22.546  17.133  0.00  0.00     0.064 H 
BRANCH 176 179
ATOM    179  NE  NON d   1      12.718  20.884  18.066  0.00  0.00    -0.227 N 
ATOM    180  CZ  NON d   1      11.443  21.008  17.757  0.00  0.00     0.665 C 
ATOM    181  NH1 NON d   1      10.971  22.199  17.396  0.00  0.00    -0.235 N 
ATOM    182  NH2 NON d   1      10.619  19.965  17.847  0.00  0.00    -0.235 N 
ATOM    183  H44 NON d   1       9.976  22.306  17.153  0.00  0.00     0.174 HD
ATOM    184  H45 NON d   1      11.601  23.013  17.360  0.00  0.00     0.174 HD
ATOM    185  H46 NON d   1      10.984  19.043  18.126  0.00  0.00     0.174 HD
ATOM    186  H47 NON d   1       9.617  20.081  17.637  0.00  0.00     0.174 HD
ATOM    187  H43 NON d   1      13.073  19.946  18.300  0.00  0.00     0.177 HD
ENDBRANCH 176 179
ENDBRANCH 173 176
ENDBRANCH 170 173
ENDBRANCH  98 170
ENDBRANCH   1  98
TORSDOF 48
