REMARK  7 active torsions:
REMARK  status: ('A' for Active; 'I' for Inactive)
REMARK    1  A    between atoms: N2_22  and  C2_1 
REMARK    2  A    between atoms: C10_2  and  C11_3 
REMARK    3  A    between atoms: O6_16  and  C10_2 
REMARK    4  A    between atoms: C20_10  and  C23_25 
REMARK       I    between atoms: C23_25  and  N26_13 
REMARK    5  A    between atoms: C6_15  and  O6_16 
REMARK    6  A    between atoms: C5_17  and  N7_18 
REMARK    7  A    between atoms: N2_22  and  C17_23 
ROOT
ATOM      1  C2  ST8 d   1       8.115  44.009  50.134  0.00  0.00     0.731 A 
ATOM      2  N1  ST8 d   1       7.115  44.547  50.848  0.00  0.00    -0.035 NA
ATOM      3  C6  ST8 d   1       7.331  45.464  51.797  0.00  0.00     0.218 A 
ATOM      4  C5  ST8 d   1       8.703  45.882  52.069  0.00  0.00     0.186 A 
ATOM      5  N9  ST8 d   1      11.053  45.544  51.446  0.00  0.00    -0.381 N 
ATOM      6  C4  ST8 d   1       9.758  45.245  51.257  0.00  0.00     0.176 A 
ATOM      7  N3  ST8 d   1       9.401  44.335  50.315  0.00  0.00    -0.043 NA
ATOM      8  H19 ST8 d   1      11.776  45.090  50.870  0.00  0.00     0.157 HD
ATOM      9  H20 ST8 d   1      11.324  46.228  52.167  0.00  0.00     0.157 HD
ENDROOT
BRANCH   3  10
ATOM     10  O6  ST8 d   1       6.298  46.082  52.422  0.00  0.00    -0.332 OA
BRANCH  10  11
ATOM     11  C10 ST8 d   1       4.972  45.654  52.134  0.00  0.00     0.031 C 
ATOM     12  H1  ST8 d   1       4.625  46.113  51.197  0.00  0.00     0.075 H 
ATOM     13  H2  ST8 d   1       4.944  44.559  52.038  0.00  0.00     0.075 H 
BRANCH  11  14
ATOM     14  C11 ST8 d   1       4.094  46.091  53.275  0.00  0.00    -0.033 C 
ATOM     15  C12 ST8 d   1       4.489  45.307  54.519  0.00  0.00    -0.060 C 
ATOM     16  C13 ST8 d   1       3.710  45.915  55.664  0.00  0.00    -0.065 C 
ATOM     17  H4  ST8 d   1       5.570  45.400  54.701  0.00  0.00     0.033 H 
ATOM     18  H5  ST8 d   1       4.227  44.245  54.400  0.00  0.00     0.033 H 
ATOM     19  C14 ST8 d   1       2.217  45.759  55.373  0.00  0.00    -0.065 C 
ATOM     20  H6  ST8 d   1       3.960  46.982  55.758  0.00  0.00     0.033 H 
ATOM     21  H7  ST8 d   1       3.962  45.396  56.601  0.00  0.00     0.033 H 
ATOM     22  C15 ST8 d   1       1.781  46.339  54.016  0.00  0.00    -0.065 C 
ATOM     23  H8  ST8 d   1       1.654  46.273  56.166  0.00  0.00     0.033 H 
ATOM     24  H9  ST8 d   1       1.972  44.687  55.386  0.00  0.00     0.033 H 
ATOM     25  C16 ST8 d   1       2.656  45.782  52.906  0.00  0.00    -0.060 C 
ATOM     26  H10 ST8 d   1       1.877  47.434  54.040  0.00  0.00     0.033 H 
ATOM     27  H11 ST8 d   1       0.733  46.067  53.824  0.00  0.00     0.033 H 
ATOM     28  H12 ST8 d   1       2.513  44.694  52.822  0.00  0.00     0.033 H 
ATOM     29  H13 ST8 d   1       2.401  46.260  51.949  0.00  0.00     0.033 H 
ATOM     30  H3  ST8 d   1       4.213  47.169  53.457  0.00  0.00     0.043 H 
ENDBRANCH  11  14
ENDBRANCH  10  11
ENDBRANCH   3  10
BRANCH   4  31
ATOM     31  N7  ST8 d   1       8.936  46.812  53.065  0.00  0.00    -0.090 NA
ATOM     32  O24 ST8 d   1      10.067  47.174  53.296  0.00  0.00    -0.060 OA
ENDBRANCH   4  31
BRANCH   1  33
ATOM     33  N2  ST8 d   1       7.820  43.085  49.225  0.00  0.00    -0.188 N 
ATOM     34  H21 ST8 d   1       8.533  42.843  48.522  0.00  0.00     0.184 HD
BRANCH  33  35
ATOM     35  C17 ST8 d   1       6.606  42.435  49.179  0.00  0.00     0.049 A 
ATOM     36  C22 ST8 d   1       5.790  42.283  50.302  0.00  0.00    -0.056 A 
ATOM     37  C21 ST8 d   1       4.561  41.625  50.157  0.00  0.00    -0.066 A 
ATOM     38  H16 ST8 d   1       6.101  42.666  51.267  0.00  0.00     0.087 H 
ATOM     39  C20 ST8 d   1       4.154  41.087  48.922  0.00  0.00     0.032 A 
ATOM     40  H15 ST8 d   1       3.908  41.528  51.017  0.00  0.00     0.085 H 
ATOM     41  C19 ST8 d   1       4.987  41.253  47.817  0.00  0.00    -0.066 A 
ATOM     42  C18 ST8 d   1       6.189  41.906  47.957  0.00  0.00    -0.056 A 
ATOM     43  H14 ST8 d   1       4.688  40.868  46.849  0.00  0.00     0.085 H 
ATOM     44  H22 ST8 d   1       6.832  42.013  47.091  0.00  0.00     0.087 H 
BRANCH  39  45
ATOM     45  C23 ST8 d   1       2.801  40.409  48.728  0.00  0.00     0.249 C 
ATOM     46  N26 ST8 d   1       2.151  39.602  49.702  0.00  0.00    -0.366 N 
ATOM     47  H17 ST8 d   1       1.262  39.191  49.498  0.00  0.00     0.159 HD
ATOM     48  H18 ST8 d   1       2.583  39.446  50.590  0.00  0.00     0.159 HD
ATOM     49  O25 ST8 d   1       2.204  40.639  47.683  0.00  0.00    -0.268 OA
ENDBRANCH  39  45
ENDBRANCH  33  35
ENDBRANCH   1  33
TORSDOF 7
