REMARK WARNING: 32 MAX_TORS EXCEEDED!!!
REMARK  42 active torsions:
REMARK  status: ('A' for Active; 'I' for Inactive)
REMARK    1  A    between atoms: C1_1  and  O1_7 
REMARK    2  A    between atoms: C2_2  and  O2_8 
REMARK    3  A    between atoms: C3_3  and  O3_9 
REMARK    4  A    between atoms: O4_10  and  C4_4 
REMARK    5  A    between atoms: C5_5  and  C6_6 
REMARK    6  A    between atoms: C6_6  and  O6_12 
REMARK    7  A    between atoms: C1_13  and  O4_10 
REMARK    8  A    between atoms: C2_14  and  O2_19 
REMARK    9  A    between atoms: C3_15  and  O3_20 
REMARK   10  A    between atoms: O4_21  and  C4_16 
REMARK   11  A    between atoms: C5_17  and  C6_18 
REMARK   12  A    between atoms: C6_18  and  O6_23 
REMARK   13  A    between atoms: C1_24  and  O4_21 
REMARK   14  A    between atoms: C2_25  and  O2_30 
REMARK   15  A    between atoms: C3_26  and  O3_31 
REMARK   16  A    between atoms: C4_27  and  O4_32 
REMARK   17  A    between atoms: C6_29  and  C5_28 
REMARK   18  A    between atoms: O6_34  and  C6_29 
REMARK   19  A    between atoms: O4_32  and  C1_35 
REMARK   20  A    between atoms: O6_34  and  C1_68 
REMARK   21  A    between atoms: C2_36  and  O2_41 
REMARK   22  A    between atoms: C3_37  and  O3_42 
REMARK   23  A    between atoms: C4_38  and  O4_43 
REMARK   24  A    between atoms: C5_39  and  C6_40 
REMARK   25  A    between atoms: C6_40  and  O6_45 
REMARK   26  A    between atoms: O4_43  and  C1_46 
REMARK   27  A    between atoms: O6_45  and  C1_57 
REMARK   28  A    between atoms: C2_47  and  O2_52 
REMARK   29  A    between atoms: C3_48  and  O3_53 
REMARK   30  A    between atoms: C4_49  and  O4_54 
REMARK   31  A    between atoms: C5_50  and  C6_51 
REMARK   32  A    between atoms: C6_51  and  O6_56 
REMARK   33  A    between atoms: C2_58  and  O2_63 
REMARK   34  A    between atoms: C3_59  and  O3_64 
REMARK   35  A    between atoms: C4_60  and  O4_65 
REMARK   36  A    between atoms: C5_61  and  C6_62 
REMARK   37  A    between atoms: C6_62  and  O6_67 
REMARK   38  A    between atoms: C2_69  and  O2_74 
REMARK   39  A    between atoms: C3_70  and  O3_75 
REMARK   40  A    between atoms: C4_71  and  O4_76 
REMARK   41  A    between atoms: C5_72  and  C6_73 
REMARK   42  A    between atoms: C6_73  and  O6_78 
ROOT
ATOM      1  C1  NON d   1      15.472  21.774  -0.893  0.00  0.00     0.159 C 
ATOM      2  C2  NON d   1      14.633  23.040  -0.947  0.00  0.00     0.110 C 
ATOM      3  C3  NON d   1      13.176  22.681  -0.656  0.00  0.00     0.092 C 
ATOM      4  C4  NON d   1      12.676  21.597  -1.604  0.00  0.00     0.096 C 
ATOM      5  C5  NON d   1      13.617  20.403  -1.544  0.00  0.00     0.089 C 
ATOM      6  O5  NON d   1      14.943  20.847  -1.813  0.00  0.00    -0.348 OA
ATOM      7  H22 NON d   1      15.442  21.359   0.125  0.00  0.00     0.133 H 
ATOM      8  H23 NON d   1      14.986  23.720  -0.157  0.00  0.00     0.094 H 
ATOM      9  H24 NON d   1      13.123  22.269   0.363  0.00  0.00     0.091 H 
ATOM     10  H25 NON d   1      12.626  21.983  -2.633  0.00  0.00     0.091 H 
ATOM     11  H26 NON d   1      13.583  19.986  -0.527  0.00  0.00     0.090 H 
ENDROOT
BRANCH   4  12
ATOM     12  O4  NON d   1      11.402  21.214  -1.167  0.00  0.00    -0.348 OA
BRANCH  12  13
ATOM     13  C1  NON d   1      10.348  21.242  -2.104  0.00  0.00     0.159 C 
ATOM     14  C2  NON d   1       9.117  20.672  -1.438  0.00  0.00     0.110 C 
ATOM     15  C3  NON d   1       7.913  20.779  -2.336  0.00  0.00     0.092 C 
ATOM     16  H32 NON d   1       9.293  19.612  -1.204  0.00  0.00     0.094 H 
ATOM     17  C4  NON d   1       7.754  22.227  -2.781  0.00  0.00     0.096 C 
ATOM     18  H33 NON d   1       8.075  20.159  -3.230  0.00  0.00     0.091 H 
ATOM     19  C5  NON d   1       9.063  22.695  -3.412  0.00  0.00     0.089 C 
ATOM     20  H34 NON d   1       7.499  22.864  -1.921  0.00  0.00     0.091 H 
ATOM     21  O5  NON d   1      10.134  22.568  -2.479  0.00  0.00    -0.348 OA
ATOM     22  H35 NON d   1       9.281  22.084  -4.300  0.00  0.00     0.090 H 
ATOM     23  H31 NON d   1      10.606  20.641  -2.989  0.00  0.00     0.133 H 
BRANCH  14  24
ATOM     24  O2  NON d   1       8.886  21.385  -0.239  0.00  0.00    -0.388 OA
ATOM     25  H38 NON d   1       9.649  21.314   0.323  0.00  0.00     0.210 HD
ENDBRANCH  14  24
BRANCH  15  26
ATOM     26  O3  NON d   1       6.796  20.287  -1.660  0.00  0.00    -0.390 OA
ATOM     27  H39 NON d   1       6.037  20.331  -2.230  0.00  0.00     0.210 HD
ENDBRANCH  15  26
BRANCH  17  28
ATOM     28  O4  NON d   1       6.720  22.285  -3.760  0.00  0.00    -0.348 OA
BRANCH  28  29
ATOM     29  C1  NON d   1       5.573  23.129  -3.464  0.00  0.00     0.159 C 
ATOM     30  C2  NON d   1       5.019  23.605  -4.803  0.00  0.00     0.110 C 
ATOM     31  C3  NON d   1       3.816  24.495  -4.560  0.00  0.00     0.092 C 
ATOM     32  H41 NON d   1       5.778  24.148  -5.385  0.00  0.00     0.094 H 
ATOM     33  C4  NON d   1       2.778  23.768  -3.710  0.00  0.00     0.090 C 
ATOM     34  H42 NON d   1       4.135  25.414  -4.047  0.00  0.00     0.091 H 
ATOM     35  C5  NON d   1       3.341  22.990  -2.534  0.00  0.00     0.089 C 
ATOM     36  H43 NON d   1       2.246  23.064  -4.367  0.00  0.00     0.091 H 
ATOM     37  O5  NON d   1       4.597  22.375  -2.781  0.00  0.00    -0.348 OA
ATOM     38  H44 NON d   1       3.436  23.662  -1.669  0.00  0.00     0.090 H 
ATOM     39  H40 NON d   1       5.878  23.989  -2.849  0.00  0.00     0.133 H 
BRANCH  30  40
ATOM     40  O2  NON d   1       4.642  22.406  -5.449  0.00  0.00    -0.388 OA
ATOM     41  H47 NON d   1       4.021  21.936  -4.905  0.00  0.00     0.210 HD
ENDBRANCH  30  40
BRANCH  31  42
ATOM     42  O3  NON d   1       3.231  24.816  -5.805  0.00  0.00    -0.390 OA
ATOM     43  H48 NON d   1       2.957  24.017  -6.240  0.00  0.00     0.210 HD
ENDBRANCH  31  42
BRANCH  33  44
ATOM     44  O4  NON d   1       1.850  24.693  -3.167  0.00  0.00    -0.390 OA
ATOM     45  H49 NON d   1       2.298  25.269  -2.559  0.00  0.00     0.210 HD
ENDBRANCH  33  44
BRANCH  35  46
ATOM     46  C6  NON d   1       2.339  21.871  -2.241  0.00  0.00     0.043 C 
ATOM     47  H45 NON d   1       1.364  22.314  -1.990  0.00  0.00     0.078 H 
ATOM     48  H46 NON d   1       2.701  21.274  -1.391  0.00  0.00     0.078 H 
BRANCH  46  49
ATOM     49  O6  NON d   1       2.192  21.026  -3.381  0.00  0.00    -0.398 OA
ATOM     50  H50 NON d   1       3.033  20.641  -3.599  0.00  0.00     0.209 HD
ENDBRANCH  46  49
ENDBRANCH  35  46
ENDBRANCH  28  29
ENDBRANCH  17  28
BRANCH  19  51
ATOM     51  C6  NON d   1       8.913  24.143  -3.818  0.00  0.00     0.049 C 
ATOM     52  H36 NON d   1       8.779  24.766  -2.921  0.00  0.00     0.078 H 
ATOM     53  H37 NON d   1       8.038  24.254  -4.476  0.00  0.00     0.078 H 
BRANCH  51  54
ATOM     54  O6  NON d   1      10.067  24.543  -4.500  0.00  0.00    -0.356 OA
BRANCH  54  55
ATOM     55  C1  NON d   1      10.081  24.141  -6.116  0.00  0.00     0.158 C 
ATOM     56  C2  NON d   1      11.461  24.668  -6.539  0.00  0.00     0.110 C 
ATOM     57  C3  NON d   1      11.476  26.183  -6.497  0.00  0.00     0.092 C 
ATOM     58  H52 NON d   1      11.655  24.337  -7.570  0.00  0.00     0.094 H 
ATOM     59  C4  NON d   1      10.227  26.818  -7.113  0.00  0.00     0.090 C 
ATOM     60  H53 NON d   1      11.524  26.500  -5.445  0.00  0.00     0.091 H 
ATOM     61  C5  NON d   1       8.966  26.298  -6.429  0.00  0.00     0.089 C 
ATOM     62  H54 NON d   1      10.284  27.905  -6.956  0.00  0.00     0.091 H 
ATOM     63  O5  NON d   1       8.945  24.893  -6.601  0.00  0.00    -0.348 OA
ATOM     64  H55 NON d   1       9.034  26.523  -5.354  0.00  0.00     0.090 H 
ATOM     65  H51 NON d   1       9.975  23.066  -6.325  0.00  0.00     0.133 H 
BRANCH  56  66
ATOM     66  O2  NON d   1      12.496  24.181  -5.710  0.00  0.00    -0.388 OA
ATOM     67  H58 NON d   1      13.332  24.505  -6.025  0.00  0.00     0.210 HD
ENDBRANCH  56  66
BRANCH  57  68
ATOM     68  O3  NON d   1      12.643  26.608  -7.147  0.00  0.00    -0.390 OA
ATOM     69  H59 NON d   1      13.398  26.197  -6.742  0.00  0.00     0.210 HD
ENDBRANCH  57  68
BRANCH  59  70
ATOM     70  O4  NON d   1      10.157  26.574  -8.511  0.00  0.00    -0.390 OA
ATOM     71  H60 NON d   1      10.080  25.640  -8.665  0.00  0.00     0.210 HD
ENDBRANCH  59  70
BRANCH  61  72
ATOM     72  C6  NON d   1       7.678  26.946  -6.960  0.00  0.00     0.043 C 
ATOM     73  H56 NON d   1       7.906  27.536  -7.860  0.00  0.00     0.078 H 
ATOM     74  H57 NON d   1       7.251  27.604  -6.189  0.00  0.00     0.078 H 
BRANCH  72  75
ATOM     75  O6  NON d   1       6.751  25.931  -7.282  0.00  0.00    -0.398 OA
ATOM     76  H61 NON d   1       7.122  25.364  -7.947  0.00  0.00     0.209 HD
ENDBRANCH  72  75
ENDBRANCH  61  72
ENDBRANCH  54  55
ENDBRANCH  51  54
ENDBRANCH  19  51
ENDBRANCH  12  13
ENDBRANCH   4  12
BRANCH   3  77
ATOM     77  O3  NON d   1      12.404  23.852  -0.679  0.00  0.00    -0.390 OA
ATOM     78  H30 NON d   1      11.511  23.646  -0.428  0.00  0.00     0.210 HD
ENDBRANCH   3  77
BRANCH   5  79
ATOM     79  C6  NON d   1      13.217  19.299  -2.523  0.00  0.00     0.049 C 
ATOM     80  H27 NON d   1      12.208  18.938  -2.275  0.00  0.00     0.078 H 
ATOM     81  H28 NON d   1      13.933  18.467  -2.448  0.00  0.00     0.078 H 
BRANCH  79  82
ATOM     82  O6  NON d   1      13.223  19.808  -3.845  0.00  0.00    -0.356 OA
BRANCH  82  83
ATOM     83  C1  NON d   1      13.135  18.674  -5.347  0.00  0.00     0.158 C 
ATOM     84  C2  NON d   1      13.964  19.432  -6.376  0.00  0.00     0.110 C 
ATOM     85  C3  NON d   1      13.317  20.775  -6.707  0.00  0.00     0.092 C 
ATOM     86  H63 NON d   1      14.008  18.835  -7.299  0.00  0.00     0.094 H 
ATOM     87  C4  NON d   1      11.862  20.566  -7.066  0.00  0.00     0.090 C 
ATOM     88  H64 NON d   1      13.414  21.481  -5.869  0.00  0.00     0.091 H 
ATOM     89  C5  NON d   1      11.176  20.044  -5.819  0.00  0.00     0.089 C 
ATOM     90  H65 NON d   1      11.404  21.511  -7.394  0.00  0.00     0.091 H 
ATOM     91  O5  NON d   1      11.727  18.781  -5.506  0.00  0.00    -0.348 OA
ATOM     92  H66 NON d   1      11.345  20.760  -5.001  0.00  0.00     0.090 H 
ATOM     93  H62 NON d   1      13.486  17.641  -5.206  0.00  0.00     0.133 H 
BRANCH  84  94
ATOM     94  O2  NON d   1      15.293  19.604  -5.885  0.00  0.00    -0.388 OA
ATOM     95  H69 NON d   1      15.669  18.754  -5.688  0.00  0.00     0.210 HD
ENDBRANCH  84  94
BRANCH  85  96
ATOM     96  O3  NON d   1      13.986  21.243  -7.864  0.00  0.00    -0.390 OA
ATOM     97  H70 NON d   1      13.906  20.598  -8.557  0.00  0.00     0.210 HD
ENDBRANCH  85  96
BRANCH  87  98
ATOM     98  O4  NON d   1      11.764  19.586  -8.105  0.00  0.00    -0.390 OA
ATOM     99  H71 NON d   1      12.185  18.783  -7.822  0.00  0.00     0.210 HD
ENDBRANCH  87  98
BRANCH  89 100
ATOM    100  C6  NON d   1       9.677  19.769  -5.951  0.00  0.00     0.043 C 
ATOM    101  H67 NON d   1       9.269  19.539  -4.956  0.00  0.00     0.078 H 
ATOM    102  H68 NON d   1       9.531  18.905  -6.616  0.00  0.00     0.078 H 
BRANCH 100 103
ATOM    103  O6  NON d   1       8.985  20.873  -6.482  0.00  0.00    -0.398 OA
ATOM    104  H72 NON d   1       8.061  20.664  -6.548  0.00  0.00     0.209 HD
ENDBRANCH 100 103
ENDBRANCH  89 100
ENDBRANCH  82  83
ENDBRANCH  79  82
ENDBRANCH   5  79
BRANCH   2 105
ATOM    105  O2  NON d   1      14.767  23.719  -2.193  0.00  0.00    -0.388 OA
ATOM    106  H29 NON d   1      15.682  23.927  -2.342  0.00  0.00     0.210 HD
ENDBRANCH   2 105
BRANCH   1 107
ATOM    107  O4  NON d   1      16.813  22.023  -1.265  0.00  0.00    -0.348 OA
BRANCH 107 108
ATOM    108  C4  NON d   1      17.776  21.131  -0.732  0.00  0.00     0.096 C 
ATOM    109  C3  NON d   1      18.189  20.019  -1.735  0.00  0.00     0.092 C 
ATOM    110  C2  NON d   1      19.412  19.295  -1.149  0.00  0.00     0.110 C 
ATOM    111  H14 NON d   1      18.450  20.480  -2.699  0.00  0.00     0.091 H 
ATOM    112  C1  NON d   1      20.496  20.318  -0.863  0.00  0.00     0.159 C 
ATOM    113  H13 NON d   1      19.808  18.611  -1.914  0.00  0.00     0.094 H 
ATOM    114  O5  NON d   1      20.029  21.277   0.094  0.00  0.00    -0.348 OA
ATOM    115  H12 NON d   1      20.715  20.853  -1.799  0.00  0.00     0.133 H 
ATOM    116  C5  NON d   1      18.930  22.063  -0.336  0.00  0.00     0.089 C 
ATOM    117  H16 NON d   1      19.233  22.640  -1.222  0.00  0.00     0.090 H 
ATOM    118  H15 NON d   1      17.373  20.640   0.166  0.00  0.00     0.091 H 
BRANCH 109 119
ATOM    119  O3  NON d   1      17.162  19.068  -1.942  0.00  0.00    -0.390 OA
ATOM    120  H20 NON d   1      16.393  19.505  -2.289  0.00  0.00     0.210 HD
ENDBRANCH 109 119
BRANCH 110 121
ATOM    121  O2  NON d   1      19.011  18.500  -0.056  0.00  0.00    -0.388 OA
ATOM    122  H19 NON d   1      18.374  17.859  -0.349  0.00  0.00     0.210 HD
ENDBRANCH 110 121
BRANCH 112 123
ATOM    123  O4  NON d   1      21.717  19.677  -0.426  0.00  0.00    -0.348 OA
BRANCH 123 124
ATOM    124  C4  NON d   1      22.718  20.674  -0.117  0.00  0.00     0.096 C 
ATOM    125  C3  NON d   1      22.475  21.274   1.276  0.00  0.00     0.092 C 
ATOM    126  C2  NON d   1      23.558  22.253   1.719  0.00  0.00     0.110 C 
ATOM    127  H3  NON d   1      22.654  20.398   1.917  0.00  0.00     0.091 H 
ATOM    128  C1  NON d   1      24.928  21.593   1.611  0.00  0.00     0.156 C 
ATOM    129  H2  NON d   1      23.412  22.379   2.802  0.00  0.00     0.094 H 
ATOM    130  O5  NON d   1      25.071  21.206   0.264  0.00  0.00    -0.349 OA
ATOM    131  H1  NON d   1      24.960  20.701   2.254  0.00  0.00     0.133 H 
ATOM    132  C5  NON d   1      24.163  20.161  -0.103  0.00  0.00     0.089 C 
ATOM    133  H5  NON d   1      24.229  19.356   0.644  0.00  0.00     0.090 H 
ATOM    134  H4  NON d   1      22.638  21.468  -0.874  0.00  0.00     0.091 H 
BRANCH 125 135
ATOM    135  O3  NON d   1      21.387  21.619   1.644  0.00  0.00    -0.390 OA
ATOM    136  H10 NON d   1      21.057  22.295   1.064  0.00  0.00     0.210 HD
ENDBRANCH 125 135
BRANCH 126 137
ATOM    137  O2  NON d   1      23.390  23.321   1.301  0.00  0.00    -0.388 OA
ATOM    138  H9  NON d   1      22.554  23.652   1.607  0.00  0.00     0.210 HD
ENDBRANCH 126 137
BRANCH 128 139
ATOM    139  O1  NON d   1      25.957  22.480   2.020  0.00  0.00    -0.369 OA
ATOM    140  H8  NON d   1      25.932  23.262   1.481  0.00  0.00     0.212 HD
ENDBRANCH 128 139
BRANCH 132 141
ATOM    141  C6  NON d   1      24.599  19.605  -1.448  0.00  0.00     0.043 C 
ATOM    142  H6  NON d   1      23.820  18.938  -1.846  0.00  0.00     0.078 H 
ATOM    143  H7  NON d   1      25.538  19.044  -1.333  0.00  0.00     0.078 H 
BRANCH 141 144
ATOM    144  O6  NON d   1      24.793  20.683  -2.322  0.00  0.00    -0.398 OA
ATOM    145  H11 NON d   1      25.464  21.257  -1.971  0.00  0.00     0.209 HD
ENDBRANCH 141 144
ENDBRANCH 132 141
ENDBRANCH 123 124
ENDBRANCH 112 123
BRANCH 116 146
ATOM    146  C6  NON d   1      18.513  23.056   0.767  0.00  0.00     0.043 C 
ATOM    147  H17 NON d   1      18.245  22.470   1.659  0.00  0.00     0.078 H 
ATOM    148  H18 NON d   1      17.628  23.601   0.407  0.00  0.00     0.078 H 
BRANCH 146 149
ATOM    149  O6  NON d   1      19.483  24.022   1.161  0.00  0.00    -0.398 OA
ATOM    150  H21 NON d   1      20.255  23.578   1.492  0.00  0.00     0.209 HD
ENDBRANCH 146 149
ENDBRANCH 116 146
ENDBRANCH 107 108
ENDBRANCH   1 107
TORSDOF 42
