REMARK  6 active torsions:
REMARK  status: ('A' for Active; 'I' for Inactive)
REMARK    1  A    between atoms: N2_23  and  C2_1 
REMARK    2  A    between atoms: C20_12  and  O23_2 
REMARK    3  A    between atoms: C10_4  and  C11_5 
REMARK    4  A    between atoms: O6_17  and  C10_4 
REMARK    5  A    between atoms: C6_16  and  O6_17 
REMARK    6  A    between atoms: N2_23  and  C17_24 
ROOT
ATOM      1  C2  N20 d   1       7.943  43.794  49.804  0.00  0.00     0.731 A 
ATOM      2  C8  N20 d   1      10.683  46.487  52.023  0.00  0.00     0.066 A 
ATOM      3  N1  N20 d   1       6.990  44.461  50.504  0.00  0.00    -0.035 NA
ATOM      4  C6  N20 d   1       7.275  45.439  51.388  0.00  0.00     0.216 A 
ATOM      5  C5  N20 d   1       8.684  45.792  51.576  0.00  0.00     0.158 A 
ATOM      6  N7  N20 d   1       9.344  46.707  52.349  0.00  0.00    -0.236 NA
ATOM      7  N9  N20 d   1      10.938  45.497  51.072  0.00  0.00    -0.333 N 
ATOM      8  C4  N20 d   1       9.643  45.060  50.801  0.00  0.00     0.181 A 
ATOM      9  N3  N20 d   1       9.266  44.082  49.948  0.00  0.00    -0.042 NA
ATOM     10  H2  N20 d   1      11.487  47.057  52.486  0.00  0.00     0.143 H 
ATOM     11  H19 N20 d   1      11.835  45.178  50.679  0.00  0.00     0.168 HD
ENDROOT
BRANCH   4  12
ATOM     12  O6  N20 d   1       6.295  46.109  52.070  0.00  0.00    -0.332 OA
BRANCH  12  13
ATOM     13  C10 N20 d   1       4.933  45.943  51.686  0.00  0.00     0.031 C 
ATOM     14  H3  N20 d   1       4.685  46.662  50.891  0.00  0.00     0.075 H 
ATOM     15  H4  N20 d   1       4.778  44.919  51.316  0.00  0.00     0.075 H 
BRANCH  13  16
ATOM     16  C11 N20 d   1       4.036  46.189  52.893  0.00  0.00    -0.033 C 
ATOM     17  C12 N20 d   1       2.607  45.753  52.548  0.00  0.00    -0.060 C 
ATOM     18  C13 N20 d   1       1.634  45.891  53.731  0.00  0.00    -0.065 C 
ATOM     19  H6  N20 d   1       2.628  44.699  52.233  0.00  0.00     0.033 H 
ATOM     20  H7  N20 d   1       2.241  46.376  51.719  0.00  0.00     0.033 H 
ATOM     21  C14 N20 d   1       2.195  45.358  55.054  0.00  0.00    -0.065 C 
ATOM     22  H8  N20 d   1       0.716  45.333  53.493  0.00  0.00     0.033 H 
ATOM     23  H9  N20 d   1       1.393  46.956  53.860  0.00  0.00     0.033 H 
ATOM     24  C15 N20 d   1       3.634  45.815  55.317  0.00  0.00    -0.065 C 
ATOM     25  H10 N20 d   1       2.175  44.258  55.026  0.00  0.00     0.033 H 
ATOM     26  H11 N20 d   1       1.557  45.716  55.876  0.00  0.00     0.033 H 
ATOM     27  C16 N20 d   1       4.540  45.460  54.142  0.00  0.00    -0.060 C 
ATOM     28  H12 N20 d   1       4.010  45.319  56.224  0.00  0.00     0.033 H 
ATOM     29  H13 N20 d   1       3.645  46.905  55.464  0.00  0.00     0.033 H 
ATOM     30  H14 N20 d   1       5.571  45.773  54.362  0.00  0.00     0.033 H 
ATOM     31  H15 N20 d   1       4.516  44.374  53.971  0.00  0.00     0.033 H 
ATOM     32  H5  N20 d   1       4.032  47.268  53.108  0.00  0.00     0.043 H 
ENDBRANCH  13  16
ENDBRANCH  12  13
ENDBRANCH   4  12
BRANCH   1  33
ATOM     33  N2  N20 d   1       7.575  42.824  48.926  0.00  0.00    -0.188 N 
ATOM     34  H20 N20 d   1       8.253  42.582  48.190  0.00  0.00     0.184 HD
BRANCH  33  35
ATOM     35  C17 N20 d   1       6.403  42.144  48.925  0.00  0.00     0.049 A 
ATOM     36  C22 N20 d   1       5.974  41.513  47.750  0.00  0.00    -0.054 A 
ATOM     37  C21 N20 d   1       4.766  40.807  47.734  0.00  0.00    -0.049 A 
ATOM     38  H18 N20 d   1       6.579  41.572  46.852  0.00  0.00     0.087 H 
ATOM     39  C20 N20 d   1       4.028  40.724  48.909  0.00  0.00     0.065 A 
ATOM     40  H17 N20 d   1       4.413  40.335  46.824  0.00  0.00     0.087 H 
ATOM     41  C19 N20 d   1       4.464  41.348  50.069  0.00  0.00    -0.049 A 
ATOM     42  C18 N20 d   1       5.642  42.057  50.083  0.00  0.00    -0.054 A 
ATOM     43  H16 N20 d   1       3.870  41.276  50.973  0.00  0.00     0.087 H 
ATOM     44  H21 N20 d   1       5.974  42.545  50.992  0.00  0.00     0.087 H 
BRANCH  39  45
ATOM     45  O23 N20 d   1       2.875  40.074  48.952  0.00  0.00    -0.361 OA
ATOM     46  H1  N20 d   1       2.180  40.679  49.185  0.00  0.00     0.217 HD
ENDBRANCH  39  45
ENDBRANCH  33  35
ENDBRANCH   1  33
TORSDOF 6
