REMARK  5 active torsions:
REMARK  status: ('A' for Active; 'I' for Inactive)
REMARK    1  A    between atoms: C2_2  and  O2_3 
REMARK    2  A    between atoms: C3_4  and  O3_5 
REMARK    3  A    between atoms: C4_6  and  O4_7 
REMARK    4  A    between atoms: C5_8  and  C6_10 
REMARK    5  A    between atoms: C6_10  and  O6_11 
ROOT
ATOM      1  C1  NOJ d   1      -0.366  10.944  10.794  0.00  0.00     0.108 C 
ATOM      2  C2  NOJ d   1       0.522  11.679   9.771  0.00  0.00     0.086 C 
ATOM      3  C3  NOJ d   1      -0.111  11.917   8.397  0.00  0.00     0.088 C 
ATOM      4  C4  NOJ d   1      -0.979  10.684   8.022  0.00  0.00     0.092 C 
ATOM      5  C5  NOJ d   1      -2.168  10.631   9.012  0.00  0.00     0.149 C 
ATOM      6  N5  NOJ d   1      -1.720  10.537  10.424  0.00  0.00    -0.064 N 
ATOM      7  H1  NOJ d   1      -0.461  11.607  11.667  0.00  0.00     0.079 H 
ATOM      8  H2  NOJ d   1       0.173  10.030  11.084  0.00  0.00     0.079 H 
ATOM      9  H3  NOJ d   1       1.406  11.047   9.602  0.00  0.00     0.089 H 
ATOM     10  H5  NOJ d   1      -0.768  12.799   8.429  0.00  0.00     0.091 H 
ATOM     11  H7  NOJ d   1      -0.386   9.767   8.152  0.00  0.00     0.090 H 
ATOM     12  H9  NOJ d   1      -2.740  11.561   8.880  0.00  0.00     0.091 H 
ATOM     13  H10 NOJ d   1      -2.352  11.104  10.967  0.00  0.00     0.277 HD
ATOM     14  H11 NOJ d   1      -1.817   9.571  10.695  0.00  0.00     0.277 HD
ENDROOT
BRANCH   5  15
ATOM     15  C6  NOJ d   1      -3.122   9.443   8.814  0.00  0.00     0.046 C 
ATOM     16  H12 NOJ d   1      -3.590   9.513   7.821  0.00  0.00     0.077 H 
ATOM     17  H13 NOJ d   1      -3.902   9.469   9.589  0.00  0.00     0.077 H 
BRANCH  15  18
ATOM     18  O6  NOJ d   1      -2.407   8.224   8.910  0.00  0.00    -0.399 OA
ATOM     19  H14 NOJ d   1      -1.734   8.199   8.240  0.00  0.00     0.209 HD
ENDBRANCH  15  18
ENDBRANCH   5  15
BRANCH   4  20
ATOM     20  O4  NOJ d   1      -1.335  10.782   6.650  0.00  0.00    -0.391 OA
ATOM     21  H8  NOJ d   1      -1.867  10.033   6.408  0.00  0.00     0.210 HD
ENDBRANCH   4  20
BRANCH   3  22
ATOM     22  O3  NOJ d   1       1.000  12.196   7.515  0.00  0.00    -0.390 OA
ATOM     23  H6  NOJ d   1       0.674  12.355   6.637  0.00  0.00     0.210 HD
ENDBRANCH   3  22
BRANCH   2  24
ATOM     24  O2  NOJ d   1       0.960  12.891  10.339  0.00  0.00    -0.391 OA
ATOM     25  H4  NOJ d   1       0.207  13.428  10.557  0.00  0.00     0.210 HD
ENDBRANCH   2  24
TORSDOF 5
