REMARK  4 active torsions:
REMARK  status: ('A' for Active; 'I' for Inactive)
REMARK    1  A    between atoms: C18_2  and  C19_3 
REMARK       I    between atoms: C18_2  and  N17_4 
REMARK    2  A    between atoms: N17_4  and  C15_5 
REMARK    3  A    between atoms: C11_10  and  C7_11 
REMARK    4  A    between atoms: C9_15  and  C10_16 
ROOT
ATOM      1  C7  HDU d   1      14.840  -8.150  12.567  0.00  0.00     0.092 A 
ATOM      2  N6  HDU d   1      14.585  -7.508  11.296  0.00  0.00    -0.304 N 
ATOM      3  C5  HDU d   1      15.685  -6.689  11.013  0.00  0.00     0.112 A 
ATOM      4  N8  HDU d   1      16.613  -6.783  12.062  0.00  0.00    -0.344 N 
ATOM      5  C9  HDU d   1      16.165  -7.628  13.020  0.00  0.00     0.036 A 
ATOM      6  C4  HDU d   1      15.711  -5.947   9.834  0.00  0.00    -0.040 A 
ATOM      7  C3  HDU d   1      14.645  -6.013   8.925  0.00  0.00    -0.078 A 
ATOM      8  C2  HDU d   1      13.553  -6.824   9.227  0.00  0.00    -0.067 A 
ATOM      9  C1  HDU d   1      13.555  -7.560  10.425  0.00  0.00    -0.013 A 
ATOM     10  H7  HDU d   1      17.511  -6.279  12.098  0.00  0.00     0.167 HD
ATOM     11  H11 HDU d   1      16.563  -5.313   9.617  0.00  0.00     0.089 H 
ATOM     12  H12 HDU d   1      14.670  -5.443   8.003  0.00  0.00     0.083 H 
ATOM     13  H13 HDU d   1      12.712  -6.887   8.546  0.00  0.00     0.085 H 
ATOM     14  H14 HDU d   1      12.703  -8.189  10.656  0.00  0.00     0.112 H 
ENDROOT
BRANCH   1  15
ATOM     15  C11 HDU d   1      13.902  -9.080  13.285  0.00  0.00     0.106 A 
ATOM     16  N16 HDU d   1      12.841  -9.542  12.624  0.00  0.00    -0.060 NA
ATOM     17  C15 HDU d   1      11.903 -10.394  13.289  0.00  0.00     0.729 A 
ATOM     18  N14 HDU d   1      12.184 -10.698  14.663  0.00  0.00    -0.075 NA
ATOM     19  C13 HDU d   1      13.260 -10.178  15.246  0.00  0.00     0.023 A 
ATOM     20  C12 HDU d   1      14.096  -9.396  14.586  0.00  0.00    -0.035 A 
ATOM     21  H5  HDU d   1      13.456 -10.401  16.288  0.00  0.00     0.115 H 
ATOM     22  H6  HDU d   1      14.962  -8.996  15.102  0.00  0.00     0.089 H 
BRANCH  17  23
ATOM     23  N17 HDU d   1      10.734 -10.925  12.619  0.00  0.00    -0.156 N 
ATOM     24  C18 HDU d   1      10.352 -10.552  11.391  0.00  0.00     0.232 C 
ATOM     25  O20 HDU d   1      10.972  -9.721  10.717  0.00  0.00    -0.273 OA
ATOM     26  H4  HDU d   1      10.182 -11.607  13.099  0.00  0.00     0.187 HD
BRANCH  24  27
ATOM     27  C19 HDU d   1       9.116 -11.183  10.819  0.00  0.00    -0.002 C 
ATOM     28  H1  HDU d   1       8.695 -11.892  11.547  0.00  0.00     0.040 H 
ATOM     29  H2  HDU d   1       9.373 -11.718   9.893  0.00  0.00     0.040 H 
ATOM     30  H3  HDU d   1       8.374 -10.402  10.598  0.00  0.00     0.040 H 
ENDBRANCH  24  27
ENDBRANCH  17  23
ENDBRANCH   1  15
BRANCH   5  31
ATOM     31  C10 HDU d   1      16.944  -7.952  14.262  0.00  0.00    -0.035 C 
ATOM     32  H8  HDU d   1      16.371  -8.659  14.880  0.00  0.00     0.035 H 
ATOM     33  H9  HDU d   1      17.125  -7.029  14.832  0.00  0.00     0.035 H 
ATOM     34  H10 HDU d   1      17.906  -8.406  13.983  0.00  0.00     0.035 H 
ENDBRANCH   5  31
TORSDOF 4
