REMARK  12 active torsions:
REMARK  status: ('A' for Active; 'I' for Inactive)
REMARK    1  A    between atoms: C10_1  and  C9_2 
REMARK    2  A    between atoms: C7_10  and  C11_11 
REMARK    3  A    between atoms: C15_16  and  N17_17 
REMARK    4  A    between atoms: N17_17  and  C18_18 
REMARK    5  A    between atoms: C21_23  and  O24_24 
REMARK    6  A    between atoms: O24_24  and  C25_25 
REMARK    7  A    between atoms: C25_25  and  C26_26 
REMARK    8  A    between atoms: C26_26  and  O31_27 
REMARK    9  A    between atoms: C26_26  and  C27_28 
REMARK   10  A    between atoms: C27_28  and  N28_29 
REMARK   11  A    between atoms: N28_29  and  C30_30 
REMARK   12  A    between atoms: N28_29  and  C29_31 
ROOT
ATOM      1  C18 HDY d   1       3.822  27.314   6.082  0.00  0.00     0.049 A 
ATOM      2  C19 HDY d   1       4.470  26.831   4.948  0.00  0.00    -0.054 A 
ATOM      3  C20 HDY d   1       5.003  25.539   4.904  0.00  0.00    -0.049 A 
ATOM      4  C23 HDY d   1       3.721  26.470   7.201  0.00  0.00    -0.054 A 
ATOM      5  C22 HDY d   1       4.260  25.170   7.152  0.00  0.00    -0.049 A 
ATOM      6  C21 HDY d   1       4.891  24.682   5.999  0.00  0.00     0.069 A 
ATOM      7  H12 HDY d   1       4.564  27.472   4.079  0.00  0.00     0.087 H 
ATOM      8  H13 HDY d   1       5.510  25.199   4.008  0.00  0.00     0.087 H 
ATOM      9  H14 HDY d   1       3.228  26.819   8.101  0.00  0.00     0.087 H 
ATOM     10  H15 HDY d   1       4.185  24.532   8.025  0.00  0.00     0.087 H 
ENDROOT
BRANCH   1  11
ATOM     11  N17 HDY d   1       3.363  28.596   6.017  0.00  0.00    -0.188 N 
ATOM     12  H11 HDY d   1       3.993  29.258   5.542  0.00  0.00     0.184 HD
BRANCH  11  13
ATOM     13  C15 HDY d   1       2.208  29.139   6.479  0.00  0.00     0.727 A 
ATOM     14  N14 HDY d   1       1.908  30.436   6.181  0.00  0.00    -0.075 NA
ATOM     15  C13 HDY d   1       0.786  31.035   6.609  0.00  0.00     0.023 A 
ATOM     16  C12 HDY d   1      -0.121  30.306   7.371  0.00  0.00    -0.035 A 
ATOM     17  H10 HDY d   1       0.589  32.072   6.364  0.00  0.00     0.115 H 
ATOM     18  C11 HDY d   1       0.194  28.981   7.654  0.00  0.00     0.106 A 
ATOM     19  H9  HDY d   1      -1.040  30.754   7.731  0.00  0.00     0.089 H 
ATOM     20  N16 HDY d   1       1.354  28.431   7.230  0.00  0.00    -0.060 NA
BRANCH  18  21
ATOM     21  C7  HDY d   1      -0.658  28.122   8.488  0.00  0.00     0.092 A 
ATOM     22  C9  HDY d   1      -1.766  28.494   9.424  0.00  0.00     0.036 A 
ATOM     23  N8  HDY d   1      -2.233  27.386  10.004  0.00  0.00    -0.344 N 
ATOM     24  C5  HDY d   1      -1.502  26.323   9.549  0.00  0.00     0.112 A 
ATOM     25  H4  HDY d   1      -3.010  27.340  10.678  0.00  0.00     0.167 HD
ATOM     26  C4  HDY d   1      -1.670  24.994   9.881  0.00  0.00    -0.040 A 
ATOM     27  N6  HDY d   1      -0.527  26.690   8.619  0.00  0.00    -0.304 N 
ATOM     28  C3  HDY d   1      -0.828  24.066   9.270  0.00  0.00    -0.078 A 
ATOM     29  H5  HDY d   1      -2.428  24.683  10.590  0.00  0.00     0.089 H 
ATOM     30  C2  HDY d   1       0.148  24.468   8.342  0.00  0.00    -0.067 A 
ATOM     31  H6  HDY d   1      -0.928  23.015   9.515  0.00  0.00     0.083 H 
ATOM     32  C1  HDY d   1       0.290  25.820   8.002  0.00  0.00    -0.013 A 
ATOM     33  H7  HDY d   1       0.795  23.727   7.886  0.00  0.00     0.085 H 
ATOM     34  H8  HDY d   1       1.024  26.148   7.275  0.00  0.00     0.112 H 
BRANCH  22  35
ATOM     35  C10 HDY d   1      -2.302  29.869   9.688  0.00  0.00    -0.035 C 
ATOM     36  H1  HDY d   1      -1.745  30.602   9.085  0.00  0.00     0.035 H 
ATOM     37  H2  HDY d   1      -2.187  30.109  10.755  0.00  0.00     0.035 H 
ATOM     38  H3  HDY d   1      -3.367  29.906   9.417  0.00  0.00     0.035 H 
ENDBRANCH  22  35
ENDBRANCH  18  21
ENDBRANCH  11  13
ENDBRANCH   1  11
BRANCH   6  39
ATOM     39  O24 HDY d   1       5.445  23.397   5.984  0.00  0.00    -0.349 OA
BRANCH  39  40
ATOM     40  C25 HDY d   1       5.075  22.224   5.228  0.00  0.00     0.051 C 
ATOM     41  H16 HDY d   1       4.677  22.535   4.250  0.00  0.00     0.079 H 
ATOM     42  H17 HDY d   1       4.302  21.668   5.779  0.00  0.00     0.079 H 
BRANCH  40  43
ATOM     43  C26 HDY d   1       6.301  21.308   5.010  0.00  0.00     0.080 C 
ATOM     44  H18 HDY d   1       6.431  21.175   3.926  0.00  0.00     0.088 H 
BRANCH  43  45
ATOM     45  O31 HDY d   1       7.467  21.935   5.546  0.00  0.00    -0.392 OA
ATOM     46  H19 HDY d   1       7.345  22.085   6.476  0.00  0.00     0.210 HD
ENDBRANCH  43  45
BRANCH  43  47
ATOM     47  C27 HDY d   1       6.176  19.911   5.652  0.00  0.00     0.108 C 
ATOM     48  H20 HDY d   1       5.825  20.047   6.686  0.00  0.00     0.080 H 
ATOM     49  H21 HDY d   1       7.177  19.455   5.661  0.00  0.00     0.080 H 
BRANCH  47  50
ATOM     50  N28 HDY d   1       5.259  18.970   4.986  0.00  0.00    -0.076 N 
ATOM     51  H22 HDY d   1       4.679  19.466   4.327  0.00  0.00     0.279 HD
BRANCH  50  52
ATOM     52  C30 HDY d   1       6.029  17.925   4.322  0.00  0.00     0.066 C 
ATOM     53  H23 HDY d   1       5.343  17.223   3.825  0.00  0.00     0.068 H 
ATOM     54  H24 HDY d   1       6.631  17.384   5.067  0.00  0.00     0.068 H 
ATOM     55  H25 HDY d   1       6.694  18.379   3.573  0.00  0.00     0.068 H 
ENDBRANCH  50  52
BRANCH  50  56
ATOM     56  C29 HDY d   1       4.441  18.264   5.968  0.00  0.00     0.066 C 
ATOM     57  H26 HDY d   1       3.823  18.988   6.519  0.00  0.00     0.068 H 
ATOM     58  H27 HDY d   1       5.094  17.729   6.673  0.00  0.00     0.068 H 
ATOM     59  H28 HDY d   1       3.790  17.543   5.452  0.00  0.00     0.068 H 
ENDBRANCH  50  56
ENDBRANCH  47  50
ENDBRANCH  43  47
ENDBRANCH  40  43
ENDBRANCH  39  40
ENDBRANCH   6  39
TORSDOF 12
