REMARK  5 active torsions:
REMARK  status: ('A' for Active; 'I' for Inactive)
REMARK    1  A    between atoms: C10_9  and  C9_10 
REMARK    2  A    between atoms: N16_24  and  C17_13 
REMARK    3  A    between atoms: C14_14  and  N16_24 
REMARK    4  A    between atoms: C20_18  and  S23_20 
REMARK    5  A    between atoms: S23_20  and  N24_22 
ROOT
ATOM      1  C11 HDT d   1      13.837  -9.404  13.946  0.00  0.00    -0.035 A 
ATOM      2  C10 HDT d   1      13.426  -9.033  12.676  0.00  0.00     0.105 A 
ATOM      3  C12 HDT d   1      13.060 -10.322  14.638  0.00  0.00     0.023 A 
ATOM      4  C14 HDT d   1      11.557 -10.468  12.831  0.00  0.00     0.727 A 
ATOM      5  N15 HDT d   1      12.303  -9.579  12.138  0.00  0.00    -0.061 NA
ATOM      6  N13 HDT d   1      11.959 -10.830  14.068  0.00  0.00    -0.075 NA
ATOM      7  H6  HDT d   1      14.737  -8.990  14.385  0.00  0.00     0.089 H 
ATOM      8  H8  HDT d   1      13.343 -10.628  15.639  0.00  0.00     0.115 H 
ENDROOT
BRANCH   4   9
ATOM      9  N16 HDT d   1      10.444 -11.081  12.335  0.00  0.00    -0.188 N 
ATOM     10  H14 HDT d   1      10.063 -11.822  12.941  0.00  0.00     0.184 HD
BRANCH   9  11
ATOM     11  C17 HDT d   1       9.724 -10.881  11.142  0.00  0.00     0.049 A 
ATOM     12  C22 HDT d   1       8.701 -11.779  10.818  0.00  0.00    -0.055 A 
ATOM     13  C21 HDT d   1       7.913 -11.592   9.684  0.00  0.00    -0.058 A 
ATOM     14  H1  HDT d   1       8.519 -12.634  11.459  0.00  0.00     0.087 H 
ATOM     15  C20 HDT d   1       8.119 -10.480   8.868  0.00  0.00     0.079 A 
ATOM     16  H13 HDT d   1       7.140 -12.311   9.436  0.00  0.00     0.086 H 
ATOM     17  C19 HDT d   1       9.107  -9.562   9.206  0.00  0.00    -0.058 A 
ATOM     18  C18 HDT d   1       9.897  -9.754  10.342  0.00  0.00    -0.055 A 
ATOM     19  H10 HDT d   1       9.266  -8.690   8.582  0.00  0.00     0.086 H 
ATOM     20  H9  HDT d   1      10.651  -9.020  10.603  0.00  0.00     0.087 H 
BRANCH  15  21
ATOM     21  S23 HDT d   1       7.198 -10.243   7.575  0.00  0.00     0.256 S 
ATOM     22  O25 HDT d   1       6.724 -11.498   7.052  0.00  0.00    -0.201 OA
ATOM     23  O26 HDT d   1       6.081  -9.449   7.989  0.00  0.00    -0.201 OA
BRANCH  21  24
ATOM     24  N24 HDT d   1       8.004  -9.454   6.439  0.00  0.00    -0.324 N 
ATOM     25  H11 HDT d   1       7.558  -9.233   5.572  0.00  0.00     0.169 HD
ATOM     26  H12 HDT d   1       8.953  -9.182   6.597  0.00  0.00     0.169 HD
ENDBRANCH  21  24
ENDBRANCH  15  21
ENDBRANCH   9  11
ENDBRANCH   4   9
BRANCH   2  27
ATOM     27  C9  HDT d   1      14.230  -8.045  11.891  0.00  0.00     0.085 A 
ATOM     28  N1  HDT d   1      14.276  -8.000  10.542  0.00  0.00    -0.305 N 
ATOM     29  C2  HDT d   1      13.644  -8.773   9.649  0.00  0.00    -0.013 A 
ATOM     30  C6  HDT d   1      15.085  -7.006  10.236  0.00  0.00     0.111 A 
ATOM     31  C3  HDT d   1      13.862  -8.506   8.301  0.00  0.00    -0.067 A 
ATOM     32  H2  HDT d   1      12.988  -9.576   9.965  0.00  0.00     0.112 H 
ATOM     33  C4  HDT d   1      14.724  -7.457   7.959  0.00  0.00    -0.078 A 
ATOM     34  H5  HDT d   1      13.376  -9.097   7.533  0.00  0.00     0.085 H 
ATOM     35  C5  HDT d   1      15.361  -6.673   8.922  0.00  0.00    -0.040 A 
ATOM     36  H4  HDT d   1      14.903  -7.247   6.911  0.00  0.00     0.083 H 
ATOM     37  H3  HDT d   1      16.026  -5.859   8.658  0.00  0.00     0.089 H 
ATOM     38  N7  HDT d   1      15.560  -6.431  11.421  0.00  0.00    -0.350 N 
ATOM     39  C8  HDT d   1      15.028  -7.075  12.385  0.00  0.00     0.007 A 
ATOM     40  H15 HDT d   1      16.214  -5.639  11.499  0.00  0.00     0.166 HD
ATOM     41  H7  HDT d   1      15.192  -6.873  13.443  0.00  0.00     0.115 H 
ENDBRANCH   2  27
TORSDOF 5
