REMARK  7 active torsions:
REMARK  status: ('A' for Active; 'I' for Inactive)
REMARK    1  A    between atoms: C2_1  and  N2_12 
REMARK    2  A    between atoms: C10_3  and  C11_4 
REMARK    3  A    between atoms: O6_18  and  C10_3 
REMARK    4  A    between atoms: C20_11  and  S23_26 
REMARK    5  A    between atoms: N2_12  and  C22_14 
REMARK    6  A    between atoms: S23_26  and  N26_15 
REMARK    7  A    between atoms: C6_17  and  O6_18 
ROOT
ATOM      1  C2  N76 d   1       7.916  43.612  49.851  0.00  0.00     0.731 A 
ATOM      2  C8  N76 d   1      10.552  46.441  52.042  0.00  0.00     0.066 A 
ATOM      3  N1  N76 d   1       6.935  44.228  50.551  0.00  0.00    -0.035 NA
ATOM      4  C6  N76 d   1       7.196  45.231  51.425  0.00  0.00     0.216 A 
ATOM      5  C5  N76 d   1       8.584  45.672  51.622  0.00  0.00     0.158 A 
ATOM      6  N7  N76 d   1       9.223  46.619  52.398  0.00  0.00    -0.236 NA
ATOM      7  N9  N76 d   1      10.811  45.437  51.102  0.00  0.00    -0.333 N 
ATOM      8  C4  N76 d   1       9.555  44.966  50.841  0.00  0.00     0.181 A 
ATOM      9  N3  N76 d   1       9.210  43.969  49.998  0.00  0.00    -0.042 NA
ATOM     10  H1  N76 d   1      11.348  47.048  52.470  0.00  0.00     0.143 H 
ATOM     11  H20 N76 d   1      11.713  45.133  50.709  0.00  0.00     0.168 HD
ENDROOT
BRANCH   4  12
ATOM     12  O6  N76 d   1       6.192  45.827  52.109  0.00  0.00    -0.332 OA
BRANCH  12  13
ATOM     13  C10 N76 d   1       4.867  45.351  51.907  0.00  0.00     0.031 C 
ATOM     14  H2  N76 d   1       4.472  45.731  50.953  0.00  0.00     0.075 H 
ATOM     15  H3  N76 d   1       4.860  44.251  51.895  0.00  0.00     0.075 H 
BRANCH  13  16
ATOM     16  C11 N76 d   1       4.024  45.862  53.057  0.00  0.00    -0.033 C 
ATOM     17  C12 N76 d   1       2.562  45.545  52.750  0.00  0.00    -0.060 C 
ATOM     18  C13 N76 d   1       1.682  46.009  53.912  0.00  0.00    -0.065 C 
ATOM     19  H5  N76 d   1       2.444  44.460  52.612  0.00  0.00     0.033 H 
ATOM     20  H6  N76 d   1       2.259  46.067  51.830  0.00  0.00     0.033 H 
ATOM     21  C14 N76 d   1       2.117  45.379  55.232  0.00  0.00    -0.065 C 
ATOM     22  H7  N76 d   1       0.640  45.724  53.707  0.00  0.00     0.033 H 
ATOM     23  H8  N76 d   1       1.752  47.103  53.998  0.00  0.00     0.033 H 
ATOM     24  C15 N76 d   1       3.601  45.606  55.528  0.00  0.00    -0.065 C 
ATOM     25  H9  N76 d   1       1.928  44.296  55.185  0.00  0.00     0.033 H 
ATOM     26  H10 N76 d   1       1.523  45.820  56.046  0.00  0.00     0.033 H 
ATOM     27  C16 N76 d   1       4.473  45.174  54.353  0.00  0.00    -0.060 C 
ATOM     28  H11 N76 d   1       3.882  45.022  56.417  0.00  0.00     0.033 H 
ATOM     29  H12 N76 d   1       3.768  46.675  55.724  0.00  0.00     0.033 H 
ATOM     30  H13 N76 d   1       5.519  45.445  54.561  0.00  0.00     0.033 H 
ATOM     31  H14 N76 d   1       4.395  44.084  54.228  0.00  0.00     0.033 H 
ATOM     32  H4  N76 d   1       4.151  46.950  53.160  0.00  0.00     0.043 H 
ENDBRANCH  13  16
ENDBRANCH  12  13
ENDBRANCH   4  12
BRANCH   1  33
ATOM     33  N2  N76 d   1       7.626  42.611  48.993  0.00  0.00    -0.188 N 
ATOM     34  H16 N76 d   1       8.380  42.287  48.371  0.00  0.00     0.184 HD
BRANCH  33  35
ATOM     35  C22 N76 d   1       6.423  41.998  48.884  0.00  0.00     0.050 A 
ATOM     36  C21 N76 d   1       6.032  41.558  47.621  0.00  0.00    -0.034 A 
ATOM     37  C20 N76 d   1       4.808  40.917  47.437  0.00  0.00     0.081 A 
ATOM     38  H17 N76 d   1       6.687  41.716  46.772  0.00  0.00     0.089 H 
ATOM     39  C19 N76 d   1       3.980  40.709  48.537  0.00  0.00    -0.060 A 
ATOM     40  C18 N76 d   1       4.375  41.131  49.810  0.00  0.00    -0.079 A 
ATOM     41  H15 N76 d   1       3.023  40.217  48.406  0.00  0.00     0.085 H 
ATOM     42  C17 N76 d   1       5.598  41.774  49.986  0.00  0.00    -0.057 A 
ATOM     43  H22 N76 d   1       3.728  40.957  50.662  0.00  0.00     0.083 H 
ATOM     44  H21 N76 d   1       5.907  42.098  50.973  0.00  0.00     0.086 H 
BRANCH  37  45
ATOM     45  S23 N76 d   1       4.351  40.427  45.966  0.00  0.00     0.256 S 
ATOM     46  O24 N76 d   1       5.381  40.674  45.007  0.00  0.00    -0.201 OA
ATOM     47  O25 N76 d   1       3.165  41.150  45.615  0.00  0.00    -0.201 OA
BRANCH  45  48
ATOM     48  N26 N76 d   1       4.043  38.860  46.008  0.00  0.00    -0.324 N 
ATOM     49  H18 N76 d   1       3.745  38.386  45.179  0.00  0.00     0.169 HD
ATOM     50  H19 N76 d   1       4.148  38.353  46.863  0.00  0.00     0.169 HD
ENDBRANCH  45  48
ENDBRANCH  37  45
ENDBRANCH  33  35
ENDBRANCH   1  33
TORSDOF 7
