REMARK  6 active torsions:
REMARK  status: ('A' for Active; 'I' for Inactive)
REMARK    1  A    between atoms: N2_22  and  C2_1 
REMARK    2  A    between atoms: C10_2  and  C11_3 
REMARK    3  A    between atoms: O6_16  and  C10_2 
REMARK    4  A    between atoms: C20_10  and  C23_25 
REMARK       I    between atoms: C23_25  and  N25_13 
REMARK    5  A    between atoms: C6_15  and  O6_16 
REMARK    6  A    between atoms: N2_22  and  C17_23 
ROOT
ATOM      1  C2  N41 d   1       7.881  43.698  49.518  0.00  0.00     0.731 A 
ATOM      2  N1  N41 d   1       6.878  44.404  50.133  0.00  0.00    -0.035 NA
ATOM      3  C6  N41 d   1       7.125  45.448  50.966  0.00  0.00     0.216 A 
ATOM      4  C5  N41 d   1       8.535  45.806  51.207  0.00  0.00     0.158 A 
ATOM      5  N7  N41 d   1       9.182  46.757  51.944  0.00  0.00    -0.236 NA
ATOM      6  N9  N41 d   1      10.814  45.453  50.850  0.00  0.00    -0.333 N 
ATOM      7  C4  N41 d   1       9.536  45.015  50.543  0.00  0.00     0.181 A 
ATOM      8  N3  N41 d   1       9.197  44.006  49.722  0.00  0.00    -0.042 NA
ATOM      9  C8  N41 d   1      10.538  46.519  51.702  0.00  0.00     0.066 A 
ATOM     10  H19 N41 d   1      11.724  45.088  50.533  0.00  0.00     0.168 HD
ATOM     11  H22 N41 d   1      11.324  47.126  52.149  0.00  0.00     0.143 H 
ENDROOT
BRANCH   3  12
ATOM     12  O6  N41 d   1       6.094  46.150  51.550  0.00  0.00    -0.332 OA
BRANCH  12  13
ATOM     13  C10 N41 d   1       4.820  45.489  51.616  0.00  0.00     0.031 C 
ATOM     14  H1  N41 d   1       4.307  45.602  50.650  0.00  0.00     0.075 H 
ATOM     15  H2  N41 d   1       4.981  44.421  51.823  0.00  0.00     0.075 H 
BRANCH  13  16
ATOM     16  C11 N41 d   1       3.945  46.081  52.715  0.00  0.00    -0.033 C 
ATOM     17  C12 N41 d   1       2.461  45.788  52.418  0.00  0.00    -0.060 C 
ATOM     18  C13 N41 d   1       1.501  46.003  53.611  0.00  0.00    -0.065 C 
ATOM     19  H4  N41 d   1       2.378  44.739  52.098  0.00  0.00     0.033 H 
ATOM     20  H5  N41 d   1       2.140  46.448  51.599  0.00  0.00     0.033 H 
ATOM     21  C14 N41 d   1       2.096  45.560  54.959  0.00  0.00    -0.065 C 
ATOM     22  H6  N41 d   1       0.583  45.426  53.428  0.00  0.00     0.033 H 
ATOM     23  H7  N41 d   1       1.255  47.073  53.673  0.00  0.00     0.033 H 
ATOM     24  C15 N41 d   1       3.512  46.124  55.178  0.00  0.00    -0.065 C 
ATOM     25  H8  N41 d   1       2.144  44.461  54.982  0.00  0.00     0.033 H 
ATOM     26  H9  N41 d   1       1.443  45.916  55.770  0.00  0.00     0.033 H 
ATOM     27  C16 N41 d   1       4.439  45.591  54.096  0.00  0.00    -0.060 C 
ATOM     28  H10 N41 d   1       3.883  45.812  56.166  0.00  0.00     0.033 H 
ATOM     29  H11 N41 d   1       3.482  47.222  55.127  0.00  0.00     0.033 H 
ATOM     30  H12 N41 d   1       5.460  45.959  54.273  0.00  0.00     0.033 H 
ATOM     31  H13 N41 d   1       4.436  44.491  54.118  0.00  0.00     0.033 H 
ATOM     32  H3  N41 d   1       4.068  47.174  52.697  0.00  0.00     0.043 H 
ENDBRANCH  13  16
ENDBRANCH  12  13
ENDBRANCH   3  12
BRANCH   1  33
ATOM     33  N2  N41 d   1       7.580  42.646  48.692  0.00  0.00    -0.188 N 
ATOM     34  H20 N41 d   1       8.322  42.277  48.081  0.00  0.00     0.184 HD
BRANCH  33  35
ATOM     35  C17 N41 d   1       6.348  42.064  48.639  0.00  0.00     0.049 A 
ATOM     36  C22 N41 d   1       5.467  42.126  49.717  0.00  0.00    -0.056 A 
ATOM     37  C21 N41 d   1       4.210  41.520  49.613  0.00  0.00    -0.066 A 
ATOM     38  H16 N41 d   1       5.753  42.639  50.628  0.00  0.00     0.087 H 
ATOM     39  C20 N41 d   1       3.807  40.829  48.462  0.00  0.00     0.032 A 
ATOM     40  H15 N41 d   1       3.525  41.587  50.450  0.00  0.00     0.085 H 
ATOM     41  C19 N41 d   1       4.690  40.761  47.398  0.00  0.00    -0.066 A 
ATOM     42  C18 N41 d   1       5.950  41.370  47.487  0.00  0.00    -0.056 A 
ATOM     43  H14 N41 d   1       4.407  40.235  46.493  0.00  0.00     0.085 H 
ATOM     44  H21 N41 d   1       6.632  41.303  46.647  0.00  0.00     0.087 H 
BRANCH  39  45
ATOM     45  C23 N41 d   1       2.422  40.208  48.382  0.00  0.00     0.249 C 
ATOM     46  N25 N41 d   1       1.867  39.666  49.484  0.00  0.00    -0.366 N 
ATOM     47  H17 N41 d   1       0.956  39.257  49.435  0.00  0.00     0.159 HD
ATOM     48  H18 N41 d   1       2.366  39.673  50.350  0.00  0.00     0.159 HD
ATOM     49  O24 N41 d   1       1.816  40.255  47.314  0.00  0.00    -0.268 OA
ENDBRANCH  39  45
ENDBRANCH  33  35
ENDBRANCH   1  33
TORSDOF 6
