REMARK WARNING: 32 MAX_TORS EXCEEDED!!!
REMARK  63 active torsions:
REMARK  status: ('A' for Active; 'I' for Inactive)
REMARK    1  A    between atoms: CA_2  and  N_1 
REMARK    2  A    between atoms: CA_2  and  CB_5 
REMARK    3  A    between atoms: C_3  and  CA_2 
REMARK       I    between atoms: N_9  and  C_3 
REMARK    4  A    between atoms: CB_5  and  CG_6 
REMARK    5  A    between atoms: CG_6  and  CD1_7 
REMARK    6  A    between atoms: CG_6  and  CD2_8 
REMARK    7  A    between atoms: C_11  and  CA_10 
REMARK       I    between atoms: N_16  and  C_11 
REMARK    8  A    between atoms: C_18  and  CA_17 
REMARK       I    between atoms: N_23  and  C_18 
REMARK    9  A    between atoms: CA_24  and  N_23 
REMARK   10  A    between atoms: CA_24  and  CB_27 
REMARK   11  A    between atoms: C_25  and  CA_24 
REMARK       I    between atoms: N_30  and  C_25 
REMARK   12  A    between atoms: CB_27  and  CG2_29 
REMARK   13  A    between atoms: CB_27  and  OG1_28 
REMARK   14  A    between atoms: CA_31  and  N_30 
REMARK   15  A    between atoms: CA_31  and  CB_34 
REMARK   16  A    between atoms: C_32  and  CA_31 
REMARK       I    between atoms: N_39  and  C_32 
REMARK   17  A    between atoms: CB_34  and  CG_35 
REMARK   18  A    between atoms: CG_35  and  CD_36 
REMARK   19  A    between atoms: CA_40  and  N_39 
REMARK   20  A    between atoms: CA_40  and  CB_43 
REMARK   21  A    between atoms: C_41  and  CA_40 
REMARK       I    between atoms: N_48  and  C_41 
REMARK   22  A    between atoms: CB_43  and  CG_44 
REMARK   23  A    between atoms: CG_44  and  CD_45 
REMARK       I    between atoms: CD_45  and  NE2_47 
REMARK   24  A    between atoms: CA_49  and  N_48 
REMARK   25  A    between atoms: CA_49  and  CB_52 
REMARK   26  A    between atoms: C_50  and  CA_49 
REMARK       I    between atoms: N_56  and  C_50 
REMARK   27  A    between atoms: CB_52  and  CG_53 
REMARK   28  A    between atoms: CA_57  and  N_56 
REMARK   29  A    between atoms: CA_57  and  CB_60 
REMARK   30  A    between atoms: C_58  and  CA_57 
REMARK       I    between atoms: N_64  and  C_58 
REMARK   31  A    between atoms: CB_60  and  CG_61 
REMARK   32  A    between atoms: CG_61  and  CD1_62 
REMARK   33  A    between atoms: CG_61  and  CD2_63 
REMARK   34  A    between atoms: CA_65  and  N_64 
REMARK   35  A    between atoms: CA_65  and  CB_68 
REMARK   36  A    between atoms: C_66  and  CA_65 
REMARK       I    between atoms: N_71  and  C_66 
REMARK   37  A    between atoms: CB_68  and  CG2_70 
REMARK   38  A    between atoms: CB_68  and  OG1_69 
REMARK   39  A    between atoms: CA_72  and  N_71 
REMARK   40  A    between atoms: CA_72  and  CB_75 
REMARK   41  A    between atoms: C_73  and  CA_72 
REMARK       I    between atoms: N_77  and  C_73 
REMARK   42  A    between atoms: CB_75  and  CG_76 
REMARK   43  A    between atoms: CA_78  and  N_77 
REMARK   44  A    between atoms: CA_78  and  CB_81 
REMARK   45  A    between atoms: C_79  and  CA_78 
REMARK       I    between atoms: N_85  and  C_79 
REMARK   46  A    between atoms: CB_81  and  CG_82 
REMARK   47  A    between atoms: CG_82  and  CD1_83 
REMARK   48  A    between atoms: CG_82  and  CD2_84 
REMARK   49  A    between atoms: CA_86  and  N_85 
REMARK   50  A    between atoms: CA_86  and  CB_89 
REMARK   51  A    between atoms: C_87  and  CA_86 
REMARK       I    between atoms: N_93  and  C_87 
REMARK   52  A    between atoms: CB_89  and  CG_90 
REMARK   53  A    between atoms: CG_90  and  CD1_91 
REMARK   54  A    between atoms: CG_90  and  CD2_92 
REMARK   55  A    between atoms: CA_94  and  N_93 
REMARK   56  A    between atoms: CA_94  and  CB_97 
REMARK   57  A    between atoms: C_95  and  CA_94 
REMARK       I    between atoms: C_95  and  N_98 
REMARK   58  A    between atoms: N_98  and  CA_99 
REMARK   59  A    between atoms: CA_99  and  CB_102 
REMARK   60  A    between atoms: CA_99  and  C_100 
REMARK   61  A    between atoms: C_100  and  O1_107 
REMARK   62  A    between atoms: CB_102  and  CG_103 
REMARK   63  A    between atoms: CG_103  and  CD_104 
ROOT
ATOM      1  N   LEU d   1      17.111  17.585  30.760  0.00  0.00    -0.346 N 
ATOM      2  H53 LEU d   1      16.440  18.300  30.564  0.00  0.00     0.163 HD
ATOM      3  C   ASP d   1      16.700  16.410  31.208  0.00  0.00     0.241 C 
ATOM      4  O   ASP d   1      17.483  15.543  31.570  0.00  0.00    -0.271 OA
ENDROOT
BRANCH   1   5
ATOM      5  CA  LEU d   1      18.536  17.852  30.547  0.00  0.00     0.089 C 
ATOM      6  H54 LEU d   1      18.970  16.958  30.075  0.00  0.00     0.087 H 
BRANCH   5   7
ATOM      7  CB  LEU d   1      18.752  19.038  29.598  0.00  0.00    -0.035 C 
ATOM      8  H55 LEU d   1      19.829  19.258  29.563  0.00  0.00     0.037 H 
ATOM      9  H56 LEU d   1      18.213  19.906  30.005  0.00  0.00     0.037 H 
BRANCH   7  10
ATOM     10  CG  LEU d   1      18.267  18.803  28.169  0.00  0.00    -0.059 C 
ATOM     11  H57 LEU d   1      17.207  18.514  28.213  0.00  0.00     0.038 H 
BRANCH  10  12
ATOM     12  CD1 LEU d   1      18.375  20.080  27.355  0.00  0.00    -0.073 C 
ATOM     13  H58 LEU d   1      18.022  19.892  26.330  0.00  0.00     0.028 H 
ATOM     14  H59 LEU d   1      19.424  20.409  27.327  0.00  0.00     0.028 H 
ATOM     15  H60 LEU d   1      17.757  20.863  27.818  0.00  0.00     0.028 H 
ENDBRANCH  10  12
BRANCH  10  16
ATOM     16  CD2 LEU d   1      19.033  17.673  27.506  0.00  0.00    -0.073 C 
ATOM     17  H61 LEU d   1      18.940  16.761  28.114  0.00  0.00     0.028 H 
ATOM     18  H62 LEU d   1      20.094  17.950  27.421  0.00  0.00     0.028 H 
ATOM     19  H63 LEU d   1      18.620  17.489  26.503  0.00  0.00     0.028 H 
ENDBRANCH  10  16
ENDBRANCH   7  10
ENDBRANCH   5   7
BRANCH   5  20
ATOM     20  C   LEU d   1      19.288  18.098  31.853  0.00  0.00     0.241 C 
ATOM     21  O   LEU d   1      20.435  17.689  31.988  0.00  0.00    -0.271 OA
ATOM     22  N   THR d   1      18.662  18.778  32.800  0.00  0.00    -0.344 N 
ATOM     23  H64 THR d   1      17.771  19.190  32.610  0.00  0.00     0.163 HD
BRANCH  22  24
ATOM     24  CA  THR d   1      19.262  18.929  34.114  0.00  0.00     0.113 C 
ATOM     25  H65 THR d   1      20.211  19.473  33.999  0.00  0.00     0.091 H 
BRANCH  24  26
ATOM     26  CB  THR d   1      18.345  19.756  35.032  0.00  0.00     0.060 C 
ATOM     27  H66 THR d   1      17.390  19.230  35.176  0.00  0.00     0.086 H 
BRANCH  26  28
ATOM     28  CG2 THR d   1      19.030  20.018  36.389  0.00  0.00    -0.050 C 
ATOM     29  H68 THR d   1      18.360  20.610  37.030  0.00  0.00     0.031 H 
ATOM     30  H69 THR d   1      19.966  20.573  36.226  0.00  0.00     0.031 H 
ATOM     31  H70 THR d   1      19.253  19.058  36.879  0.00  0.00     0.031 H 
ENDBRANCH  26  28
BRANCH  26  32
ATOM     32  OG1 THR d   1      18.130  21.062  34.452  0.00  0.00    -0.393 OA
ATOM     33  H67 THR d   1      17.576  21.576  35.028  0.00  0.00     0.210 HD
ENDBRANCH  26  32
ENDBRANCH  24  26
BRANCH  24  34
ATOM     34  C   THR d   1      19.574  17.547  34.729  0.00  0.00     0.243 C 
ATOM     35  O   THR d   1      20.668  17.328  35.241  0.00  0.00    -0.271 OA
ATOM     36  N   LYS d   1      18.631  16.612  34.634  0.00  0.00    -0.346 N 
ATOM     37  H71 LYS d   1      17.757  16.849  34.211  0.00  0.00     0.163 HD
BRANCH  36  38
ATOM     38  CA  LYS d   1      18.831  15.243  35.130  0.00  0.00     0.089 C 
ATOM     39  H72 LYS d   1      19.069  15.294  36.203  0.00  0.00     0.087 H 
BRANCH  38  40
ATOM     40  CB  LYS d   1      17.544  14.449  34.939  0.00  0.00    -0.041 C 
ATOM     41  H73 LYS d   1      17.404  14.279  33.861  0.00  0.00     0.036 H 
ATOM     42  H74 LYS d   1      16.710  15.052  35.327  0.00  0.00     0.036 H 
BRANCH  40  43
ATOM     43  CG  LYS d   1      17.516  13.106  35.634  0.00  0.00    -0.074 C 
ATOM     44  H75 LYS d   1      16.553  12.612  35.438  0.00  0.00     0.027 H 
ATOM     45  H76 LYS d   1      17.640  13.251  36.717  0.00  0.00     0.027 H 
ATOM     46  H77 LYS d   1      18.334  12.478  35.252  0.00  0.00     0.027 H 
ENDBRANCH  40  43
ENDBRANCH  38  40
BRANCH  38  47
ATOM     47  C   LYS d   1      19.975  14.510  34.412  0.00  0.00     0.241 C 
ATOM     48  O   LYS d   1      20.830  13.899  35.047  0.00  0.00    -0.271 OA
ATOM     49  N   LEU d   1      19.993  14.579  33.077  0.00  0.00    -0.346 N 
ATOM     50  H78 LEU d   1      19.299  15.123  32.606  0.00  0.00     0.163 HD
BRANCH  49  51
ATOM     51  CA  LEU d   1      21.006  13.876  32.292  0.00  0.00     0.089 C 
ATOM     52  H79 LEU d   1      20.980  12.813  32.572  0.00  0.00     0.087 H 
BRANCH  51  53
ATOM     53  CB  LEU d   1      20.714  13.985  30.792  0.00  0.00    -0.035 C 
ATOM     54  H80 LEU d   1      21.577  13.588  30.238  0.00  0.00     0.037 H 
ATOM     55  H81 LEU d   1      20.573  15.046  30.539  0.00  0.00     0.037 H 
BRANCH  53  56
ATOM     56  CG  LEU d   1      19.460  13.210  30.365  0.00  0.00    -0.059 C 
ATOM     57  H82 LEU d   1      18.685  13.363  31.130  0.00  0.00     0.038 H 
BRANCH  56  58
ATOM     58  CD1 LEU d   1      18.923  13.722  29.047  0.00  0.00    -0.073 C 
ATOM     59  H83 LEU d   1      18.027  13.148  28.768  0.00  0.00     0.028 H 
ATOM     60  H84 LEU d   1      19.690  13.604  28.268  0.00  0.00     0.028 H 
ATOM     61  H85 LEU d   1      18.661  14.786  29.146  0.00  0.00     0.028 H 
ENDBRANCH  56  58
BRANCH  56  62
ATOM     62  CD2 LEU d   1      19.771  11.708  30.289  0.00  0.00    -0.073 C 
ATOM     63  H86 LEU d   1      20.159  11.364  31.259  0.00  0.00     0.028 H 
ATOM     64  H87 LEU d   1      20.525  11.529  29.508  0.00  0.00     0.028 H 
ATOM     65  H88 LEU d   1      18.852  11.155  30.045  0.00  0.00     0.028 H 
ENDBRANCH  56  62
ENDBRANCH  53  56
ENDBRANCH  51  53
BRANCH  51  66
ATOM     66  C   LEU d   1      22.390  14.415  32.593  0.00  0.00     0.241 C 
ATOM     67  O   LEU d   1      23.358  13.658  32.675  0.00  0.00    -0.271 OA
ATOM     68  N   LEU d   1      22.468  15.719  32.789  0.00  0.00    -0.346 N 
ATOM     69  H89 LEU d   1      21.623  16.254  32.812  0.00  0.00     0.163 HD
BRANCH  68  70
ATOM     70  CA  LEU d   1      23.737  16.405  32.972  0.00  0.00     0.089 C 
ATOM     71  H90 LEU d   1      24.449  15.985  32.246  0.00  0.00     0.087 H 
BRANCH  70  72
ATOM     72  CB  LEU d   1      23.575  17.900  32.691  0.00  0.00    -0.035 C 
ATOM     73  H91 LEU d   1      24.444  18.421  33.120  0.00  0.00     0.037 H 
ATOM     74  H92 LEU d   1      22.658  18.241  33.193  0.00  0.00     0.037 H 
BRANCH  72  75
ATOM     75  CG  LEU d   1      23.476  18.287  31.221  0.00  0.00    -0.059 C 
ATOM     76  H93 LEU d   1      22.613  17.766  30.779  0.00  0.00     0.038 H 
BRANCH  75  77
ATOM     77  CD1 LEU d   1      23.244  19.764  31.109  0.00  0.00    -0.073 C 
ATOM     78  H94 LEU d   1      23.172  20.044  30.048  0.00  0.00     0.028 H 
ATOM     79  H95 LEU d   1      24.082  20.303  31.575  0.00  0.00     0.028 H 
ATOM     80  H96 LEU d   1      22.308  20.028  31.622  0.00  0.00     0.028 H 
ENDBRANCH  75  77
BRANCH  75  81
ATOM     81  CD2 LEU d   1      24.720  17.859  30.469  0.00  0.00    -0.073 C 
ATOM     82  H97 LEU d   1      24.856  16.773  30.574  0.00  0.00     0.028 H 
ATOM     83  H98 LEU d   1      25.596  18.380  30.883  0.00  0.00     0.028 H 
ATOM     84  H99 LEU d   1      24.611  18.113  29.404  0.00  0.00     0.028 H 
ENDBRANCH  75  81
ENDBRANCH  72  75
ENDBRANCH  70  72
BRANCH  70  85
ATOM     85  C   LEU d   1      24.336  16.242  34.363  0.00  0.00     0.241 C 
ATOM     86  O   LEU d   1      25.492  16.577  34.536  0.00  0.00    -0.271 OA
ATOM     87  N   LEU d   1      23.558  15.759  35.339  0.00  0.00    -0.346 N 
ATOM     88 0H10 LEU d   1      22.599  15.563  35.132  0.00  0.00     0.163 HD
BRANCH  87  89
ATOM     89  CA  LEU d   1      24.051  15.503  36.707  0.00  0.00     0.086 C 
ATOM     90 1H10 LEU d   1      25.006  16.035  36.826  0.00  0.00     0.086 H 
BRANCH  89  91
ATOM     91  CB  LEU d   1      23.058  16.062  37.742  0.00  0.00    -0.049 C 
ATOM     92 2H10 LEU d   1      23.436  15.865  38.756  0.00  0.00     0.030 H 
ATOM     93 3H10 LEU d   1      22.081  15.573  37.614  0.00  0.00     0.030 H 
ATOM     94 4H10 LEU d   1      22.948  17.147  37.596  0.00  0.00     0.030 H 
ENDBRANCH  89  91
BRANCH  89  95
ATOM     95  C   LEU d   1      24.312  14.001  36.963  0.00  0.00     0.240 C 
ATOM     96  O   LEU d   1      25.352  13.616  37.501  0.00  0.00    -0.271 OA
ATOM     97  N   GLU d   1      23.361  13.166  36.557  0.00  0.00    -0.345 N 
ATOM     98 5H10 GLU d   1      22.514  13.554  36.195  0.00  0.00     0.163 HD
BRANCH  97  99
ATOM     99  CA  GLU d   1      23.487  11.706  36.611  0.00  0.00     0.093 C 
ATOM    100 6H10 GLU d   1      23.295  11.394  37.648  0.00  0.00     0.089 H 
BRANCH  99 101
ATOM    101  CB  GLU d   1      22.433  11.056  35.707  0.00  0.00    -0.028 C 
ATOM    102 7H10 GLU d   1      22.811  10.074  35.386  0.00  0.00     0.037 H 
ATOM    103 8H10 GLU d   1      22.289  11.700  34.827  0.00  0.00     0.037 H 
BRANCH 101 104
ATOM    104  CG  GLU d   1      21.084  10.852  36.375  0.00  0.00     0.018 C 
ATOM    105 9H10 GLU d   1      20.692  11.832  36.687  0.00  0.00     0.049 H 
ATOM    106 0H11 GLU d   1      21.221  10.214  37.260  0.00  0.00     0.049 H 
BRANCH 104 107
ATOM    107  CD  GLU d   1      20.076  10.196  35.454  0.00  0.00     0.172 C 
ATOM    108  OE2 GLU d   1      20.329  10.156  34.225  0.00  0.00    -0.648 OA
ATOM    109  OE1 GLU d   1      19.031   9.724  35.962  0.00  0.00    -0.648 OA
ENDBRANCH 104 107
ENDBRANCH 101 104
ENDBRANCH  99 101
BRANCH  99 110
ATOM    110  C   GLU d   1      24.881  11.198  36.222  0.00  0.00     0.163 C 
ATOM    111  O   GLU d   1      25.160  10.944  35.050  0.00  0.00    -0.648 OA
BRANCH 110 112
ATOM    112  O1  GLU d   1      25.803  11.029  37.166  0.00  0.00    -0.775 OA
ATOM    113 1H11 GLU d   1      26.552  11.582  36.977  0.00  0.00     0.167 HD
ENDBRANCH 110 112
ENDBRANCH  99 110
ENDBRANCH  97  99
ENDBRANCH  89  95
ENDBRANCH  87  89
ENDBRANCH  70  85
ENDBRANCH  68  70
ENDBRANCH  51  66
ENDBRANCH  49  51
ENDBRANCH  38  47
ENDBRANCH  36  38
ENDBRANCH  24  34
ENDBRANCH  22  24
ENDBRANCH   5  20
ENDBRANCH   1   5
BRANCH   3 114
ATOM    114  CA  ASP d   1      15.188  16.184  31.310  0.00  0.00     0.098 C 
ATOM    115  H50 ASP d   1      14.998  15.310  31.951  0.00  0.00     0.088 H 
BRANCH 114 116
ATOM    116  N   ASP d   1      14.529  17.346  31.919  0.00  0.00    -0.346 N 
ATOM    117  C   GLN d   1      14.960  17.883  33.067  0.00  0.00     0.241 C 
ATOM    118  O   GLN d   1      15.825  17.366  33.752  0.00  0.00    -0.271 OA
ATOM    119  H49 ASP d   1      13.735  17.748  31.463  0.00  0.00     0.163 HD
BRANCH 117 120
ATOM    120  CA  GLN d   1      14.327  19.209  33.536  0.00  0.00     0.090 C 
ATOM    121  H42 GLN d   1      15.019  19.694  34.240  0.00  0.00     0.087 H 
BRANCH 120 122
ATOM    122  N   GLN d   1      14.108  20.136  32.409  0.00  0.00    -0.346 N 
ATOM    123  C   GLU d   1      15.137  20.701  31.782  0.00  0.00     0.241 C 
ATOM    124  O   GLU d   1      16.298  20.469  32.080  0.00  0.00    -0.271 OA
ATOM    125  H41 GLN d   1      13.175  20.342  32.113  0.00  0.00     0.163 HD
BRANCH 123 126
ATOM    126  CA  GLU d   1      14.824  21.636  30.611  0.00  0.00     0.090 C 
ATOM    127  H36 GLU d   1      15.745  21.786  30.028  0.00  0.00     0.087 H 
BRANCH 126 128
ATOM    128  N   GLU d   1      13.806  21.059  29.729  0.00  0.00    -0.346 N 
ATOM    129  C   THR d   1      13.870  19.840  29.211  0.00  0.00     0.243 C 
ATOM    130  O   THR d   1      14.840  19.085  29.351  0.00  0.00    -0.271 OA
ATOM    131  H35 GLU d   1      13.011  21.622  29.503  0.00  0.00     0.163 HD
BRANCH 129 132
ATOM    132  CA  THR d   1      12.610  19.403  28.448  0.00  0.00     0.113 C 
ATOM    133  H29 THR d   1      12.306  20.192  27.745  0.00  0.00     0.091 H 
BRANCH 132 134
ATOM    134  N   THR d   1      12.866  18.181  27.709  0.00  0.00    -0.344 N 
ATOM    135  C   PRO d   1      13.563  18.190  26.583  0.00  0.00     0.241 C 
ATOM    136  O   PRO d   1      13.924  19.238  26.045  0.00  0.00    -0.271 OA
ATOM    137  H28 THR d   1      12.509  17.314  28.057  0.00  0.00     0.163 HD
BRANCH 135 138
ATOM    138  CA  PRO d   1      13.895  16.810  25.961  0.00  0.00     0.091 C 
ATOM    139  CB  PRO d   1      15.392  16.548  26.039  0.00  0.00    -0.036 C 
ATOM    140  CG  PRO d   1      15.922  17.086  24.743  0.00  0.00    -0.048 C 
ATOM    141  H22 PRO d   1      15.596  15.471  26.128  0.00  0.00     0.036 H 
ATOM    142  H23 PRO d   1      15.838  17.078  26.894  0.00  0.00     0.036 H 
ATOM    143  CD  PRO d   1      14.877  16.756  23.734  0.00  0.00    -0.001 C 
ATOM    144  H24 PRO d   1      16.068  18.174  24.807  0.00  0.00     0.035 H 
ATOM    145  H25 PRO d   1      16.876  16.602  24.485  0.00  0.00     0.035 H 
ATOM    146  N   PRO d   1      13.632  16.756  24.523  0.00  0.00    -0.337 N 
ATOM    147  H26 PRO d   1      14.841  17.517  22.941  0.00  0.00     0.064 H 
ATOM    148  H27 PRO d   1      15.060  15.768  23.286  0.00  0.00     0.064 H 
ATOM    149  C   PRO d   1      12.396  16.717  24.041  0.00  0.00     0.243 C 
ATOM    150  O   PRO d   1      11.410  16.559  24.750  0.00  0.00    -0.271 OA
ATOM    151  H21 PRO d   1      13.327  16.030  26.488  0.00  0.00     0.087 H 
BRANCH 149 152
ATOM    152  CA  PRO d   1      12.223  16.872  22.517  0.00  0.00     0.092 C 
ATOM    153  CB  PRO d   1      12.052  18.338  22.130  0.00  0.00    -0.036 C 
ATOM    154  CG  PRO d   1      11.104  18.304  20.988  0.00  0.00    -0.048 C 
ATOM    155  H15 PRO d   1      13.014  18.776  21.826  0.00  0.00     0.036 H 
ATOM    156  H16 PRO d   1      11.634  18.916  22.967  0.00  0.00     0.036 H 
ATOM    157  CD  PRO d   1      10.125  17.235  21.358  0.00  0.00    -0.001 C 
ATOM    158  H17 PRO d   1      10.598  19.274  20.872  0.00  0.00     0.035 H 
ATOM    159  H18 PRO d   1      11.627  18.049  20.054  0.00  0.00     0.035 H 
ATOM    160  N   PRO d   1      11.004  16.249  22.013  0.00  0.00    -0.337 N 
ATOM    161  H19 PRO d   1       9.359  17.613  22.050  0.00  0.00     0.064 H 
ATOM    162  H20 PRO d   1       9.637  16.811  20.468  0.00  0.00     0.064 H 
ATOM    163  C   LEU d   1      10.845  14.936  22.141  0.00  0.00     0.251 C 
ATOM    164  O   LEU d   1      11.733  14.228  22.632  0.00  0.00    -0.271 OA
ATOM    165  H14 PRO d   1      13.103  16.441  22.018  0.00  0.00     0.087 H 
BRANCH 163 166
ATOM    166  CA  LEU d   1       9.540  14.311  21.629  0.00  0.00     0.176 C 
ATOM    167  H4  LEU d   1       8.851  15.125  21.359  0.00  0.00     0.099 H 
BRANCH 166 168
ATOM    168  N   LEU d   1       9.780  13.464  20.414  0.00  0.00    -0.066 N 
ATOM    169  H1  LEU d   1       8.907  13.069  20.102  0.00  0.00     0.275 HD
ATOM    170  H2  LEU d   1      10.422  12.722  20.643  0.00  0.00     0.275 HD
ATOM    171  H3  LEU d   1      10.172  14.033  19.680  0.00  0.00     0.275 HD
ENDBRANCH 166 168
BRANCH 166 172
ATOM    172  CB  LEU d   1       8.882  13.448  22.719  0.00  0.00    -0.028 C 
ATOM    173  H5  LEU d   1       9.582  12.631  22.951  0.00  0.00     0.037 H 
ATOM    174  H6  LEU d   1       7.960  13.030  22.288  0.00  0.00     0.037 H 
BRANCH 172 175
ATOM    175  CG  LEU d   1       8.499  14.104  24.050  0.00  0.00    -0.059 C 
ATOM    176  H7  LEU d   1       9.395  14.566  24.490  0.00  0.00     0.038 H 
BRANCH 175 177
ATOM    177  CD1 LEU d   1       7.448  15.179  23.863  0.00  0.00    -0.073 C 
ATOM    178  H8  LEU d   1       7.201  15.624  24.838  0.00  0.00     0.028 H 
ATOM    179  H9  LEU d   1       6.543  14.735  23.423  0.00  0.00     0.028 H 
ATOM    180  H10 LEU d   1       7.837  15.959  23.192  0.00  0.00     0.028 H 
ENDBRANCH 175 177
BRANCH 175 181
ATOM    181  CD2 LEU d   1       7.983  13.011  24.992  0.00  0.00    -0.073 C 
ATOM    182  H11 LEU d   1       8.757  12.239  25.117  0.00  0.00     0.028 H 
ATOM    183  H12 LEU d   1       7.077  12.556  24.564  0.00  0.00     0.028 H 
ATOM    184  H13 LEU d   1       7.745  13.453  25.971  0.00  0.00     0.028 H 
ENDBRANCH 175 181
ENDBRANCH 172 175
ENDBRANCH 166 172
ENDBRANCH 163 166
ENDBRANCH 149 152
ENDBRANCH 135 138
ENDBRANCH 132 134
BRANCH 132 185
ATOM    185  CB  THR d   1      11.499  19.183  29.503  0.00  0.00     0.060 C 
ATOM    186  H30 THR d   1      11.262  20.140  29.990  0.00  0.00     0.086 H 
BRANCH 185 187
ATOM    187  CG2 THR d   1      10.232  18.569  28.898  0.00  0.00    -0.050 C 
ATOM    188  H32 THR d   1       9.477  18.434  29.687  0.00  0.00     0.031 H 
ATOM    189  H33 THR d   1      10.474  17.593  28.452  0.00  0.00     0.031 H 
ATOM    190  H34 THR d   1       9.835  19.239  28.121  0.00  0.00     0.031 H 
ENDBRANCH 185 187
BRANCH 185 191
ATOM    191  OG1 THR d   1      11.953  18.221  30.461  0.00  0.00    -0.393 OA
ATOM    192  H31 THR d   1      11.279  18.087  31.117  0.00  0.00     0.210 HD
ENDBRANCH 185 191
ENDBRANCH 132 185
ENDBRANCH 129 132
ENDBRANCH 126 128
BRANCH 126 193
ATOM    193  CB  GLU d   1      14.349  23.004  31.149  0.00  0.00    -0.029 C 
ATOM    194  H37 GLU d   1      13.586  22.820  31.920  0.00  0.00     0.037 H 
ATOM    195  H38 GLU d   1      13.899  23.561  30.314  0.00  0.00     0.037 H 
BRANCH 193 196
ATOM    196  CG  GLU d   1      15.446  23.880  31.766  0.00  0.00     0.018 C 
ATOM    197  H39 GLU d   1      15.095  24.922  31.772  0.00  0.00     0.049 H 
ATOM    198  H40 GLU d   1      16.347  23.800  31.140  0.00  0.00     0.049 H 
BRANCH 196 199
ATOM    199  CD  GLU d   1      15.815  23.492  33.185  0.00  0.00     0.172 C 
ATOM    200  OE2 GLU d   1      14.896  23.289  34.010  0.00  0.00    -0.648 OA
ATOM    201  OE1 GLU d   1      17.031  23.394  33.479  0.00  0.00    -0.648 OA
ENDBRANCH 196 199
ENDBRANCH 193 196
ENDBRANCH 126 193
ENDBRANCH 123 126
ENDBRANCH 120 122
BRANCH 120 202
ATOM    202  CB  GLN d   1      13.006  18.892  34.289  0.00  0.00    -0.030 C 
ATOM    203  H43 GLN d   1      12.172  19.332  33.723  0.00  0.00     0.037 H 
ATOM    204  H44 GLN d   1      13.058  19.355  35.285  0.00  0.00     0.037 H 
BRANCH 202 205
ATOM    205  CG  GLN d   1      12.720  17.357  34.473  0.00  0.00     0.011 C 
ATOM    206  H45 GLN d   1      13.582  16.910  34.991  0.00  0.00     0.047 H 
ATOM    207  H46 GLN d   1      12.620  16.908  33.474  0.00  0.00     0.047 H 
BRANCH 205 208
ATOM    208  CD  GLN d   1      11.469  17.020  35.267  0.00  0.00     0.215 C 
ATOM    209  NE2 GLN d   1      10.571  16.264  34.662  0.00  0.00    -0.370 N 
ATOM    210  H47 GLN d   1       9.728  16.011  35.137  0.00  0.00     0.159 HD
ATOM    211  H48 GLN d   1      10.734  15.944  33.728  0.00  0.00     0.159 HD
ATOM    212  OE1 GLN d   1      11.332  17.416  36.414  0.00  0.00    -0.274 OA
ENDBRANCH 205 208
ENDBRANCH 202 205
ENDBRANCH 120 202
ENDBRANCH 117 120
ENDBRANCH 114 116
BRANCH 114 213
ATOM    213  CB  ASP d   1      14.663  15.878  29.891  0.00  0.00     0.043 C 
ATOM    214  H51 ASP d   1      15.316  15.119  29.435  0.00  0.00     0.052 H 
ATOM    215  H52 ASP d   1      14.707  16.803  29.297  0.00  0.00     0.052 H 
BRANCH 213 216
ATOM    216  CG  ASP d   1      13.247  15.364  29.867  0.00  0.00     0.175 C 
ATOM    217  OD1 ASP d   1      12.729  14.904  30.911  0.00  0.00    -0.648 OA
ATOM    218  OD2 ASP d   1      12.567  15.396  28.818  0.00  0.00    -0.648 OA
ENDBRANCH 213 216
ENDBRANCH 114 213
ENDBRANCH   3 114
TORSDOF 63
