REMARK WARNING: 32 MAX_TORS EXCEEDED!!!
REMARK  36 active torsions:
REMARK  status: ('A' for Active; 'I' for Inactive)
REMARK    1  A    between atoms: N_1  and  CA_2 
REMARK    2  A    between atoms: CA_2  and  C_3 
REMARK    3  A    between atoms: CA_2  and  CB_5 
REMARK       I    between atoms: C_3  and  N_12 
REMARK    4  A    between atoms: CB_5  and  CG_6 
REMARK    5  A    between atoms: CG_6  and  CD_7 
REMARK    6  A    between atoms: CD_7  and  NE_8 
REMARK       I    between atoms: NE_8  and  CZ_9 
REMARK       I    between atoms: CZ_9  and  NH1_10 
REMARK    7  A    between atoms: N_12  and  CA_13 
REMARK    8  A    between atoms: CA_13  and  C_14 
REMARK    9  A    between atoms: CA_13  and  CB_16 
REMARK       I    between atoms: C_14  and  N_21 
REMARK   10  A    between atoms: CB_16  and  CG_17 
REMARK   11  A    between atoms: CG_17  and  CD_18 
REMARK       I    between atoms: CD_18  and  NE2_20 
REMARK   12  A    between atoms: N_21  and  CA_22 
REMARK   13  A    between atoms: CA_22  and  C_23 
REMARK   14  A    between atoms: CA_22  and  CB_25 
REMARK       I    between atoms: C_23  and  N_29 
REMARK   15  A    between atoms: CB_25  and  CG_26 
REMARK   16  A    between atoms: CG_26  and  CD1_27 
REMARK   17  A    between atoms: CG_26  and  CD2_28 
REMARK   18  A    between atoms: N_29  and  CA_30 
REMARK   19  A    between atoms: CA_30  and  C_31 
REMARK   20  A    between atoms: CA_30  and  CB_33 
REMARK       I    between atoms: C_31  and  N_36 
REMARK   21  A    between atoms: CB_33  and  CG1_34 
REMARK   22  A    between atoms: CB_33  and  CG2_35 
REMARK   23  A    between atoms: N_36  and  CA_37 
REMARK   24  A    between atoms: CA_37  and  C_38 
REMARK   25  A    between atoms: CA_37  and  CB_40 
REMARK       I    between atoms: C_38  and  N_44 
REMARK   26  A    between atoms: CB_40  and  CG_41 
REMARK   27  A    between atoms: CG_41  and  CD1_42 
REMARK   28  A    between atoms: CG_41  and  CD2_43 
REMARK   29  A    between atoms: N_44  and  CA_45 
REMARK   30  A    between atoms: CA_45  and  C_46 
REMARK       I    between atoms: C_46  and  N_48 
REMARK   31  A    between atoms: N_48  and  CA_49 
REMARK   32  A    between atoms: CA_49  and  C_50 
REMARK   33  A    between atoms: CA_49  and  CB_52 
REMARK   34  A    between atoms: CB_52  and  CG_53 
REMARK   35  A    between atoms: CG_53  and  CD1_54 
REMARK   36  A    between atoms: CG_53  and  CD2_55 
ROOT
ATOM      1  C   LEU d   1       0.832   5.942  32.704  0.00  0.00     0.241 C 
ATOM      2  O   LEU d   1       1.108   5.646  31.537  0.00  0.00    -0.271 OA
ATOM      3  N   VAL d   1       1.302   7.038  33.298  0.00  0.00    -0.346 N 
ATOM      4  H35 VAL d   1       1.070   7.220  34.254  0.00  0.00     0.163 HD
ENDROOT
BRANCH   1   5
ATOM      5  CA  LEU d   1      -0.085   5.039  33.534  0.00  0.00     0.089 C 
ATOM      6  H25 LEU d   1      -0.846   5.650  34.041  0.00  0.00     0.087 H 
BRANCH   5   7
ATOM      7  N   LEU d   1      -0.732   4.111  32.616  0.00  0.00    -0.346 N 
ATOM      8  C   GLN d   1      -1.895   4.393  32.037  0.00  0.00     0.241 C 
ATOM      9  O   GLN d   1      -2.509   5.444  32.239  0.00  0.00    -0.271 OA
ATOM     10  H24 LEU d   1      -0.289   3.237  32.416  0.00  0.00     0.163 HD
BRANCH   8  11
ATOM     11  CA  GLN d   1      -2.437   3.338  31.075  0.00  0.00     0.090 C 
ATOM     12  H17 GLN d   1      -1.771   2.464  31.127  0.00  0.00     0.087 H 
BRANCH  11  13
ATOM     13  N   GLN d   1      -3.787   2.882  31.382  0.00  0.00    -0.346 N 
ATOM     14  C   ARG d   1      -4.083   2.171  32.464  0.00  0.00     0.248 C 
ATOM     15  O   ARG d   1      -3.250   1.861  33.320  0.00  0.00    -0.271 OA
ATOM     16  H16 GLN d   1      -4.525   3.115  30.748  0.00  0.00     0.163 HD
BRANCH  14  17
ATOM     17  CA  ARG d   1      -5.556   1.760  32.608  0.00  0.00     0.176 C 
ATOM     18  H4  ARG d   1      -5.971   2.236  33.508  0.00  0.00     0.099 H 
BRANCH  17  19
ATOM     19  N   ARG d   1      -6.358   2.194  31.426  0.00  0.00    -0.067 N 
ATOM     20  H1  ARG d   1      -7.318   1.911  31.549  0.00  0.00     0.275 HD
ATOM     21  H2  ARG d   1      -5.986   1.767  30.592  0.00  0.00     0.275 HD
ATOM     22  H3  ARG d   1      -6.312   3.197  31.339  0.00  0.00     0.275 HD
ENDBRANCH  17  19
BRANCH  17  23
ATOM     23  CB  ARG d   1      -5.636   0.242  32.764  0.00  0.00    -0.029 C 
ATOM     24  H5  ARG d   1      -5.152  -0.027  33.715  0.00  0.00     0.036 H 
ATOM     25  H6  ARG d   1      -5.084  -0.214  31.929  0.00  0.00     0.036 H 
BRANCH  23  26
ATOM     26  CG  ARG d   1      -7.052  -0.345  32.771  0.00  0.00    -0.047 C 
ATOM     27  H7  ARG d   1      -7.692   0.283  33.407  0.00  0.00     0.035 H 
ATOM     28  H8  ARG d   1      -7.011  -1.363  33.184  0.00  0.00     0.035 H 
BRANCH  26  29
ATOM     29  CD  ARG d   1      -7.659  -0.407  31.374  0.00  0.00     0.009 C 
ATOM     30  H9  ARG d   1      -6.865  -0.644  30.651  0.00  0.00     0.064 H 
ATOM     31  H10 ARG d   1      -8.095   0.573  31.131  0.00  0.00     0.064 H 
BRANCH  29  32
ATOM     32  NE  ARG d   1      -8.704  -1.426  31.281  0.00  0.00    -0.227 N 
ATOM     33  CZ  ARG d   1      -9.957  -1.195  30.899  0.00  0.00     0.665 C 
ATOM     34  NH1 ARG d   1     -10.345   0.030  30.571  0.00  0.00    -0.235 N 
ATOM     35  NH2 ARG d   1     -10.822  -2.198  30.831  0.00  0.00    -0.235 N 
ATOM     36  H12 ARG d   1     -11.317   0.201  30.276  0.00  0.00     0.174 HD
ATOM     37  H13 ARG d   1      -9.674   0.811  30.611  0.00  0.00     0.174 HD
ATOM     38  H14 ARG d   1     -10.526  -3.151  31.085  0.00  0.00     0.174 HD
ATOM     39  H15 ARG d   1     -11.790  -2.024  30.525  0.00  0.00     0.174 HD
ATOM     40  H11 ARG d   1      -8.451  -2.393  31.529  0.00  0.00     0.177 HD
ENDBRANCH  29  32
ENDBRANCH  26  29
ENDBRANCH  23  26
ENDBRANCH  17  23
ENDBRANCH  14  17
ENDBRANCH  11  13
BRANCH  11  41
ATOM     41  CB  GLN d   1      -2.396   3.901  29.652  0.00  0.00    -0.030 C 
ATOM     42  H18 GLN d   1      -3.084   4.757  29.599  0.00  0.00     0.037 H 
ATOM     43  H19 GLN d   1      -2.733   3.116  28.959  0.00  0.00     0.037 H 
BRANCH  41  44
ATOM     44  CG  GLN d   1      -1.020   4.366  29.214  0.00  0.00     0.011 C 
ATOM     45  H20 GLN d   1      -0.657   5.123  29.925  0.00  0.00     0.047 H 
ATOM     46  H21 GLN d   1      -1.098   4.812  28.212  0.00  0.00     0.047 H 
BRANCH  44  47
ATOM     47  CD  GLN d   1      -0.032   3.229  29.166  0.00  0.00     0.215 C 
ATOM     48  OE1 GLN d   1      -0.253   2.232  28.471  0.00  0.00    -0.274 OA
ATOM     49  NE2 GLN d   1       1.067   3.366  29.902  0.00  0.00    -0.370 N 
ATOM     50  H22 GLN d   1       1.758   2.643  29.909  0.00  0.00     0.159 HD
ATOM     51  H23 GLN d   1       1.203   4.192  30.449  0.00  0.00     0.159 HD
ENDBRANCH  44  47
ENDBRANCH  41  44
ENDBRANCH  11  41
ENDBRANCH   8  11
ENDBRANCH   5   7
BRANCH   5  52
ATOM     52  CB  LEU d   1       0.723   4.270  34.586  0.00  0.00    -0.035 C 
ATOM     53  H26 LEU d   1       1.202   5.007  35.248  0.00  0.00     0.037 H 
ATOM     54  H27 LEU d   1       1.497   3.692  34.060  0.00  0.00     0.037 H 
BRANCH  52  55
ATOM     55  CG  LEU d   1      -0.073   3.297  35.465  0.00  0.00    -0.059 C 
ATOM     56  H28 LEU d   1      -0.483   2.494  34.834  0.00  0.00     0.038 H 
BRANCH  55  57
ATOM     57  CD1 LEU d   1       0.865   2.689  36.496  0.00  0.00    -0.073 C 
ATOM     58  H29 LEU d   1       0.305   1.989  37.133  0.00  0.00     0.028 H 
ATOM     59  H30 LEU d   1       1.294   3.488  37.118  0.00  0.00     0.028 H 
ATOM     60  H31 LEU d   1       1.675   2.150  35.982  0.00  0.00     0.028 H 
ENDBRANCH  55  57
BRANCH  55  61
ATOM     61  CD2 LEU d   1      -1.230   4.021  36.151  0.00  0.00    -0.073 C 
ATOM     62  H32 LEU d   1      -1.896   4.453  35.389  0.00  0.00     0.028 H 
ATOM     63  H33 LEU d   1      -0.833   4.824  36.789  0.00  0.00     0.028 H 
ATOM     64  H34 LEU d   1      -1.794   3.307  36.769  0.00  0.00     0.028 H 
ENDBRANCH  55  61
ENDBRANCH  52  55
ENDBRANCH   5  52
ENDBRANCH   1   5
BRANCH   3  65
ATOM     65  CA  VAL d   1       2.152   7.978  32.570  0.00  0.00     0.092 C 
ATOM     66  H36 VAL d   1       2.303   7.560  31.564  0.00  0.00     0.088 H 
BRANCH  65  67
ATOM     67  C   VAL d   1       3.529   8.202  33.186  0.00  0.00     0.241 C 
ATOM     68  O   VAL d   1       3.733   8.050  34.391  0.00  0.00    -0.271 OA
ATOM     69  N   LEU d   1       4.477   8.579  32.339  0.00  0.00    -0.346 N 
ATOM     70  H44 LEU d   1       4.249   8.693  31.372  0.00  0.00     0.163 HD
BRANCH  69  71
ATOM     71  CA  LEU d   1       5.842   8.831  32.782  0.00  0.00     0.089 C 
ATOM     72  H45 LEU d   1       6.130   8.026  33.474  0.00  0.00     0.087 H 
BRANCH  71  73
ATOM     73  C   LEU d   1       5.992  10.162  33.503  0.00  0.00     0.240 C 
ATOM     74  O   LEU d   1       5.208  11.095  33.294  0.00  0.00    -0.271 OA
ATOM     75  N   GLY d   1       7.002  10.240  34.359  0.00  0.00    -0.351 N 
ATOM     76  H55 GLY d   1       7.580   9.440  34.520  0.00  0.00     0.163 HD
BRANCH  75  77
ATOM     77  CA  GLY d   1       7.273  11.479  35.064  0.00  0.00     0.069 C 
ATOM     78  H56 GLY d   1       7.696  11.266  36.057  0.00  0.00     0.078 H 
ATOM     79  H57 GLY d   1       6.347  12.062  35.177  0.00  0.00     0.078 H 
BRANCH  77  80
ATOM     80  C   GLY d   1       8.277  12.248  34.220  0.00  0.00     0.236 C 
ATOM     81  O   GLY d   1       9.484  12.177  34.453  0.00  0.00    -0.272 OA
ATOM     82  N   LEU d   1       7.771  12.976  33.230  0.00  0.00    -0.345 N 
ATOM     83  H58 LEU d   1       6.779  12.998  33.107  0.00  0.00     0.163 HD
BRANCH  82  84
ATOM     84  CA  LEU d   1       8.610  13.745  32.316  0.00  0.00     0.096 C 
ATOM     85  H59 LEU d   1       9.437  13.092  31.999  0.00  0.00     0.089 H 
BRANCH  84  86
ATOM     86  C   LEU d   1       9.227  14.990  32.938  0.00  0.00     0.196 C 
ATOM     87  O   LEU d   1      10.031  15.654  32.243  0.00  0.00    -0.646 OA
ATOM     88  OXT LEU d   1       8.901  15.286  34.107  0.00  0.00    -0.646 OA
ENDBRANCH  84  86
BRANCH  84  89
ATOM     89  CB  LEU d   1       7.798  14.126  31.078  0.00  0.00    -0.034 C 
ATOM     90  H60 LEU d   1       8.423  14.763  30.436  0.00  0.00     0.037 H 
ATOM     91  H61 LEU d   1       6.912  14.691  31.404  0.00  0.00     0.037 H 
BRANCH  89  92
ATOM     92  CG  LEU d   1       7.328  12.924  30.255  0.00  0.00    -0.059 C 
ATOM     93  H62 LEU d   1       6.779  12.234  30.913  0.00  0.00     0.038 H 
BRANCH  92  94
ATOM     94  CD1 LEU d   1       6.394  13.378  29.144  0.00  0.00    -0.073 C 
ATOM     95  H63 LEU d   1       6.065  12.505  28.562  0.00  0.00     0.028 H 
ATOM     96  H64 LEU d   1       6.924  14.080  28.484  0.00  0.00     0.028 H 
ATOM     97  H65 LEU d   1       5.518  13.877  29.583  0.00  0.00     0.028 H 
ENDBRANCH  92  94
BRANCH  92  98
ATOM     98  CD2 LEU d   1       8.537  12.200  29.688  0.00  0.00    -0.073 C 
ATOM     99  H66 LEU d   1       9.194  11.883  30.511  0.00  0.00     0.028 H 
ATOM    100  H67 LEU d   1       9.088  12.876  29.018  0.00  0.00     0.028 H 
ATOM    101  H68 LEU d   1       8.204  11.316  29.124  0.00  0.00     0.028 H 
ENDBRANCH  92  98
ENDBRANCH  89  92
ENDBRANCH  84  89
ENDBRANCH  82  84
ENDBRANCH  77  80
ENDBRANCH  75  77
ENDBRANCH  71  73
BRANCH  71 102
ATOM    102  CB  LEU d   1       6.797   8.823  31.584  0.00  0.00    -0.035 C 
ATOM    103  H46 LEU d   1       7.787   9.134  31.948  0.00  0.00     0.037 H 
ATOM    104  H47 LEU d   1       6.425   9.561  30.858  0.00  0.00     0.037 H 
BRANCH 102 105
ATOM    105  CG  LEU d   1       6.974   7.498  30.843  0.00  0.00    -0.059 C 
ATOM    106  H48 LEU d   1       5.984   7.075  30.619  0.00  0.00     0.038 H 
BRANCH 105 107
ATOM    107  CD1 LEU d   1       7.705   7.750  29.536  0.00  0.00    -0.073 C 
ATOM    108  H49 LEU d   1       7.835   6.799  28.999  0.00  0.00     0.028 H 
ATOM    109  H50 LEU d   1       8.691   8.190  29.746  0.00  0.00     0.028 H 
ATOM    110  H51 LEU d   1       7.119   8.444  28.916  0.00  0.00     0.028 H 
ENDBRANCH 105 107
BRANCH 105 111
ATOM    111  CD2 LEU d   1       7.738   6.515  31.726  0.00  0.00    -0.073 C 
ATOM    112  H52 LEU d   1       7.183   6.355  32.662  0.00  0.00     0.028 H 
ATOM    113  H53 LEU d   1       8.733   6.925  31.955  0.00  0.00     0.028 H 
ATOM    114  H54 LEU d   1       7.849   5.557  31.197  0.00  0.00     0.028 H 
ENDBRANCH 105 111
ENDBRANCH 102 105
ENDBRANCH  71 102
ENDBRANCH  69  71
ENDBRANCH  65  67
BRANCH  65 115
ATOM    115  CB  VAL d   1       1.465   9.358  32.423  0.00  0.00    -0.033 C 
ATOM    116  H37 VAL d   1       2.146  10.038  31.890  0.00  0.00     0.042 H 
BRANCH 115 117
ATOM    117  CG1 VAL d   1       0.179   9.220  31.616  0.00  0.00    -0.071 C 
ATOM    118  H38 VAL d   1      -0.300  10.205  31.518  0.00  0.00     0.028 H 
ATOM    119  H39 VAL d   1      -0.505   8.530  32.131  0.00  0.00     0.028 H 
ATOM    120  H40 VAL d   1       0.414   8.826  30.616  0.00  0.00     0.028 H 
ENDBRANCH 115 117
BRANCH 115 121
ATOM    121  CG2 VAL d   1       1.166   9.939  33.792  0.00  0.00    -0.071 C 
ATOM    122  H41 VAL d   1       2.102  10.033  34.363  0.00  0.00     0.028 H 
ATOM    123  H42 VAL d   1       0.474   9.274  34.329  0.00  0.00     0.028 H 
ATOM    124  H43 VAL d   1       0.706  10.931  33.677  0.00  0.00     0.028 H 
ENDBRANCH 115 121
ENDBRANCH  65 115
ENDBRANCH   3  65
TORSDOF 36
