REMARK  6 active torsions:
REMARK  status: ('A' for Active; 'I' for Inactive)
REMARK    1  A    between atoms: C1_1  and  O1_7 
REMARK    2  A    between atoms: C2_2  and  O2_8 
REMARK    3  A    between atoms: C3_3  and  O3_9 
REMARK    4  A    between atoms: C4_4  and  O4_10 
REMARK    5  A    between atoms: C5_5  and  C6_6 
REMARK    6  A    between atoms: C6_6  and  O6_12 
ROOT
ATOM      1  C1  NON d   1      22.098  16.831  45.259  0.00  0.00     0.156 C 
ATOM      2  C2  NON d   1      22.759  15.487  45.050  0.00  0.00     0.110 C 
ATOM      3  C3  NON d   1      24.034  15.674  44.263  0.00  0.00     0.092 C 
ATOM      4  C4  NON d   1      23.687  16.331  42.941  0.00  0.00     0.090 C 
ATOM      5  C5  NON d   1      22.849  17.571  43.154  0.00  0.00     0.089 C 
ATOM      6  O5  NON d   1      21.727  17.307  43.964  0.00  0.00    -0.349 OA
ATOM      7  H1  NON d   1      22.778  17.534  45.762  0.00  0.00     0.133 H 
ATOM      8  H2  NON d   1      22.068  14.855  44.473  0.00  0.00     0.094 H 
ATOM      9  H3  NON d   1      24.759  16.284  44.821  0.00  0.00     0.091 H 
ATOM     10  H4  NON d   1      24.620  16.621  42.435  0.00  0.00     0.091 H 
ATOM     11  H5  NON d   1      23.470  18.359  43.605  0.00  0.00     0.090 H 
ENDROOT
BRANCH   5  12
ATOM     12  C6  NON d   1      22.268  18.034  41.829  0.00  0.00     0.043 C 
ATOM     13  H6  NON d   1      21.478  17.340  41.505  0.00  0.00     0.078 H 
ATOM     14  H7  NON d   1      23.060  18.070  41.066  0.00  0.00     0.078 H 
BRANCH  12  15
ATOM     15  O6  NON d   1      21.726  19.322  42.016  0.00  0.00    -0.398 OA
ATOM     16  H12 NON d   1      21.045  19.285  42.678  0.00  0.00     0.209 HD
ENDBRANCH  12  15
ENDBRANCH   5  12
BRANCH   4  17
ATOM     17  O4  NON d   1      22.993  15.411  42.128  0.00  0.00    -0.390 OA
ATOM     18  H11 NON d   1      22.807  15.811  41.287  0.00  0.00     0.210 HD
ENDBRANCH   4  17
BRANCH   3  19
ATOM     19  O3  NON d   1      24.543  14.391  44.014  0.00  0.00    -0.390 OA
ATOM     20  H10 NON d   1      24.763  13.973  44.838  0.00  0.00     0.210 HD
ENDBRANCH   3  19
BRANCH   1  21
ATOM     21  O1  NON d   1      20.925  16.642  46.014  0.00  0.00    -0.369 OA
ATOM     22  H8  NON d   1      20.462  17.468  46.090  0.00  0.00     0.212 HD
ENDBRANCH   1  21
BRANCH   2  23
ATOM     23  O2  NON d   1      23.076  14.816  46.241  0.00  0.00    -0.388 OA
ATOM     24  H9  NON d   1      22.285  14.688  46.752  0.00  0.00     0.210 HD
ENDBRANCH   2  23
TORSDOF 6
