REMARK  28 active torsions:
REMARK  status: ('A' for Active; 'I' for Inactive)
REMARK    1  A    between atoms: CA_2  and  N_1 
REMARK    2  A    between atoms: CA_2  and  CB_5 
REMARK    3  A    between atoms: C_3  and  CA_2 
REMARK       I    between atoms: N_12  and  C_3 
REMARK    4  A    between atoms: CB_5  and  CG_6 
REMARK    5  A    between atoms: CG_6  and  CD_7 
REMARK    6  A    between atoms: CD_7  and  NE_8 
REMARK       I    between atoms: NE_8  and  CZ_9 
REMARK       I    between atoms: CZ_9  and  NH2_11 
REMARK       I    between atoms: CZ_9  and  NH1_10 
REMARK    7  A    between atoms: CA_13  and  N_12 
REMARK    8  A    between atoms: CA_13  and  CB_16 
REMARK    9  A    between atoms: C_14  and  CA_13 
REMARK       I    between atoms: N_23  and  C_14 
REMARK   10  A    between atoms: CB_16  and  CG_17 
REMARK   11  A    between atoms: CG_17  and  CD_18 
REMARK   12  A    between atoms: CD_18  and  NE_19 
REMARK       I    between atoms: NE_19  and  CZ_20 
REMARK       I    between atoms: CZ_20  and  NH1_21 
REMARK   13  A    between atoms: CA_24  and  N_23 
REMARK   14  A    between atoms: CA_24  and  CB_27 
REMARK   15  A    between atoms: C_25  and  CA_24 
REMARK       I    between atoms: N_31  and  C_25 
REMARK   16  A    between atoms: CB_27  and  CG_28 
REMARK   17  A    between atoms: CG_28  and  CD1_29 
REMARK   18  A    between atoms: CG_28  and  CD2_30 
REMARK   19  A    between atoms: CA_32  and  N_31 
REMARK   20  A    between atoms: CA_32  and  CB_35 
REMARK   21  A    between atoms: C_33  and  CA_32 
REMARK       I    between atoms: C_33  and  N_39 
REMARK   22  A    between atoms: CB_35  and  CG2_37 
REMARK   23  A    between atoms: CB_35  and  CG1_36 
REMARK   24  A    between atoms: CG1_36  and  CD1_38 
REMARK   25  A    between atoms: N_39  and  CA_40 
REMARK   26  A    between atoms: CA_40  and  CB_43 
REMARK   27  A    between atoms: CA_40  and  C_41 
REMARK       I    between atoms: C_41  and  N_50 
REMARK   28  A    between atoms: CB_43  and  CG_44 
ROOT
ATOM      1  CA  LEU d   1      40.948  25.673   0.613  0.00  0.00     0.089 C 
ATOM      2  H30 LEU d   1      41.056  25.029  -0.272  0.00  0.00     0.087 H 
ENDROOT
BRANCH   1   3
ATOM      3  N   LEU d   1      39.988  25.003   1.460  0.00  0.00    -0.346 N 
ATOM      4  C   ARG d   1      39.868  23.678   1.420  0.00  0.00     0.241 C 
ATOM      5  O   ARG d   1      40.535  22.959   0.688  0.00  0.00    -0.271 OA
ATOM      6  H29 LEU d   1      39.411  25.537   2.079  0.00  0.00     0.163 HD
BRANCH   4   7
ATOM      7  CA  ARG d   1      38.790  23.049   2.277  0.00  0.00     0.089 C 
ATOM      8  H17 ARG d   1      38.060  23.808   2.595  0.00  0.00     0.087 H 
BRANCH   7   9
ATOM      9  N   ARG d   1      38.140  22.056   1.450  0.00  0.00    -0.346 N 
ATOM     10  C   ARG d   1      37.528  22.412   0.319  0.00  0.00     0.248 C 
ATOM     11  O   ARG d   1      37.180  23.570   0.083  0.00  0.00    -0.271 OA
ATOM     12  H16 ARG d   1      38.149  21.096   1.728  0.00  0.00     0.163 HD
BRANCH  10  13
ATOM     13  CA  ARG d   1      37.091  21.288  -0.623  0.00  0.00     0.176 C 
ATOM     14  H4  ARG d   1      36.852  20.395  -0.027  0.00  0.00     0.099 H 
BRANCH  13  15
ATOM     15  N   ARG d   1      35.897  21.670  -1.411  0.00  0.00    -0.067 N 
ATOM     16  H1  ARG d   1      35.638  20.909  -2.019  0.00  0.00     0.275 HD
ATOM     17  H2  ARG d   1      36.107  22.485  -1.965  0.00  0.00     0.275 HD
ATOM     18  H3  ARG d   1      35.133  21.876  -0.786  0.00  0.00     0.275 HD
ENDBRANCH  13  15
BRANCH  13  19
ATOM     19  CB  ARG d   1      38.256  20.967  -1.586  0.00  0.00    -0.029 C 
ATOM     20  H5  ARG d   1      38.026  20.023  -2.101  0.00  0.00     0.036 H 
ATOM     21  H6  ARG d   1      39.172  20.846  -0.989  0.00  0.00     0.036 H 
BRANCH  19  22
ATOM     22  CG  ARG d   1      38.514  22.040  -2.647  0.00  0.00    -0.047 C 
ATOM     23  H7  ARG d   1      38.333  23.024  -2.190  0.00  0.00     0.035 H 
ATOM     24  H8  ARG d   1      37.804  21.883  -3.473  0.00  0.00     0.035 H 
BRANCH  22  25
ATOM     25  CD  ARG d   1      39.936  22.038  -3.231  0.00  0.00     0.009 C 
ATOM     26  H9  ARG d   1      40.294  21.001  -3.306  0.00  0.00     0.064 H 
ATOM     27  H10 ARG d   1      40.601  22.608  -2.565  0.00  0.00     0.064 H 
BRANCH  25  28
ATOM     28  NE  ARG d   1      39.949  22.647  -4.557  0.00  0.00    -0.227 N 
ATOM     29  CZ  ARG d   1      40.775  23.614  -4.952  0.00  0.00     0.665 C 
ATOM     30  NH2 ARG d   1      40.626  24.127  -6.159  0.00  0.00    -0.235 N 
ATOM     31  NH1 ARG d   1      41.789  24.039  -4.206  0.00  0.00    -0.235 N 
ATOM     32  H14 ARG d   1      39.849  23.816  -6.759  0.00  0.00     0.174 HD
ATOM     33  H15 ARG d   1      41.287  24.839  -6.501  0.00  0.00     0.174 HD
ATOM     34  H12 ARG d   1      42.403  24.790  -4.552  0.00  0.00     0.174 HD
ATOM     35  H13 ARG d   1      41.961  23.617  -3.282  0.00  0.00     0.174 HD
ATOM     36  H11 ARG d   1      39.264  22.301  -5.243  0.00  0.00     0.177 HD
ENDBRANCH  25  28
ENDBRANCH  22  25
ENDBRANCH  19  22
ENDBRANCH  13  19
ENDBRANCH  10  13
ENDBRANCH   7   9
BRANCH   7  37
ATOM     37  CB  ARG d   1      39.438  22.424   3.506  0.00  0.00    -0.036 C 
ATOM     38  H18 ARG d   1      40.155  21.659   3.174  0.00  0.00     0.036 H 
ATOM     39  H19 ARG d   1      38.653  21.952   4.115  0.00  0.00     0.036 H 
BRANCH  37  40
ATOM     40  CG  ARG d   1      40.188  23.458   4.381  0.00  0.00    -0.048 C 
ATOM     41  H20 ARG d   1      39.471  24.234   4.687  0.00  0.00     0.035 H 
ATOM     42  H21 ARG d   1      40.983  23.913   3.771  0.00  0.00     0.035 H 
BRANCH  40  43
ATOM     43  CD  ARG d   1      40.822  22.880   5.631  0.00  0.00     0.009 C 
ATOM     44  H22 ARG d   1      40.472  21.845   5.758  0.00  0.00     0.064 H 
ATOM     45  H23 ARG d   1      40.508  23.482   6.496  0.00  0.00     0.064 H 
BRANCH  43  46
ATOM     46  NE  ARG d   1      42.285  22.876   5.568  0.00  0.00    -0.227 N 
ATOM     47  CZ  ARG d   1      43.038  21.832   5.239  0.00  0.00     0.665 C 
ATOM     48  NH2 ARG d   1      42.508  20.658   4.893  0.00  0.00    -0.235 N 
ATOM     49  NH1 ARG d   1      44.355  21.952   5.304  0.00  0.00    -0.235 N 
ATOM     50  H27 ARG d   1      41.485  20.551   4.838  0.00  0.00     0.174 HD
ATOM     51  H28 ARG d   1      43.122  19.859   4.680  0.00  0.00     0.174 HD
ATOM     52  H25 ARG d   1      44.958  21.155   5.053  0.00  0.00     0.174 HD
ATOM     53  H26 ARG d   1      44.777  22.842   5.605  0.00  0.00     0.174 HD
ATOM     54  H24 ARG d   1      42.770  23.755   5.798  0.00  0.00     0.177 HD
ENDBRANCH  43  46
ENDBRANCH  40  43
ENDBRANCH  37  40
ENDBRANCH   7  37
ENDBRANCH   4   7
ENDBRANCH   1   3
BRANCH   1  55
ATOM     55  CB  LEU d   1      40.499  27.029   0.080  0.00  0.00    -0.035 C 
ATOM     56  H31 LEU d   1      41.388  27.598  -0.230  0.00  0.00     0.037 H 
ATOM     57  H32 LEU d   1      39.980  27.570   0.885  0.00  0.00     0.037 H 
BRANCH  55  58
ATOM     58  CG  LEU d   1      39.551  26.908  -1.120  0.00  0.00    -0.059 C 
ATOM     59  H33 LEU d   1      38.661  26.362  -0.773  0.00  0.00     0.038 H 
BRANCH  58  60
ATOM     60  CD1 LEU d   1      39.099  28.302  -1.571  0.00  0.00    -0.073 C 
ATOM     61  H34 LEU d   1      38.420  28.207  -2.431  0.00  0.00     0.028 H 
ATOM     62  H35 LEU d   1      39.978  28.896  -1.862  0.00  0.00     0.028 H 
ATOM     63  H36 LEU d   1      38.575  28.803  -0.744  0.00  0.00     0.028 H 
ENDBRANCH  58  60
BRANCH  58  64
ATOM     64  CD2 LEU d   1      40.125  26.119  -2.304  0.00  0.00    -0.073 C 
ATOM     65  H37 LEU d   1      40.443  25.123  -1.961  0.00  0.00     0.028 H 
ATOM     66  H38 LEU d   1      40.990  26.658  -2.719  0.00  0.00     0.028 H 
ATOM     67  H39 LEU d   1      39.354  26.010  -3.081  0.00  0.00     0.028 H 
ENDBRANCH  58  64
ENDBRANCH  55  58
ENDBRANCH   1  55
BRANCH   1  68
ATOM     68  C   LEU d   1      42.329  25.751   1.249  0.00  0.00     0.241 C 
ATOM     69  O   LEU d   1      42.555  26.269   2.348  0.00  0.00    -0.271 OA
ATOM     70  N   ILE d   1      43.284  25.217   0.518  0.00  0.00    -0.346 N 
ATOM     71  H40 ILE d   1      43.095  24.838  -0.388  0.00  0.00     0.163 HD
BRANCH  70  72
ATOM     72  CA  ILE d   1      44.597  25.200   1.068  0.00  0.00     0.092 C 
ATOM     73  H41 ILE d   1      44.497  25.074   2.156  0.00  0.00     0.088 H 
BRANCH  72  74
ATOM     74  CB  ILE d   1      45.356  23.980   0.565  0.00  0.00    -0.030 C 
ATOM     75  H42 ILE d   1      44.662  23.369  -0.031  0.00  0.00     0.043 H 
BRANCH  74  76
ATOM     76  CG2 ILE d   1      46.536  24.344  -0.371  0.00  0.00    -0.071 C 
ATOM     77  H45 ILE d   1      46.160  24.926  -1.225  0.00  0.00     0.028 H 
ATOM     78  H46 ILE d   1      47.012  23.422  -0.736  0.00  0.00     0.028 H 
ATOM     79  H47 ILE d   1      47.273  24.942   0.184  0.00  0.00     0.028 H 
ENDBRANCH  74  76
BRANCH  74  80
ATOM     80  CG1 ILE d   1      45.750  23.168   1.794  0.00  0.00    -0.063 C 
ATOM     81  H43 ILE d   1      46.531  22.450   1.504  0.00  0.00     0.033 H 
ATOM     82  H44 ILE d   1      44.864  22.622   2.152  0.00  0.00     0.033 H 
BRANCH  80  83
ATOM     83  CD1 ILE d   1      46.288  24.039   2.945  0.00  0.00    -0.076 C 
ATOM     84  H48 ILE d   1      46.553  23.397   3.798  0.00  0.00     0.027 H 
ATOM     85  H49 ILE d   1      45.514  24.757   3.254  0.00  0.00     0.027 H 
ATOM     86  H50 ILE d   1      47.181  24.585   2.606  0.00  0.00     0.027 H 
ENDBRANCH  80  83
ENDBRANCH  74  80
ENDBRANCH  72  74
BRANCH  72  87
ATOM     87  C   ILE d   1      45.273  26.545   0.857  0.00  0.00     0.241 C 
ATOM     88  O   ILE d   1      45.666  26.895  -0.255  0.00  0.00    -0.271 OA
ATOM     89  N   PHE d   1      45.421  27.276   1.959  0.00  0.00    -0.346 N 
ATOM     90  H51 PHE d   1      45.106  26.890   2.826  0.00  0.00     0.163 HD
BRANCH  89  91
ATOM     91  CA  PHE d   1      46.016  28.608   1.975  0.00  0.00     0.093 C 
ATOM     92  H52 PHE d   1      46.239  28.932   0.948  0.00  0.00     0.088 H 
BRANCH  91  93
ATOM     93  CB  PHE d   1      45.024  29.575   2.631  0.00  0.00    -0.014 C 
ATOM     94  H53 PHE d   1      45.550  30.516   2.850  0.00  0.00     0.043 H 
ATOM     95  H54 PHE d   1      44.671  29.125   3.571  0.00  0.00     0.043 H 
BRANCH  93  96
ATOM     96  CG  PHE d   1      43.833  29.888   1.782  0.00  0.00    -0.056 A 
ATOM     97  CD1 PHE d   1      42.566  29.647   2.245  0.00  0.00    -0.077 A 
ATOM     98  CE1 PHE d   1      41.482  29.933   1.455  0.00  0.00    -0.082 A 
ATOM     99  H55 PHE d   1      42.421  29.230   3.235  0.00  0.00     0.084 H 
ATOM    100  CZ  PHE d   1      41.666  30.455   0.195  0.00  0.00    -0.083 A 
ATOM    101  H57 PHE d   1      40.480  29.748   1.823  0.00  0.00     0.083 H 
ATOM    102  CE2 PHE d   1      42.913  30.709  -0.260  0.00  0.00    -0.082 A 
ATOM    103  H59 PHE d   1      40.808  30.663  -0.434  0.00  0.00     0.083 H 
ATOM    104  CD2 PHE d   1      43.983  30.423   0.519  0.00  0.00    -0.077 A 
ATOM    105  H58 PHE d   1      43.056  31.140  -1.244  0.00  0.00     0.083 H 
ATOM    106  H56 PHE d   1      44.980  30.619   0.142  0.00  0.00     0.084 H 
ENDBRANCH  93  96
ENDBRANCH  91  93
BRANCH  91 107
ATOM    107  C   PHE d   1      47.286  28.588   2.798  0.00  0.00     0.238 C 
ATOM    108  O   PHE d   1      47.251  28.176   3.955  0.00  0.00    -0.271 OA
ATOM    109  N   NH2 d   1      48.380  29.091   2.235  0.00  0.00    -0.368 N 
ATOM    110  H60 NH2 d   1      49.243  29.100   2.740  0.00  0.00     0.159 HD
ATOM    111  H61 NH2 d   1      48.340  29.461   1.307  0.00  0.00     0.159 HD
ENDBRANCH  91 107
ENDBRANCH  89  91
ENDBRANCH  72  87
ENDBRANCH  70  72
ENDBRANCH   1  68
TORSDOF 28
