REMARK  27 active torsions:
REMARK  status: ('A' for Active; 'I' for Inactive)
REMARK    1  A    between atoms: C1_1  and  C2_2 
REMARK    2  A    between atoms: C2_2  and  C3_3 
REMARK    3  A    between atoms: C3_3  and  C4_4 
REMARK       I    between atoms: C4_4  and  N_6 
REMARK    4  A    between atoms: N_6  and  CA_7 
REMARK    5  A    between atoms: CA_7  and  C_8 
REMARK    6  A    between atoms: CA_7  and  CB_10 
REMARK       I    between atoms: C_8  and  N_11 
REMARK    7  A    between atoms: N_11  and  CA_12 
REMARK    8  A    between atoms: CA_12  and  C_13 
REMARK    9  A    between atoms: CA_12  and  CB_15 
REMARK       I    between atoms: C_13  and  N_18 
REMARK   10  A    between atoms: CB_15  and  OG1_16 
REMARK   11  A    between atoms: CB_15  and  CG2_17 
REMARK   12  A    between atoms: N_18  and  CA_19 
REMARK   13  A    between atoms: CB_22  and  CG2_24 
REMARK   14  A    between atoms: CA_26  and  CB_29 
REMARK   15  A    between atoms: CB_29  and  CG_30 
REMARK   16  A    between atoms: CG_30  and  CD1_31 
REMARK   17  A    between atoms: CG_30  and  CD2_32 
REMARK   18  A    between atoms: CD_39  and  OD_40 
REMARK   19  A    between atoms: C2_42  and  C3_43 
REMARK   20  A    between atoms: C3_43  and  C4_44 
REMARK   21  A    between atoms: C3_43  and  O3_45 
REMARK   22  A    between atoms: CA_49  and  CB_50 
REMARK   23  A    between atoms: CB_50  and  CG_51 
REMARK   24  A    between atoms: CZ_55  and  OH_56 
REMARK   25  A    between atoms: CA_62  and  CB_65 
REMARK   26  A    between atoms: CB_65  and  CG1_66 
REMARK   27  A    between atoms: CB_65  and  CG2_67 
ROOT
ATOM      1  CA  THR d   1     100.641 -20.158  20.611  0.00  0.00     0.114 C 
ATOM      2  C   THR d   1      99.152 -19.832  20.420  0.00  0.00     0.243 C 
ATOM      3  O   THR d   1      98.771 -18.664  20.374  0.00  0.00    -0.271 OA
ATOM      4  CB  THR d   1     100.993 -20.390  22.084  0.00  0.00     0.072 C 
ATOM      5  OG1 THR d   1     101.170 -19.144  22.794  0.00  0.00    -0.312 OA
ATOM      6  H21 THR d   1     100.859 -21.081  20.053  0.00  0.00     0.091 H 
ATOM      7  H22 THR d   1     100.184 -20.964  22.560  0.00  0.00     0.087 H 
ATOM      8  N   LEU d   1      98.341 -20.897  20.309  0.00  0.00    -0.346 N 
ATOM      9  CA  LEU d   1      96.885 -20.759  20.092  0.00  0.00     0.089 C 
ATOM     10  C   LEU d   1      96.093 -20.879  21.400  0.00  0.00     0.241 C 
ATOM     11  O   LEU d   1      95.029 -21.505  21.434  0.00  0.00    -0.271 OA
ATOM     12  H26 LEU d   1      98.735 -21.814  20.375  0.00  0.00     0.163 HD
ATOM     13  H27 LEU d   1      96.697 -19.764  19.661  0.00  0.00     0.087 H 
ATOM     14  N   SUJ d   1      96.621 -20.267  22.455  0.00  0.00    -0.346 N 
ATOM     15  CA  SUJ d   1      95.937 -20.281  23.754  0.00  0.00     0.090 C 
ATOM     16  C1  SUJ d   1      95.296 -18.907  24.007  0.00  0.00     0.245 C 
ATOM     17  O1  SUJ d   1      94.729 -18.338  23.076  0.00  0.00    -0.271 OA
ATOM     18  CB  SUJ d   1      96.894 -20.659  24.884  0.00  0.00    -0.034 C 
ATOM     19  CG  SUJ d   1      96.233 -20.392  26.241  0.00  0.00    -0.022 C 
ATOM     20  CD  SUJ d   1      96.077 -18.881  26.430  0.00  0.00     0.106 C 
ATOM     21  N2  SUJ d   1      95.360 -18.265  25.269  0.00  0.00    -0.308 N 
ATOM     22  C2  SUJ d   1      94.689 -16.955  25.417  0.00  0.00     0.118 C 
ATOM     23  C   SUJ d   1      95.534 -16.028  26.305  0.00  0.00     0.244 C 
ATOM     24  O   SUJ d   1      95.287 -15.911  27.505  0.00  0.00    -0.271 OA
ATOM     25  H37 SUJ d   1      97.496 -19.791  22.363  0.00  0.00     0.163 HD
ATOM     26  H38 SUJ d   1      95.138 -21.036  23.717  0.00  0.00     0.087 H 
ATOM     27  H39 SUJ d   1      97.811 -20.058  24.801  0.00  0.00     0.036 H 
ATOM     28  H40 SUJ d   1      97.147 -21.727  24.806  0.00  0.00     0.036 H 
ATOM     29  H41 SUJ d   1      96.862 -20.801  27.045  0.00  0.00     0.039 H 
ATOM     30  H42 SUJ d   1      95.243 -20.872  26.270  0.00  0.00     0.039 H 
ATOM     31  H43 SUJ d   1      95.495 -18.697  27.345  0.00  0.00     0.117 H 
ATOM     32  H45 SUJ d   1      94.594 -16.493  24.423  0.00  0.00     0.092 H 
ATOM     33  N   CNT d   1      96.520 -15.359  25.672  0.00  0.00    -0.346 N 
ATOM     34  CA  CNT d   1      96.736 -15.504  24.207  0.00  0.00     0.093 C 
ATOM     35  C   CNT d   1      98.192 -15.830  23.865  0.00  0.00     0.241 C 
ATOM     36  O   CNT d   1      98.838 -15.116  23.101  0.00  0.00    -0.271 OA
ATOM     37  H51 CNT d   1      97.118 -14.754  26.198  0.00  0.00     0.163 HD
ATOM     38  H52 CNT d   1      96.108 -16.333  23.849  0.00  0.00     0.088 H 
ATOM     39  N   VAL d   1      98.675 -16.923  24.430  0.00  0.00    -0.345 N 
ATOM     40  CA  VAL d   1     100.055 -17.364  24.186  0.00  0.00     0.099 C 
ATOM     41  C   VAL d   1     100.018 -18.644  23.338  0.00  0.00     0.282 C 
ATOM     42  O   VAL d   1      98.901 -19.183  23.153  0.00  0.00    -0.263 OA
ATOM     43  H59 VAL d   1      98.089 -17.461  25.036  0.00  0.00     0.163 HD
ATOM     44  H60 VAL d   1     100.600 -16.581  23.638  0.00  0.00     0.089 H 
ENDROOT
BRANCH   1  45
ATOM     45  N   THR d   1     101.499 -19.073  20.079  0.00  0.00    -0.344 N 
ATOM     46  C   THR d   1     101.545 -18.732  18.785  0.00  0.00     0.243 C 
ATOM     47  O   THR d   1     100.911 -19.293  17.894  0.00  0.00    -0.271 OA
ATOM     48  H20 THR d   1     102.075 -18.568  20.722  0.00  0.00     0.163 HD
BRANCH  46  49
ATOM     49  CA  THR d   1     102.508 -17.588  18.447  0.00  0.00     0.113 C 
ATOM     50  H14 THR d   1     103.137 -17.369  19.322  0.00  0.00     0.091 H 
BRANCH  49  51
ATOM     51  N   THR d   1     103.341 -18.060  17.349  0.00  0.00    -0.344 N 
ATOM     52  C   ALA d   1     104.625 -17.783  17.238  0.00  0.00     0.240 C 
ATOM     53  O   ALA d   1     105.256 -17.075  18.020  0.00  0.00    -0.271 OA
ATOM     54  H13 THR d   1     102.916 -18.625  16.641  0.00  0.00     0.163 HD
BRANCH  52  55
ATOM     55  CA  ALA d   1     105.274 -18.425  16.018  0.00  0.00     0.086 C 
ATOM     56  H9  ALA d   1     104.517 -18.538  15.228  0.00  0.00     0.086 H 
BRANCH  55  57
ATOM     57  N   ALA d   1     106.373 -17.604  15.509  0.00  0.00    -0.348 N 
ATOM     58  C4  1BO d   1     106.300 -17.001  14.322  0.00  0.00     0.218 C 
ATOM     59  OH  1BO d   1     105.321 -17.061  13.571  0.00  0.00    -0.274 OA
ATOM     60  H8  ALA d   1     107.197 -17.493  16.064  0.00  0.00     0.163 HD
BRANCH  58  61
ATOM     61  C3  1BO d   1     107.541 -16.212  13.934  0.00  0.00     0.009 C 
ATOM     62  H6  1BO d   1     107.279 -15.466  13.169  0.00  0.00     0.047 H 
ATOM     63  H7  1BO d   1     107.945 -15.701  14.821  0.00  0.00     0.047 H 
BRANCH  61  64
ATOM     64  C2  1BO d   1     108.589 -17.171  13.375  0.00  0.00    -0.061 C 
ATOM     65  H4  1BO d   1     108.784 -17.960  14.116  0.00  0.00     0.033 H 
ATOM     66  H5  1BO d   1     108.203 -17.624  12.450  0.00  0.00     0.033 H 
BRANCH  64  67
ATOM     67  C1  1BO d   1     109.895 -16.445  13.066  0.00  0.00    -0.076 C 
ATOM     68  H1  1BO d   1     110.627 -17.162  12.666  0.00  0.00     0.027 H 
ATOM     69  H2  1BO d   1     110.290 -15.993  13.988  0.00  0.00     0.027 H 
ATOM     70  H3  1BO d   1     109.709 -15.657  12.322  0.00  0.00     0.027 H 
ENDBRANCH  64  67
ENDBRANCH  61  64
ENDBRANCH  58  61
ENDBRANCH  55  57
BRANCH  55  71
ATOM     71  CB  ALA d   1     105.811 -19.804  16.406  0.00  0.00    -0.049 C 
ATOM     72  H10 ALA d   1     104.987 -20.424  16.789  0.00  0.00     0.030 H 
ATOM     73  H11 ALA d   1     106.579 -19.692  17.186  0.00  0.00     0.030 H 
ATOM     74  H12 ALA d   1     106.253 -20.287  15.522  0.00  0.00     0.030 H 
ENDBRANCH  55  71
ENDBRANCH  52  55
ENDBRANCH  49  51
BRANCH  49  75
ATOM     75  CB  THR d   1     101.757 -16.301  18.046  0.00  0.00     0.060 C 
ATOM     76  H15 THR d   1     102.504 -15.522  17.834  0.00  0.00     0.086 H 
BRANCH  75  77
ATOM     77  OG1 THR d   1     100.945 -15.860  19.134  0.00  0.00    -0.393 OA
ATOM     78  H16 THR d   1     100.316 -16.537  19.353  0.00  0.00     0.210 HD
ENDBRANCH  75  77
BRANCH  75  79
ATOM     79  CG2 THR d   1     100.908 -16.498  16.777  0.00  0.00    -0.050 C 
ATOM     80  H17 THR d   1     100.393 -15.558  16.531  0.00  0.00     0.031 H 
ATOM     81  H18 THR d   1     100.163 -17.288  16.953  0.00  0.00     0.031 H 
ATOM     82  H19 THR d   1     101.561 -16.789  15.941  0.00  0.00     0.031 H 
ENDBRANCH  75  79
ENDBRANCH  49  75
ENDBRANCH  46  49
ENDBRANCH   1  45
BRANCH   4  83
ATOM     83  CG2 THR d   1     102.300 -21.179  22.163  0.00  0.00    -0.049 C 
ATOM     84  H23 THR d   1     102.561 -21.351  23.218  0.00  0.00     0.031 H 
ATOM     85  H24 THR d   1     103.103 -20.608  21.674  0.00  0.00     0.031 H 
ATOM     86  H25 THR d   1     102.176 -22.146  21.654  0.00  0.00     0.031 H 
ENDBRANCH   4  83
BRANCH   9  87
ATOM     87  CB  LEU d   1      96.381 -21.823  19.111  0.00  0.00    -0.035 C 
ATOM     88  H28 LEU d   1      95.285 -21.758  19.044  0.00  0.00     0.037 H 
ATOM     89  H29 LEU d   1      96.668 -22.818  19.483  0.00  0.00     0.037 H 
BRANCH  87  90
ATOM     90  CG  LEU d   1      96.977 -21.621  17.720  0.00  0.00    -0.059 C 
ATOM     91  H30 LEU d   1      98.069 -21.733  17.789  0.00  0.00     0.038 H 
BRANCH  90  92
ATOM     92  CD1 LEU d   1      96.433 -22.682  16.761  0.00  0.00    -0.073 C 
ATOM     93  H31 LEU d   1      96.867 -22.530  15.762  0.00  0.00     0.028 H 
ATOM     94  H32 LEU d   1      95.338 -22.596  16.702  0.00  0.00     0.028 H 
ATOM     95  H33 LEU d   1      96.703 -23.683  17.130  0.00  0.00     0.028 H 
ENDBRANCH  90  92
BRANCH  90  96
ATOM     96  CD2 LEU d   1      96.666 -20.220  17.177  0.00  0.00    -0.073 C 
ATOM     97  H34 LEU d   1      97.059 -19.462  17.871  0.00  0.00     0.028 H 
ATOM     98  H35 LEU d   1      95.577 -20.098  17.080  0.00  0.00     0.028 H 
ATOM     99  H36 LEU d   1      97.138 -20.096  16.192  0.00  0.00     0.028 H 
ENDBRANCH  90  96
ENDBRANCH  87  90
ENDBRANCH   9  87
BRANCH  40 100
ATOM    100  CB  VAL d   1     100.760 -17.620  25.535  0.00  0.00    -0.032 C 
ATOM    101  H61 VAL d   1     100.184 -18.380  26.084  0.00  0.00     0.042 H 
BRANCH 100 102
ATOM    102  CG1 VAL d   1     100.800 -16.343  26.368  0.00  0.00    -0.071 C 
ATOM    103  H62 VAL d   1     101.305 -16.545  27.324  0.00  0.00     0.028 H 
ATOM    104  H63 VAL d   1      99.773 -15.999  26.561  0.00  0.00     0.028 H 
ATOM    105  H64 VAL d   1     101.350 -15.565  25.820  0.00  0.00     0.028 H 
ENDBRANCH 100 102
BRANCH 100 106
ATOM    106  CG2 VAL d   1     102.186 -18.142  25.340  0.00  0.00    -0.071 C 
ATOM    107  H65 VAL d   1     102.160 -19.063  24.739  0.00  0.00     0.028 H 
ATOM    108  H66 VAL d   1     102.635 -18.356  26.321  0.00  0.00     0.028 H 
ATOM    109  H67 VAL d   1     102.787 -17.382  24.820  0.00  0.00     0.028 H 
ENDBRANCH 100 106
ENDBRANCH  40 100
BRANCH  34 110
ATOM    110  CB  CNT d   1      96.301 -14.217  23.489  0.00  0.00    -0.014 C 
ATOM    111  H53 CNT d   1      96.521 -14.308  22.415  0.00  0.00     0.043 H 
ATOM    112  H54 CNT d   1      96.855 -13.363  23.906  0.00  0.00     0.043 H 
BRANCH 110 113
ATOM    113  CG  CNT d   1      94.808 -13.989  23.679  0.00  0.00    -0.054 A 
ATOM    114  CD2 CNT d   1      93.905 -14.509  22.743  0.00  0.00    -0.053 A 
ATOM    115  CE2 CNT d   1      92.528 -14.367  22.946  0.00  0.00     0.067 A 
ATOM    116  H55 CNT d   1      94.273 -15.021  21.861  0.00  0.00     0.087 H 
ATOM    117 CL   CNT d   1      91.408 -15.069  21.769  0.00  0.00    -0.081 Cl
ATOM    118  CZ  CNT d   1      92.046 -13.695  24.086  0.00  0.00     0.087 A 
ATOM    119  CD1 CNT d   1      92.950 -13.169  25.022  0.00  0.00    -0.049 A 
ATOM    120  CE1 CNT d   1      94.333 -13.316  24.818  0.00  0.00    -0.074 A 
ATOM    121  H57 CNT d   1      92.582 -12.651  25.900  0.00  0.00     0.087 H 
ATOM    122  H58 CNT d   1      95.033 -12.910  25.539  0.00  0.00     0.084 H 
BRANCH 118 123
ATOM    123  OH  CNT d   1      90.708 -13.552  24.285  0.00  0.00    -0.359 OA
ATOM    124  H56 CNT d   1      90.558 -13.079  25.095  0.00  0.00     0.217 HD
ENDBRANCH 118 123
ENDBRANCH 110 113
ENDBRANCH  34 110
BRANCH  20 125
ATOM    125  OD  SUJ d   1      97.372 -18.275  26.567  0.00  0.00    -0.377 OA
ATOM    126  H44 SUJ d   1      97.270 -17.342  26.715  0.00  0.00     0.212 HD
ENDBRANCH  20 125
BRANCH  22 127
ATOM    127  C3  SUJ d   1      93.285 -17.150  25.998  0.00  0.00     0.060 C 
ATOM    128  H46 SUJ d   1      92.859 -16.161  26.222  0.00  0.00     0.086 H 
BRANCH 127 129
ATOM    129  C4  SUJ d   1      92.374 -17.851  24.995  0.00  0.00    -0.050 C 
ATOM    130  H47 SUJ d   1      91.374 -17.979  25.435  0.00  0.00     0.031 H 
ATOM    131  H48 SUJ d   1      92.793 -18.837  24.745  0.00  0.00     0.031 H 
ATOM    132  H49 SUJ d   1      92.297 -17.243  24.082  0.00  0.00     0.031 H 
ENDBRANCH 127 129
BRANCH 127 133
ATOM    133  O3  SUJ d   1      93.362 -17.897  27.208  0.00  0.00    -0.393 OA
ATOM    134  H50 SUJ d   1      93.932 -17.448  27.821  0.00  0.00     0.210 HD
ENDBRANCH 127 133
ENDBRANCH  22 127
TORSDOF 27
