REMARK  7 active torsions:
REMARK  status: ('A' for Active; 'I' for Inactive)
REMARK    1  A    between atoms: N6_6  and  C24_24 
REMARK    2  A    between atoms: N9_9  and  C28_28 
REMARK    3  A    between atoms: C24_24  and  C35_35 
REMARK    4  A    between atoms: C25_25  and  O33_33 
REMARK    5  A    between atoms: C26_26  and  N31_31 
REMARK    6  A    between atoms: N31_31  and  C32_32 
REMARK    7  A    between atoms: O33_33  and  C34_34 
ROOT
ATOM      1  C24 STU d   1      81.939  19.930  12.872  0.00  0.00     0.168 C 
ATOM      2  C25 STU d   1      82.557  20.621  11.610  0.00  0.00     0.113 C 
ATOM      3  C26 STU d   1      83.748  21.455  12.055  0.00  0.00     0.134 C 
ATOM      4  C27 STU d   1      84.847  20.523  12.559  0.00  0.00     0.005 C 
ATOM      5  C28 STU d   1      84.278  19.595  13.658  0.00  0.00     0.115 C 
ATOM      6  O29 STU d   1      82.889  19.845  13.980  0.00  0.00    -0.333 OA
ATOM      7  H10 STU d   1      81.799  21.245  11.114  0.00  0.00     0.094 H 
ATOM      8  H11 STU d   1      83.441  22.135  12.864  0.00  0.00     0.088 H 
ATOM      9  H12 STU d   1      85.671  21.121  12.975  0.00  0.00     0.042 H 
ATOM     10  H13 STU d   1      85.222  19.914  11.723  0.00  0.00     0.042 H 
ATOM     11  H14 STU d   1      84.857  19.817  14.566  0.00  0.00     0.118 H 
ENDROOT
BRANCH   3  12
ATOM     12  N31 STU d   1      84.251  22.242  10.916  0.00  0.00    -0.072 N 
ATOM     13  H15 STU d   1      84.167  21.637  10.114  0.00  0.00     0.277 HD
ATOM     14  H16 STU d   1      85.226  22.405  11.113  0.00  0.00     0.277 HD
BRANCH  12  15
ATOM     15  C32 STU d   1      83.716  23.544  10.481  0.00  0.00     0.065 C 
ATOM     16  H17 STU d   1      84.282  23.899   9.607  0.00  0.00     0.067 H 
ATOM     17  H18 STU d   1      83.811  24.272  11.300  0.00  0.00     0.067 H 
ATOM     18  H19 STU d   1      82.656  23.433  10.210  0.00  0.00     0.067 H 
ENDBRANCH  12  15
ENDBRANCH   3  12
BRANCH   2  19
ATOM     19  O33 STU d   1      83.091  19.645  10.691  0.00  0.00    -0.384 OA
BRANCH  19  20
ATOM     20  C34 STU d   1      82.178  19.404   9.614  0.00  0.00     0.005 C 
ATOM     21  H20 STU d   1      82.608  18.658   8.929  0.00  0.00     0.066 H 
ATOM     22  H21 STU d   1      81.999  20.342   9.069  0.00  0.00     0.066 H 
ATOM     23  H22 STU d   1      81.227  19.027  10.017  0.00  0.00     0.066 H 
ENDBRANCH  19  20
ENDBRANCH   2  19
BRANCH   1  24
ATOM     24  N6  STU d   1      81.456  18.689  12.528  0.00  0.00    -0.308 N 
ATOM     25  C5  STU d   1      80.172  18.450  12.023  0.00  0.00     0.049 A 
ATOM     26  C4  STU d   1      79.039  19.219  11.690  0.00  0.00    -0.056 A 
ATOM     27  C23 STU d   1      80.154  17.053  11.812  0.00  0.00     0.004 A 
ATOM     28  C3  STU d   1      77.901  18.569  11.148  0.00  0.00    -0.081 A 
ATOM     29  H4  STU d   1      79.037  20.292  11.846  0.00  0.00     0.087 H 
ATOM     30  C2  STU d   1      77.899  17.158  10.946  0.00  0.00    -0.082 A 
ATOM     31  H3  STU d   1      77.025  19.151  10.885  0.00  0.00     0.083 H 
ATOM     32  C1  STU d   1      79.035  16.386  11.282  0.00  0.00    -0.070 A 
ATOM     33  H2  STU d   1      77.022  16.674  10.532  0.00  0.00     0.083 H 
ATOM     34  H1  STU d   1      79.043  15.312  11.135  0.00  0.00     0.084 H 
ATOM     35  C22 STU d   1      81.361  16.522  12.164  0.00  0.00     0.018 A 
ATOM     36  C7  STU d   1      82.162  17.525  12.606  0.00  0.00     0.077 A 
ATOM     37  C21 STU d   1      81.934  15.217  12.098  0.00  0.00     0.012 A 
ATOM     38  C8  STU d   1      83.501  17.279  12.972  0.00  0.00     0.077 A 
ATOM     39  N9  STU d   1      84.462  18.150  13.376  0.00  0.00    -0.316 N 
ATOM     40  C16 STU d   1      84.049  16.022  12.899  0.00  0.00     0.022 A 
ATOM     41  C10 STU d   1      85.663  17.477  13.561  0.00  0.00     0.048 A 
ATOM     42  C11 STU d   1      86.968  17.838  13.942  0.00  0.00    -0.056 A 
ATOM     43  C15 STU d   1      85.364  16.127  13.248  0.00  0.00     0.004 A 
ATOM     44  C12 STU d   1      87.961  16.831  14.007  0.00  0.00    -0.081 A 
ATOM     45  H5  STU d   1      87.209  18.867  14.181  0.00  0.00     0.087 H 
ATOM     46  C13 STU d   1      87.645  15.476  13.689  0.00  0.00    -0.082 A 
ATOM     47  H6  STU d   1      88.971  17.092  14.301  0.00  0.00     0.083 H 
ATOM     48  C14 STU d   1      86.329  15.117  13.306  0.00  0.00    -0.070 A 
ATOM     49  H7  STU d   1      88.417  14.717  13.741  0.00  0.00     0.083 H 
ATOM     50  H8  STU d   1      86.078  14.090  13.065  0.00  0.00     0.084 H 
ATOM     51  C17 STU d   1      83.217  14.936  12.440  0.00  0.00     0.060 A 
ATOM     52  C18 STU d   1      83.457  13.603  12.261  0.00  0.00     0.278 A 
ATOM     53  N19 STU d   1      82.281  13.080  11.786  0.00  0.00    -0.221 NA
ATOM     54  O30 STU d   1      84.493  12.981  12.504  0.00  0.00    -0.265 OA
ATOM     55  C20 STU d   1      81.325  14.098  11.689  0.00  0.00     0.018 A 
ATOM     56  H9  STU d   1      80.295  13.999  11.350  0.00  0.00     0.116 H 
ENDBRANCH   1  24
BRANCH   1  57
ATOM     57  C35 STU d   1      80.791  20.824  13.403  0.00  0.00    -0.028 C 
ATOM     58  H23 STU d   1      81.191  21.812  13.674  0.00  0.00     0.034 H 
ATOM     59  H24 STU d   1      80.341  20.355  14.290  0.00  0.00     0.034 H 
ATOM     60  H25 STU d   1      80.025  20.940  12.622  0.00  0.00     0.034 H 
ENDBRANCH   1  57
TORSDOF 7
