REMARK  8 active torsions:
REMARK  status: ('A' for Active; 'I' for Inactive)
REMARK    1  A    between atoms: O37_1  and  C9_2 
REMARK    2  A    between atoms: N3_14  and  C25_28 
REMARK    3  A    between atoms: N2_17  and  C21_26 
REMARK    4  A    between atoms: C21_26  and  C26_36 
REMARK    5  A    between atoms: C23_30  and  N4_31 
REMARK    6  A    between atoms: N4_31  and  C28_32 
REMARK    7  A    between atoms: C22_33  and  O6_34 
REMARK    8  A    between atoms: O6_34  and  C27_35 
ROOT
ATOM      1  C21 UCN d   1      81.853  19.747  12.937  0.00  0.00     0.168 C 
ATOM      2  O4  UCN d   1      82.790  19.632  14.017  0.00  0.00    -0.333 OA
ATOM      3  C25 UCN d   1      84.178  19.405  13.715  0.00  0.00     0.115 C 
ATOM      4  C24 UCN d   1      84.739  20.294  12.600  0.00  0.00     0.005 C 
ATOM      5  C23 UCN d   1      83.661  21.291  12.177  0.00  0.00     0.134 C 
ATOM      6  C22 UCN d   1      82.419  20.512  11.733  0.00  0.00     0.113 C 
ATOM      7  H12 UCN d   1      84.751  19.646  14.622  0.00  0.00     0.118 H 
ATOM      8  H13 UCN d   1      85.025  19.672  11.739  0.00  0.00     0.042 H 
ATOM      9  H14 UCN d   1      85.621  20.838  12.969  0.00  0.00     0.042 H 
ATOM     10  H15 UCN d   1      83.399  21.932  13.032  0.00  0.00     0.088 H 
ATOM     11  H21 UCN d   1      81.659  21.196  11.328  0.00  0.00     0.094 H 
ENDROOT
BRANCH   5  12
ATOM     12  N4  UCN d   1      84.171  22.133  11.085  0.00  0.00    -0.072 N 
ATOM     13  H16 UCN d   1      84.046  21.588  10.246  0.00  0.00     0.277 HD
ATOM     14  H17 UCN d   1      85.156  22.244  11.270  0.00  0.00     0.277 HD
BRANCH  12  15
ATOM     15  C28 UCN d   1      83.683  23.479  10.751  0.00  0.00     0.065 C 
ATOM     16  H18 UCN d   1      84.246  23.870   9.891  0.00  0.00     0.067 H 
ATOM     17  H19 UCN d   1      83.824  24.145  11.615  0.00  0.00     0.067 H 
ATOM     18  H20 UCN d   1      82.614  23.429  10.497  0.00  0.00     0.067 H 
ENDBRANCH  12  15
ENDBRANCH   5  12
BRANCH   6  19
ATOM     19  O6  UCN d   1      82.835  19.573  10.730  0.00  0.00    -0.384 OA
BRANCH  19  20
ATOM     20  C27 UCN d   1      82.223  19.878   9.473  0.00  0.00     0.005 C 
ATOM     21  H22 UCN d   1      82.553  19.149   8.718  0.00  0.00     0.066 H 
ATOM     22  H23 UCN d   1      82.517  20.890   9.158  0.00  0.00     0.066 H 
ATOM     23  H24 UCN d   1      81.129  19.829   9.576  0.00  0.00     0.066 H 
ENDBRANCH  19  20
ENDBRANCH   6  19
BRANCH   3  24
ATOM     24  N3  UCN d   1      84.365  17.964  13.438  0.00  0.00    -0.316 N 
ATOM     25  C20 UCN d   1      85.523  17.317  13.610  0.00  0.00     0.048 A 
ATOM     26  C5  UCN d   1      85.264  15.988  13.278  0.00  0.00     0.004 A 
ATOM     27  C1  UCN d   1      86.807  17.682  14.000  0.00  0.00    -0.056 A 
ATOM     28  C6  UCN d   1      83.932  15.867  12.904  0.00  0.00     0.022 A 
ATOM     29  C4  UCN d   1      86.244  15.003  13.324  0.00  0.00    -0.070 A 
ATOM     30  C7  UCN d   1      83.130  14.829  12.439  0.00  0.00     0.057 A 
ATOM     31  C19 UCN d   1      83.404  17.144  13.014  0.00  0.00     0.077 A 
ATOM     32  C8  UCN d   1      83.403  13.472  12.290  0.00  0.00     0.255 A 
ATOM     33  C10 UCN d   1      81.811  15.087  12.083  0.00  0.00     0.020 A 
ATOM     34  N1  UCN d   1      82.277  12.904  11.856  0.00  0.00    -0.326 N 
ATOM     35  O5  UCN d   1      84.471  12.895  12.480  0.00  0.00    -0.268 OA
ATOM     36  C9  UCN d   1      81.128  13.799  11.622  0.00  0.00     0.131 A 
ATOM     37  H3  UCN d   1      82.215  11.919  11.697  0.00  0.00     0.165 HD
ATOM     38  H2  UCN d   1      80.216  13.534  12.178  0.00  0.00     0.126 H 
ATOM     39  C11 UCN d   1      81.290  16.377  12.187  0.00  0.00     0.017 A 
ATOM     40  C18 UCN d   1      82.083  17.407  12.657  0.00  0.00     0.077 A 
ATOM     41  C12 UCN d   1      80.107  16.973  11.783  0.00  0.00     0.004 A 
ATOM     42  N2  UCN d   1      81.398  18.547  12.551  0.00  0.00    -0.308 N 
ATOM     43  C17 UCN d   1      80.185  18.344  12.014  0.00  0.00     0.049 A 
ATOM     44  C16 UCN d   1      79.107  19.141  11.643  0.00  0.00    -0.056 A 
ATOM     45  C15 UCN d   1      77.988  18.555  11.053  0.00  0.00    -0.081 A 
ATOM     46  H11 UCN d   1      79.137  20.211  11.812  0.00  0.00     0.087 H 
ATOM     47  C14 UCN d   1      77.930  17.180  10.830  0.00  0.00    -0.082 A 
ATOM     48  H10 UCN d   1      77.150  19.178  10.763  0.00  0.00     0.083 H 
ATOM     49  C13 UCN d   1      78.999  16.366  11.196  0.00  0.00    -0.070 A 
ATOM     50  H9  UCN d   1      77.051  16.743  10.371  0.00  0.00     0.083 H 
ATOM     51  H8  UCN d   1      78.970  15.295  11.030  0.00  0.00     0.084 H 
ATOM     52  C3  UCN d   1      87.526  15.384  13.714  0.00  0.00    -0.082 A 
ATOM     53  H7  UCN d   1      86.019  13.975  13.066  0.00  0.00     0.084 H 
ATOM     54  C2  UCN d   1      87.803  16.708  14.047  0.00  0.00    -0.081 A 
ATOM     55  H6  UCN d   1      88.316  14.643  13.759  0.00  0.00     0.083 H 
ATOM     56  H5  UCN d   1      88.807  16.985  14.347  0.00  0.00     0.083 H 
ATOM     57  H4  UCN d   1      87.030  18.709  14.264  0.00  0.00     0.087 H 
BRANCH  36  58
ATOM     58  O37 UCN d   1      80.902  13.891  10.214  0.00  0.00    -0.372 OA
ATOM     59  H1  UCN d   1      80.163  14.466  10.050  0.00  0.00     0.212 HD
ENDBRANCH  36  58
ENDBRANCH   3  24
BRANCH   1  60
ATOM     60  C26 UCN d   1      80.732  20.611  13.524  0.00  0.00    -0.028 C 
ATOM     61  H25 UCN d   1      81.141  21.585  13.829  0.00  0.00     0.034 H 
ATOM     62  H26 UCN d   1      80.299  20.105  14.400  0.00  0.00     0.034 H 
ATOM     63  H27 UCN d   1      79.951  20.763  12.765  0.00  0.00     0.034 H 
ENDBRANCH   1  60
TORSDOF 8
