REMARK  28 active torsions:
REMARK  status: ('A' for Active; 'I' for Inactive)
REMARK    1  A    between atoms: C1_1  and  C2_3 
REMARK       I    between atoms: N2_15  and  C1_1 
REMARK    2  A    between atoms: C2_3  and  N2_4 
REMARK    3  A    between atoms: C2_3  and  C3_5 
REMARK    4  A    between atoms: C3_5  and  C4_6 
REMARK    5  A    between atoms: C4_6  and  C5_7 
REMARK    6  A    between atoms: C5_7  and  N6_8 
REMARK       I    between atoms: N6_8  and  C7_9 
REMARK       I    between atoms: C7_9  and  N8_11 
REMARK    7  A    between atoms: C2_14  and  C1_12 
REMARK       I    between atoms: C1_12  and  N_23 
REMARK    8  A    between atoms: C2_14  and  N2_15 
REMARK    9  A    between atoms: C2_14  and  C3_16 
REMARK   10  A    between atoms: C3_16  and  C4_17 
REMARK   11  A    between atoms: C4_17  and  C5_18 
REMARK   12  A    between atoms: C5_18  and  N6_19 
REMARK       I    between atoms: N6_19  and  C7_20 
REMARK       I    between atoms: C7_20  and  N8_22 
REMARK   13  A    between atoms: N_23  and  CA_24 
REMARK   14  A    between atoms: CA_24  and  C_25 
REMARK   15  A    between atoms: CA_24  and  CB_27 
REMARK       I    between atoms: C_25  and  N_31 
REMARK   16  A    between atoms: CB_27  and  CG_28 
REMARK   17  A    between atoms: CG_28  and  CD1_29 
REMARK   18  A    between atoms: CG_28  and  CD2_30 
REMARK   19  A    between atoms: N_31  and  CA_32 
REMARK   20  A    between atoms: CA_32  and  C_33 
REMARK   21  A    between atoms: CA_32  and  CB_35 
REMARK       I    between atoms: C_33  and  N_39 
REMARK   22  A    between atoms: CB_35  and  CG1_36 
REMARK   23  A    between atoms: CB_35  and  CG2_37 
REMARK   24  A    between atoms: CG1_36  and  CD1_38 
REMARK   25  A    between atoms: N_39  and  CA_40 
REMARK   26  A    between atoms: CA_40  and  C_41 
REMARK   27  A    between atoms: CA_40  and  CB_43 
REMARK   28  A    between atoms: CB_43  and  CG_44 
ROOT
ATOM      1  CA  LEU d   1      41.466  24.547   0.584  0.00  0.00     0.089 C 
ATOM      2  H26 LEU d   1      41.904  24.000  -0.264  0.00  0.00     0.087 H 
ENDROOT
BRANCH   1   3
ATOM      3  N   LEU d   1      40.279  23.862   1.063  0.00  0.00    -0.346 N 
ATOM      4  C1  CIR d   1      40.254  22.542   1.115  0.00  0.00     0.241 C 
ATOM      5  O1  CIR d   1      41.038  21.802   0.553  0.00  0.00    -0.271 OA
ATOM      6  H25 LEU d   1      39.480  24.389   1.353  0.00  0.00     0.163 HD
BRANCH   4   7
ATOM      7  C2  CIR d   1      39.176  21.911   1.910  0.00  0.00     0.089 C 
ATOM      8  H14 CIR d   1      38.445  22.668   2.229  0.00  0.00     0.087 H 
BRANCH   7   9
ATOM      9  N2  CIR d   1      38.547  20.994   0.987  0.00  0.00    -0.346 N 
ATOM     10  C1  CIR d   1      37.895  21.484  -0.082  0.00  0.00     0.248 C 
ATOM     11  O1  CIR d   1      37.606  22.655  -0.214  0.00  0.00    -0.271 OA
ATOM     12  H15 CIR d   1      38.596  20.007   1.141  0.00  0.00     0.163 HD
BRANCH  10  13
ATOM     13  C2  CIR d   1      37.401  20.565  -1.167  0.00  0.00     0.176 C 
ATOM     14  H1  CIR d   1      38.118  19.735  -1.252  0.00  0.00     0.099 H 
BRANCH  13  15
ATOM     15  N2  CIR d   1      36.078  19.983  -0.945  0.00  0.00    -0.067 N 
ATOM     16  H2  CIR d   1      35.839  19.387  -1.722  0.00  0.00     0.275 HD
ATOM     17  H3  CIR d   1      35.396  20.721  -0.865  0.00  0.00     0.275 HD
ATOM     18  H4  CIR d   1      36.088  19.440  -0.096  0.00  0.00     0.275 HD
ENDBRANCH  13  15
BRANCH  13  19
ATOM     19  C3  CIR d   1      37.379  21.326  -2.464  0.00  0.00    -0.029 C 
ATOM     20  H5  CIR d   1      37.069  22.355  -2.227  0.00  0.00     0.036 H 
ATOM     21  H6  CIR d   1      36.619  20.851  -3.102  0.00  0.00     0.036 H 
BRANCH  19  22
ATOM     22  C4  CIR d   1      38.506  21.414  -3.196  0.00  0.00    -0.048 C 
ATOM     23  H7  CIR d   1      39.146  20.574  -2.888  0.00  0.00     0.035 H 
ATOM     24  H8  CIR d   1      38.987  22.363  -2.917  0.00  0.00     0.035 H 
BRANCH  22  25
ATOM     25  C5  CIR d   1      38.459  21.388  -4.546  0.00  0.00    -0.003 C 
ATOM     26  H9  CIR d   1      37.394  21.418  -4.820  0.00  0.00     0.064 H 
ATOM     27  H10 CIR d   1      38.889  20.423  -4.853  0.00  0.00     0.064 H 
BRANCH  25  28
ATOM     28  N6  CIR d   1      39.065  22.323  -5.286  0.00  0.00    -0.343 N 
ATOM     29  C7  CIR d   1      40.391  22.299  -5.397  0.00  0.00     0.313 C 
ATOM     30  O7  CIR d   1      40.996  21.248  -5.560  0.00  0.00    -0.248 OA
ATOM     31  N8  CIR d   1      41.018  23.475  -5.301  0.00  0.00    -0.352 N 
ATOM     32  H12 CIR d   1      42.014  23.518  -5.377  0.00  0.00     0.160 HD
ATOM     33  H13 CIR d   1      40.491  24.312  -5.153  0.00  0.00     0.160 HD
ATOM     34  H11 CIR d   1      38.530  23.029  -5.749  0.00  0.00     0.164 HD
ENDBRANCH  25  28
ENDBRANCH  22  25
ENDBRANCH  19  22
ENDBRANCH  13  19
ENDBRANCH  10  13
ENDBRANCH   7   9
BRANCH   7  35
ATOM     35  C3  CIR d   1      39.747  21.258   3.143  0.00  0.00    -0.036 C 
ATOM     36  H16 CIR d   1      40.334  20.389   2.812  0.00  0.00     0.036 H 
ATOM     37  H17 CIR d   1      38.900  20.916   3.756  0.00  0.00     0.036 H 
BRANCH  35  38
ATOM     38  C4  CIR d   1      40.643  22.098   4.035  0.00  0.00    -0.048 C 
ATOM     39  H18 CIR d   1      40.074  22.973   4.380  0.00  0.00     0.035 H 
ATOM     40  H19 CIR d   1      41.510  22.433   3.447  0.00  0.00     0.035 H 
BRANCH  38  41
ATOM     41  C5  CIR d   1      41.151  21.329   5.261  0.00  0.00    -0.003 C 
ATOM     42  H20 CIR d   1      41.809  21.971   5.865  0.00  0.00     0.064 H 
ATOM     43  H21 CIR d   1      41.705  20.433   4.943  0.00  0.00     0.064 H 
BRANCH  41  44
ATOM     44  N6  CIR d   1      39.975  20.944   6.036  0.00  0.00    -0.343 N 
ATOM     45  C7  CIR d   1      39.385  21.752   6.932  0.00  0.00     0.313 C 
ATOM     46  O7  CIR d   1      38.506  21.337   7.700  0.00  0.00    -0.248 OA
ATOM     47  N8  CIR d   1      39.785  23.027   6.957  0.00  0.00    -0.352 N 
ATOM     48  H23 CIR d   1      39.375  23.667   7.607  0.00  0.00     0.160 HD
ATOM     49  H24 CIR d   1      40.494  23.341   6.326  0.00  0.00     0.160 HD
ATOM     50  H22 CIR d   1      39.589  20.033   5.892  0.00  0.00     0.164 HD
ENDBRANCH  41  44
ENDBRANCH  38  41
ENDBRANCH  35  38
ENDBRANCH   7  35
ENDBRANCH   4   7
ENDBRANCH   1   3
BRANCH   1  51
ATOM     51  C   LEU d   1      42.491  24.677   1.657  0.00  0.00     0.241 C 
ATOM     52  O   LEU d   1      42.188  25.401   2.594  0.00  0.00    -0.271 OA
ATOM     53  N   ILE d   1      43.634  23.974   1.545  0.00  0.00    -0.346 N 
ATOM     54  H36 ILE d   1      43.733  23.291   0.821  0.00  0.00     0.163 HD
BRANCH  53  55
ATOM     55  CA  ILE d   1      44.733  24.211   2.486  0.00  0.00     0.092 C 
ATOM     56  H37 ILE d   1      44.313  24.555   3.443  0.00  0.00     0.088 H 
BRANCH  55  57
ATOM     57  C   ILE d   1      45.598  25.274   1.919  0.00  0.00     0.241 C 
ATOM     58  O   ILE d   1      45.765  25.249   0.727  0.00  0.00    -0.271 OA
ATOM     59  N   PFF d   1      46.066  26.187   2.763  0.00  0.00    -0.344 N 
ATOM     60  H47 PFF d   1      45.994  26.027   3.748  0.00  0.00     0.163 HD
BRANCH  59  61
ATOM     61  CA  PFF d   1      46.678  27.410   2.286  0.00  0.00     0.100 C 
ATOM     62  H48 PFF d   1      46.682  27.443   1.187  0.00  0.00     0.090 H 
BRANCH  61  63
ATOM     63  C   PFF d   1      48.090  27.509   2.788  0.00  0.00     0.197 C 
ATOM     64  O   PFF d   1      49.004  27.711   1.992  0.00  0.00    -0.646 OA
ATOM     65  O2  PFF d   1      48.336  27.386   4.018  0.00  0.00    -0.646 OA
ENDBRANCH  61  63
BRANCH  61  66
ATOM     66  CB  PFF d   1      45.782  28.518   2.850  0.00  0.00    -0.013 C 
ATOM     67  H49 PFF d   1      46.373  29.442   2.941  0.00  0.00     0.043 H 
ATOM     68  H50 PFF d   1      45.422  28.213   3.844  0.00  0.00     0.043 H 
BRANCH  66  69
ATOM     69  CG  PFF d   1      44.586  28.786   1.956  0.00  0.00    -0.056 A 
ATOM     70  CD1 PFF d   1      43.301  28.721   2.492  0.00  0.00    -0.074 A 
ATOM     71  CE1 PFF d   1      42.178  28.978   1.696  0.00  0.00    -0.045 A 
ATOM     72  H51 PFF d   1      43.169  28.468   3.538  0.00  0.00     0.084 H 
ATOM     73  CZ  PFF d   1      42.354  29.322   0.354  0.00  0.00     0.116 A 
ATOM     74  H53 PFF d   1      41.182  28.911   2.117  0.00  0.00     0.088 H 
ATOM     75  CE2 PFF d   1      43.648  29.390  -0.191  0.00  0.00    -0.045 A 
ATOM     76  F   PFF d   1      41.263  29.522  -0.417  0.00  0.00    -0.206 F 
ATOM     77  CD2 PFF d   1      44.764  29.135   0.614  0.00  0.00    -0.074 A 
ATOM     78  H54 PFF d   1      43.782  29.640  -1.237  0.00  0.00     0.088 H 
ATOM     79  H52 PFF d   1      45.763  29.208   0.199  0.00  0.00     0.084 H 
ENDBRANCH  66  69
ENDBRANCH  61  66
ENDBRANCH  59  61
ENDBRANCH  55  57
BRANCH  55  80
ATOM     80  CB  ILE d   1      45.562  22.946   2.745  0.00  0.00    -0.030 C 
ATOM     81  H38 ILE d   1      46.481  23.023   2.145  0.00  0.00     0.043 H 
BRANCH  80  82
ATOM     82  CG1 ILE d   1      44.817  21.689   2.298  0.00  0.00    -0.063 C 
ATOM     83  H39 ILE d   1      45.537  20.985   1.855  0.00  0.00     0.033 H 
ATOM     84  H40 ILE d   1      44.065  21.967   1.545  0.00  0.00     0.033 H 
BRANCH  82  85
ATOM     85  CD1 ILE d   1      44.117  21.012   3.471  0.00  0.00    -0.076 C 
ATOM     86  H44 ILE d   1      43.592  20.113   3.115  0.00  0.00     0.027 H 
ATOM     87  H45 ILE d   1      43.391  21.708   3.917  0.00  0.00     0.027 H 
ATOM     88  H46 ILE d   1      44.863  20.726   4.227  0.00  0.00     0.027 H 
ENDBRANCH  82  85
ENDBRANCH  80  82
BRANCH  80  89
ATOM     89  CG2 ILE d   1      45.976  22.834   4.223  0.00  0.00    -0.071 C 
ATOM     90  H41 ILE d   1      46.510  23.747   4.524  0.00  0.00     0.028 H 
ATOM     91  H42 ILE d   1      46.636  21.964   4.354  0.00  0.00     0.028 H 
ATOM     92  H43 ILE d   1      45.078  22.711   4.847  0.00  0.00     0.028 H 
ENDBRANCH  80  89
ENDBRANCH  55  80
ENDBRANCH  53  55
ENDBRANCH   1  51
BRANCH   1  93
ATOM     93  CB  LEU d   1      40.969  25.916   0.131  0.00  0.00    -0.035 C 
ATOM     94  H27 LEU d   1      41.804  26.475  -0.316  0.00  0.00     0.037 H 
ATOM     95  H28 LEU d   1      40.582  26.467   1.001  0.00  0.00     0.037 H 
BRANCH  93  96
ATOM     96  CG  LEU d   1      39.853  25.764  -0.906  0.00  0.00    -0.059 C 
ATOM     97  H29 LEU d   1      39.147  25.014  -0.519  0.00  0.00     0.038 H 
BRANCH  96  98
ATOM     98  CD1 LEU d   1      39.116  27.080  -1.086  0.00  0.00    -0.073 C 
ATOM     99  H30 LEU d   1      38.319  26.954  -1.833  0.00  0.00     0.028 H 
ATOM    100  H31 LEU d   1      39.821  27.851  -1.429  0.00  0.00     0.028 H 
ATOM    101  H32 LEU d   1      38.674  27.387  -0.127  0.00  0.00     0.028 H 
ENDBRANCH  96  98
BRANCH  96 102
ATOM    102  CD2 LEU d   1      40.319  25.299  -2.286  0.00  0.00    -0.073 C 
ATOM    103  H33 LEU d   1      40.858  24.345  -2.189  0.00  0.00     0.028 H 
ATOM    104  H34 LEU d   1      40.988  26.056  -2.721  0.00  0.00     0.028 H 
ATOM    105  H35 LEU d   1      39.446  25.162  -2.941  0.00  0.00     0.028 H 
ENDBRANCH  96 102
ENDBRANCH  93  96
ENDBRANCH   1  93
TORSDOF 28
