REMARK  26 active torsions:
REMARK  status: ('A' for Active; 'I' for Inactive)
REMARK    1  A    between atoms: N_1  and  CA_2 
REMARK    2  A    between atoms: CA_2  and  C_3 
REMARK    3  A    between atoms: CA_2  and  CB_5 
REMARK       I    between atoms: C_3  and  N_12 
REMARK    4  A    between atoms: CB_5  and  CG_6 
REMARK    5  A    between atoms: CG_6  and  CD_7 
REMARK    6  A    between atoms: CD_7  and  NE_8 
REMARK       I    between atoms: NE_8  and  CZ_9 
REMARK       I    between atoms: CZ_9  and  NH1_10 
REMARK       I    between atoms: CZ_9  and  NH2_11 
REMARK    7  A    between atoms: N_12  and  CA_13 
REMARK    8  A    between atoms: CA_13  and  C_14 
REMARK    9  A    between atoms: CA_13  and  CB_16 
REMARK       I    between atoms: C_14  and  N_23 
REMARK   10  A    between atoms: CB_16  and  CG_17 
REMARK   11  A    between atoms: CG_17  and  CD_18 
REMARK   12  A    between atoms: CD_18  and  NE_19 
REMARK       I    between atoms: NE_19  and  CZ_20 
REMARK       I    between atoms: CZ_20  and  NH1_21 
REMARK   13  A    between atoms: N_23  and  CA_24 
REMARK   14  A    between atoms: CA_24  and  C_25 
REMARK   15  A    between atoms: CA_24  and  CB_27 
REMARK       I    between atoms: C_25  and  N_31 
REMARK   16  A    between atoms: CB_27  and  CG_28 
REMARK   17  A    between atoms: CG_28  and  CD1_29 
REMARK   18  A    between atoms: CG_28  and  CD2_30 
REMARK   19  A    between atoms: N_31  and  CA_32 
REMARK   20  A    between atoms: CA_32  and  C_33 
REMARK   21  A    between atoms: CA_32  and  CB_35 
REMARK       I    between atoms: C_33  and  N_39 
REMARK   22  A    between atoms: CB_35  and  CG_36 
REMARK       I    between atoms: CG_36  and  ND2_38 
REMARK   23  A    between atoms: N_39  and  CA_40 
REMARK   24  A    between atoms: CA_40  and  C_41 
REMARK   25  A    between atoms: CA_40  and  CB_43 
REMARK       I    between atoms: C_41  and  N_51 
REMARK   26  A    between atoms: CB_43  and  CG_44 
ROOT
ATOM      1  CA  LEU d   1      41.025  24.854   0.615  0.00  0.00     0.089 C 
ATOM      2  H30 LEU d   1      41.335  24.155  -0.176  0.00  0.00     0.087 H 
ENDROOT
BRANCH   1   3
ATOM      3  N   LEU d   1      39.868  24.235   1.267  0.00  0.00    -0.346 N 
ATOM      4  C   ARG d   1      39.741  22.904   1.298  0.00  0.00     0.241 C 
ATOM      5  O   ARG d   1      40.561  22.125   0.833  0.00  0.00    -0.271 OA
ATOM      6  H29 LEU d   1      39.169  24.811   1.691  0.00  0.00     0.163 HD
BRANCH   4   7
ATOM      7  CA  ARG d   1      38.550  22.293   1.955  0.00  0.00     0.089 C 
ATOM      8  H17 ARG d   1      37.820  23.083   2.186  0.00  0.00     0.087 H 
BRANCH   7   9
ATOM      9  N   ARG d   1      37.948  21.360   1.011  0.00  0.00    -0.346 N 
ATOM     10  C   ARG d   1      37.198  21.772  -0.024  0.00  0.00     0.248 C 
ATOM     11  O   ARG d   1      36.669  22.874  -0.062  0.00  0.00    -0.271 OA
ATOM     12  H16 ARG d   1      38.099  20.380   1.138  0.00  0.00     0.163 HD
BRANCH  10  13
ATOM     13  CA  ARG d   1      36.898  20.785  -1.124  0.00  0.00     0.176 C 
ATOM     14  H4  ARG d   1      37.054  19.795  -0.671  0.00  0.00     0.099 H 
BRANCH  13  15
ATOM     15  N   ARG d   1      35.490  20.890  -1.467  0.00  0.00    -0.067 N 
ATOM     16  H1  ARG d   1      35.274  20.235  -2.202  0.00  0.00     0.275 HD
ATOM     17  H2  ARG d   1      35.290  21.826  -1.781  0.00  0.00     0.275 HD
ATOM     18  H3  ARG d   1      34.930  20.681  -0.655  0.00  0.00     0.275 HD
ENDBRANCH  13  15
BRANCH  13  19
ATOM     19  CB  ARG d   1      37.728  20.768  -2.403  0.00  0.00    -0.029 C 
ATOM     20  H5  ARG d   1      37.066  20.303  -3.148  0.00  0.00     0.036 H 
ATOM     21  H6  ARG d   1      38.560  20.085  -2.176  0.00  0.00     0.036 H 
BRANCH  19  22
ATOM     22  CG  ARG d   1      38.303  21.777  -3.060  0.00  0.00    -0.047 C 
ATOM     23  H7  ARG d   1      38.164  22.678  -2.445  0.00  0.00     0.035 H 
ATOM     24  H8  ARG d   1      37.757  21.892  -4.008  0.00  0.00     0.035 H 
BRANCH  22  25
ATOM     25  CD  ARG d   1      39.779  21.706  -3.409  0.00  0.00     0.009 C 
ATOM     26  H9  ARG d   1      40.081  20.650  -3.474  0.00  0.00     0.064 H 
ATOM     27  H10 ARG d   1      40.358  22.205  -2.618  0.00  0.00     0.064 H 
BRANCH  25  28
ATOM     28  NE  ARG d   1      40.059  22.359  -4.686  0.00  0.00    -0.227 N 
ATOM     29  CZ  ARG d   1      39.181  22.516  -5.687  0.00  0.00     0.665 C 
ATOM     30  NH1 ARG d   1      39.372  23.509  -6.566  0.00  0.00    -0.235 N 
ATOM     31  NH2 ARG d   1      38.100  21.731  -5.816  0.00  0.00    -0.235 N 
ATOM     32  H12 ARG d   1      38.708  23.645  -7.342  0.00  0.00     0.174 HD
ATOM     33  H13 ARG d   1      40.183  24.136  -6.466  0.00  0.00     0.174 HD
ATOM     34  H14 ARG d   1      37.938  20.963  -5.149  0.00  0.00     0.174 HD
ATOM     35  H15 ARG d   1      37.432  21.896  -6.582  0.00  0.00     0.174 HD
ATOM     36  H11 ARG d   1      41.010  22.729  -4.829  0.00  0.00     0.177 HD
ENDBRANCH  25  28
ENDBRANCH  22  25
ENDBRANCH  19  22
ENDBRANCH  13  19
ENDBRANCH  10  13
ENDBRANCH   7   9
BRANCH   7  37
ATOM     37  CB  ARG d   1      38.949  21.625   3.249  0.00  0.00    -0.036 C 
ATOM     38  H18 ARG d   1      40.017  21.376   3.160  0.00  0.00     0.036 H 
ATOM     39  H19 ARG d   1      38.361  20.698   3.320  0.00  0.00     0.036 H 
BRANCH  37  40
ATOM     40  CG  ARG d   1      38.800  22.264   4.412  0.00  0.00    -0.048 C 
ATOM     41  H20 ARG d   1      38.318  21.551   5.097  0.00  0.00     0.035 H 
ATOM     42  H21 ARG d   1      38.117  23.104   4.217  0.00  0.00     0.035 H 
BRANCH  40  43
ATOM     43  CD  ARG d   1      39.983  22.842   5.164  0.00  0.00     0.009 C 
ATOM     44  H22 ARG d   1      39.631  23.240   6.127  0.00  0.00     0.064 H 
ATOM     45  H23 ARG d   1      40.419  23.657   4.568  0.00  0.00     0.064 H 
BRANCH  43  46
ATOM     46  NE  ARG d   1      41.017  21.837   5.417  0.00  0.00    -0.227 N 
ATOM     47  CZ  ARG d   1      42.339  21.990   5.244  0.00  0.00     0.665 C 
ATOM     48  NH1 ARG d   1      43.117  20.993   4.782  0.00  0.00    -0.235 N 
ATOM     49  NH2 ARG d   1      42.884  23.173   5.539  0.00  0.00    -0.235 N 
ATOM     50  H25 ARG d   1      44.129  21.143   4.661  0.00  0.00     0.174 HD
ATOM     51  H26 ARG d   1      42.700  20.080   4.550  0.00  0.00     0.174 HD
ATOM     52  H27 ARG d   1      42.293  23.939   5.893  0.00  0.00     0.174 HD
ATOM     53  H28 ARG d   1      43.896  23.320   5.413  0.00  0.00     0.174 HD
ATOM     54  H24 ARG d   1      40.698  20.921   5.762  0.00  0.00     0.177 HD
ENDBRANCH  43  46
ENDBRANCH  40  43
ENDBRANCH  37  40
ENDBRANCH   7  37
ENDBRANCH   4   7
ENDBRANCH   1   3
BRANCH   1  55
ATOM     55  C   LEU d   1      42.229  24.976   1.527  0.00  0.00     0.241 C 
ATOM     56  O   LEU d   1      42.160  25.620   2.561  0.00  0.00    -0.271 OA
ATOM     57  N   ASN d   1      43.354  24.327   1.190  0.00  0.00    -0.346 N 
ATOM     58  H40 ASN d   1      43.284  23.667   0.442  0.00  0.00     0.163 HD
BRANCH  57  59
ATOM     59  CA  ASN d   1      44.672  24.485   1.803  0.00  0.00     0.097 C 
ATOM     60  H41 ASN d   1      44.566  24.478   2.898  0.00  0.00     0.088 H 
BRANCH  59  61
ATOM     61  C   ASN d   1      45.253  25.768   1.318  0.00  0.00     0.241 C 
ATOM     62  O   ASN d   1      45.527  25.893   0.130  0.00  0.00    -0.271 OA
ATOM     63  N   PFF d   1      45.461  26.684   2.255  0.00  0.00    -0.346 N 
ATOM     64  H46 PFF d   1      45.140  26.524   3.189  0.00  0.00     0.163 HD
BRANCH  63  65
ATOM     65  CA  PFF d   1      46.154  27.919   1.927  0.00  0.00     0.093 C 
ATOM     66  H47 PFF d   1      46.246  28.016   0.835  0.00  0.00     0.088 H 
BRANCH  65  67
ATOM     67  C   PFF d   1      47.515  27.905   2.553  0.00  0.00     0.238 C 
ATOM     68  O   PFF d   1      48.487  28.106   1.850  0.00  0.00    -0.271 OA
ATOM     69  N   NH2 d   1      47.576  27.652   3.867  0.00  0.00    -0.368 N 
ATOM     70  H54 NH2 d   1      48.461  27.632   4.332  0.00  0.00     0.159 HD
ATOM     71  H55 NH2 d   1      46.736  27.483   4.383  0.00  0.00     0.159 HD
ENDBRANCH  65  67
BRANCH  65  72
ATOM     72  CB  PFF d   1      45.372  29.087   2.484  0.00  0.00    -0.014 C 
ATOM     73  H48 PFF d   1      46.004  29.984   2.410  0.00  0.00     0.043 H 
ATOM     74  H49 PFF d   1      45.157  28.877   3.542  0.00  0.00     0.043 H 
BRANCH  72  75
ATOM     75  CG  PFF d   1      44.096  29.376   1.811  0.00  0.00    -0.056 A 
ATOM     76  CD1 PFF d   1      42.907  29.308   2.508  0.00  0.00    -0.074 A 
ATOM     77  CE1 PFF d   1      41.700  29.517   1.846  0.00  0.00    -0.045 A 
ATOM     78  H50 PFF d   1      42.913  29.092   3.570  0.00  0.00     0.084 H 
ATOM     79  CZ  PFF d   1      41.678  29.804   0.490  0.00  0.00     0.116 A 
ATOM     80  H52 PFF d   1      40.768  29.455   2.397  0.00  0.00     0.088 H 
ATOM     81  CE2 PFF d   1      42.868  29.882  -0.212  0.00  0.00    -0.045 A 
ATOM     82  F   PFF d   1      40.509  29.974  -0.145  0.00  0.00    -0.206 F 
ATOM     83  CD2 PFF d   1      44.066  29.642   0.448  0.00  0.00    -0.074 A 
ATOM     84  H53 PFF d   1      42.865  30.128  -1.268  0.00  0.00     0.088 H 
ATOM     85  H51 PFF d   1      44.995  29.663  -0.111  0.00  0.00     0.084 H 
ENDBRANCH  72  75
ENDBRANCH  65  72
ENDBRANCH  63  65
ENDBRANCH  59  61
BRANCH  59  86
ATOM     86  CB  ASN d   1      45.699  23.447   1.368  0.00  0.00     0.036 C 
ATOM     87  H42 ASN d   1      45.849  23.601   0.289  0.00  0.00     0.051 H 
ATOM     88  H43 ASN d   1      45.230  22.466   1.536  0.00  0.00     0.051 H 
BRANCH  86  89
ATOM     89  CG  ASN d   1      46.941  23.368   1.913  0.00  0.00     0.217 C 
ATOM     90  OD1 ASN d   1      47.109  23.467   3.127  0.00  0.00    -0.274 OA
ATOM     91  ND2 ASN d   1      47.975  23.123   1.093  0.00  0.00    -0.370 N 
ATOM     92  H44 ASN d   1      48.902  23.059   1.463  0.00  0.00     0.159 HD
ATOM     93  H45 ASN d   1      47.818  23.005   0.113  0.00  0.00     0.159 HD
ENDBRANCH  86  89
ENDBRANCH  59  86
ENDBRANCH  57  59
ENDBRANCH   1  55
BRANCH   1  94
ATOM     94  CB  LEU d   1      40.626  26.133  -0.107  0.00  0.00    -0.035 C 
ATOM     95  H31 LEU d   1      41.522  26.518  -0.615  0.00  0.00     0.037 H 
ATOM     96  H32 LEU d   1      40.299  26.854   0.656  0.00  0.00     0.037 H 
BRANCH  94  97
ATOM     97  CG  LEU d   1      39.517  26.034  -1.148  0.00  0.00    -0.059 C 
ATOM     98  H33 LEU d   1      38.748  25.384  -0.704  0.00  0.00     0.038 H 
BRANCH  97  99
ATOM     99  CD1 LEU d   1      38.843  27.365  -1.459  0.00  0.00    -0.073 C 
ATOM    100  H34 LEU d   1      38.059  27.211  -2.215  0.00  0.00     0.028 H 
ATOM    101  H35 LEU d   1      39.591  28.073  -1.846  0.00  0.00     0.028 H 
ATOM    102  H36 LEU d   1      38.393  27.771  -0.541  0.00  0.00     0.028 H 
ENDBRANCH  97  99
BRANCH  97 103
ATOM    103  CD2 LEU d   1      39.942  25.378  -2.463  0.00  0.00    -0.073 C 
ATOM    104  H37 LEU d   1      40.430  24.415  -2.251  0.00  0.00     0.028 H 
ATOM    105  H38 LEU d   1      40.646  26.038  -2.991  0.00  0.00     0.028 H 
ATOM    106  H39 LEU d   1      39.055  25.209  -3.092  0.00  0.00     0.028 H 
ENDBRANCH  97 103
ENDBRANCH  94  97
ENDBRANCH   1  94
TORSDOF 26
