REMARK WARNING: 32 MAX_TORS EXCEEDED!!!
REMARK  49 active torsions:
REMARK  status: ('A' for Active; 'I' for Inactive)
REMARK    1  A    between atoms: N_1  and  CA_2 
REMARK    2  A    between atoms: CA_2  and  C_3 
REMARK       I    between atoms: C_3  and  N_5 
REMARK    3  A    between atoms: CA_6  and  C_7 
REMARK       I    between atoms: C_7  and  N_12 
REMARK    4  A    between atoms: N_12  and  CA_13 
REMARK    5  A    between atoms: CA_13  and  C_14 
REMARK    6  A    between atoms: CA_13  and  CB_16 
REMARK       I    between atoms: C_14  and  N_23 
REMARK    7  A    between atoms: CB_16  and  CG_17 
REMARK    8  A    between atoms: CG_17  and  CD_18 
REMARK    9  A    between atoms: CD_18  and  NE_19 
REMARK       I    between atoms: NE_19  and  CZ_20 
REMARK       I    between atoms: CZ_20  and  NH1_21 
REMARK       I    between atoms: CZ_20  and  NH2_22 
REMARK   10  A    between atoms: N_23  and  CA_24 
REMARK   11  A    between atoms: CA_24  and  C_25 
REMARK   12  A    between atoms: CA_24  and  CB_27 
REMARK       I    between atoms: C_25  and  N_31 
REMARK   13  A    between atoms: CB_27  and  CG_28 
REMARK   14  A    between atoms: CG_28  and  CD1_29 
REMARK   15  A    between atoms: CG_28  and  CD2_30 
REMARK   16  A    between atoms: N_31  and  CA_32 
REMARK   17  A    between atoms: CA_32  and  C_33 
REMARK   18  A    between atoms: CA_32  and  CB_35 
REMARK       I    between atoms: C_33  and  N_37 
REMARK   19  A    between atoms: CB_35  and  OG_36 
REMARK   20  A    between atoms: N_37  and  CA_38 
REMARK   21  A    between atoms: CA_38  and  C_39 
REMARK   22  A    between atoms: CA_38  and  CB_41 
REMARK       I    between atoms: C_39  and  N_48 
REMARK   23  A    between atoms: CB_41  and  CG_42 
REMARK   24  A    between atoms: CG_42  and  CD_43 
REMARK   25  A    between atoms: CD_43  and  NE_44 
REMARK       I    between atoms: NE_44  and  CZ_45 
REMARK       I    between atoms: CZ_45  and  NH1_46 
REMARK   26  A    between atoms: N_48  and  CA_49 
REMARK   27  A    between atoms: CA_49  and  C_50 
REMARK   28  A    between atoms: CA_49  and  CB_52 
REMARK       I    between atoms: C_50  and  N_56 
REMARK   29  A    between atoms: CB_52  and  CG_53 
REMARK   30  A    between atoms: CG_53  and  CD1_54 
REMARK   31  A    between atoms: CG_53  and  CD2_55 
REMARK   32  A    between atoms: N_56  and  CA_57 
REMARK   33  A    between atoms: CA_57  and  C_58 
REMARK   34  A    between atoms: CA_57  and  CB_60 
REMARK       I    between atoms: C_58  and  N_64 
REMARK   35  A    between atoms: CB_60  and  CG_61 
REMARK   36  A    between atoms: CG_61  and  CD1_62 
REMARK   37  A    between atoms: CG_61  and  CD2_63 
REMARK   38  A    between atoms: N_64  and  CA_65 
REMARK   39  A    between atoms: CA_65  and  C_66 
REMARK   40  A    between atoms: CA_65  and  CB_68 
REMARK       I    between atoms: C_66  and  N_70 
REMARK   41  A    between atoms: CB_68  and  OG_69 
REMARK   42  A    between atoms: N_70  and  CA_71 
REMARK   43  A    between atoms: CA_71  and  C_72 
REMARK   44  A    between atoms: CA_71  and  CB_74 
REMARK       I    between atoms: C_72  and  N_82 
REMARK   45  A    between atoms: CB_74  and  CG_75 
REMARK   46  A    between atoms: CZ_80  and  OH_81 
REMARK   47  A    between atoms: N_82  and  CA_83 
REMARK   48  A    between atoms: CA_83  and  C_84 
REMARK   49  A    between atoms: CA_83  and  CB_86 
ROOT
ATOM      1  CA  ARG d   1      -7.372  14.204 -24.228  0.00  0.00     0.089 C 
ATOM      2  H43 ARG d   1      -8.107  13.459 -23.891  0.00  0.00     0.087 H 
ENDROOT
BRANCH   1   3
ATOM      3  N   ARG d   1      -6.723  14.826 -23.087  0.00  0.00    -0.346 N 
ATOM      4  C   SER d   1      -6.609  14.260 -21.882  0.00  0.00     0.243 C 
ATOM      5  O   SER d   1      -7.071  13.150 -21.623  0.00  0.00    -0.271 OA
ATOM      6  H42 ARG d   1      -6.335  15.739 -23.212  0.00  0.00     0.163 HD
BRANCH   4   7
ATOM      7  CA  SER d   1      -5.839  15.043 -20.813  0.00  0.00     0.109 C 
ATOM      8  H38 SER d   1      -4.791  15.088 -21.144  0.00  0.00     0.090 H 
BRANCH   7   9
ATOM      9  N   SER d   1      -6.306  16.411 -20.649  0.00  0.00    -0.344 N 
ATOM     10  C   LEU d   1      -6.012  17.403 -21.499  0.00  0.00     0.241 C 
ATOM     11  O   LEU d   1      -5.323  17.194 -22.494  0.00  0.00    -0.271 OA
ATOM     12  H37 SER d   1      -6.879  16.622 -19.857  0.00  0.00     0.163 HD
BRANCH  10  13
ATOM     13  CA  LEU d   1      -6.556  18.815 -21.226  0.00  0.00     0.089 C 
ATOM     14  H27 LEU d   1      -7.170  19.102 -22.092  0.00  0.00     0.087 H 
BRANCH  13  15
ATOM     15  N   LEU d   1      -7.396  18.857 -20.034  0.00  0.00    -0.346 N 
ATOM     16  C   ARG d   1      -8.592  18.269 -19.928  0.00  0.00     0.241 C 
ATOM     17  O   ARG d   1      -9.099  17.617 -20.840  0.00  0.00    -0.271 OA
ATOM     18  H26 LEU d   1      -7.053  19.361 -19.241  0.00  0.00     0.163 HD
BRANCH  16  19
ATOM     19  CA  ARG d   1      -9.317  18.426 -18.591  0.00  0.00     0.089 C 
ATOM     20  H14 ARG d   1      -8.575  18.476 -17.781  0.00  0.00     0.087 H 
BRANCH  19  21
ATOM     21  N   ARG d   1     -10.049  19.682 -18.636  0.00  0.00    -0.346 N 
ATOM     22  C   PRO d   1     -10.340  20.459 -17.588  0.00  0.00     0.241 C 
ATOM     23  O   PRO d   1     -10.012  20.164 -16.440  0.00  0.00    -0.271 OA
ATOM     24  H13 ARG d   1     -10.363  19.993 -19.533  0.00  0.00     0.163 HD
BRANCH  22  25
ATOM     25  CA  PRO d   1     -11.111  21.758 -17.876  0.00  0.00     0.091 C 
ATOM     26  N   PRO d   1     -12.398  21.523 -18.526  0.00  0.00    -0.337 N 
ATOM     27  C   GLY d   1     -12.561  21.168 -19.812  0.00  0.00     0.246 C 
ATOM     28  CD  PRO d   1     -13.498  21.758 -17.602  0.00  0.00    -0.001 C 
ATOM     29  O   GLY d   1     -11.623  20.984 -20.583  0.00  0.00    -0.272 OA
ATOM     30  CG  PRO d   1     -12.858  21.982 -16.235  0.00  0.00    -0.048 C 
ATOM     31  H11 PRO d   1     -14.166  20.884 -17.573  0.00  0.00     0.064 H 
ATOM     32  H12 PRO d   1     -14.070  22.647 -17.907  0.00  0.00     0.064 H 
ATOM     33  CB  PRO d   1     -11.478  22.523 -16.598  0.00  0.00    -0.036 C 
ATOM     34  H9  PRO d   1     -13.429  22.714 -15.645  0.00  0.00     0.035 H 
ATOM     35  H10 PRO d   1     -12.780  21.039 -15.674  0.00  0.00     0.035 H 
ATOM     36  H7  PRO d   1     -11.519  23.606 -16.787  0.00  0.00     0.036 H 
ATOM     37  H8  PRO d   1     -10.753  22.318 -15.796  0.00  0.00     0.036 H 
ATOM     38  H6  PRO d   1     -10.482  22.390 -18.519  0.00  0.00     0.087 H 
BRANCH  27  39
ATOM     39  CA  GLY d   1     -13.981  20.988 -20.345  0.00  0.00     0.152 C 
ATOM     40  H4  GLY d   1     -14.419  20.077 -19.911  0.00  0.00     0.090 H 
ATOM     41  H5  GLY d   1     -14.589  21.859 -20.060  0.00  0.00     0.090 H 
BRANCH  39  42
ATOM     42  N   GLY d   1     -13.962  20.867 -21.813  0.00  0.00    -0.071 N 
ATOM     43  H1  GLY d   1     -14.904  20.749 -22.153  0.00  0.00     0.274 HD
ATOM     44  H2  GLY d   1     -13.407  20.068 -22.077  0.00  0.00     0.274 HD
ATOM     45  H3  GLY d   1     -13.563  21.701 -22.214  0.00  0.00     0.274 HD
ENDBRANCH  39  42
ENDBRANCH  27  39
ENDBRANCH  22  25
ENDBRANCH  19  21
BRANCH  19  46
ATOM     46  CB  ARG d   1     -10.240  17.220 -18.326  0.00  0.00    -0.036 C 
ATOM     47  H15 ARG d   1      -9.697  16.302 -18.597  0.00  0.00     0.036 H 
ATOM     48  H16 ARG d   1     -11.132  17.320 -18.962  0.00  0.00     0.036 H 
BRANCH  46  49
ATOM     49  CG  ARG d   1     -10.699  17.097 -16.865  0.00  0.00    -0.048 C 
ATOM     50  H17 ARG d   1      -9.915  17.517 -16.218  0.00  0.00     0.035 H 
ATOM     51  H18 ARG d   1     -10.835  16.031 -16.632  0.00  0.00     0.035 H 
BRANCH  49  52
ATOM     52  CD  ARG d   1     -12.015  17.830 -16.570  0.00  0.00     0.009 C 
ATOM     53  H19 ARG d   1     -12.831  17.096 -16.503  0.00  0.00     0.064 H 
ATOM     54  H20 ARG d   1     -12.226  18.538 -17.385  0.00  0.00     0.064 H 
BRANCH  52  55
ATOM     55  NE  ARG d   1     -11.920  18.568 -15.298  0.00  0.00    -0.227 N 
ATOM     56  CZ  ARG d   1     -12.743  18.502 -14.237  0.00  0.00     0.665 C 
ATOM     57  NH1 ARG d   1     -13.807  17.687 -14.230  0.00  0.00    -0.235 N 
ATOM     58  NH2 ARG d   1     -12.501  19.272 -13.170  0.00  0.00    -0.235 N 
ATOM     59  H22 ARG d   1     -14.424  17.653 -13.406  0.00  0.00     0.174 HD
ATOM     60  H23 ARG d   1     -14.008  17.095 -15.049  0.00  0.00     0.174 HD
ATOM     61  H24 ARG d   1     -11.686  19.902 -13.164  0.00  0.00     0.174 HD
ATOM     62  H25 ARG d   1     -13.129  19.235 -12.355  0.00  0.00     0.174 HD
ATOM     63  H21 ARG d   1     -11.123  19.215 -15.211  0.00  0.00     0.177 HD
ENDBRANCH  52  55
ENDBRANCH  49  52
ENDBRANCH  46  49
ENDBRANCH  19  46
ENDBRANCH  16  19
ENDBRANCH  13  15
BRANCH  13  64
ATOM     64  CB  LEU d   1      -5.442  19.867 -21.058  0.00  0.00    -0.035 C 
ATOM     65  H28 LEU d   1      -4.895  19.623 -20.136  0.00  0.00     0.037 H 
ATOM     66  H29 LEU d   1      -5.929  20.847 -20.947  0.00  0.00     0.037 H 
BRANCH  64  67
ATOM     67  CG  LEU d   1      -4.404  19.993 -22.190  0.00  0.00    -0.059 C 
ATOM     68  H30 LEU d   1      -3.792  19.079 -22.194  0.00  0.00     0.038 H 
BRANCH  67  69
ATOM     69  CD1 LEU d   1      -5.027  20.161 -23.576  0.00  0.00    -0.073 C 
ATOM     70  H31 LEU d   1      -4.229  20.244 -24.329  0.00  0.00     0.028 H 
ATOM     71  H32 LEU d   1      -5.643  21.072 -23.593  0.00  0.00     0.028 H 
ATOM     72  H33 LEU d   1      -5.656  19.288 -23.803  0.00  0.00     0.028 H 
ENDBRANCH  67  69
BRANCH  67  73
ATOM     73  CD2 LEU d   1      -3.496  21.205 -21.929  0.00  0.00    -0.073 C 
ATOM     74  H34 LEU d   1      -3.034  21.110 -20.936  0.00  0.00     0.028 H 
ATOM     75  H35 LEU d   1      -4.095  22.127 -21.968  0.00  0.00     0.028 H 
ATOM     76  H36 LEU d   1      -2.710  21.246 -22.697  0.00  0.00     0.028 H 
ENDBRANCH  67  73
ENDBRANCH  64  67
ENDBRANCH  13  64
ENDBRANCH  10  13
ENDBRANCH   7   9
BRANCH   7  77
ATOM     77  CB  SER d   1      -5.869  14.350 -19.453  0.00  0.00     0.044 C 
ATOM     78  H39 SER d   1      -5.270  14.931 -18.736  0.00  0.00     0.077 H 
ATOM     79  H40 SER d   1      -5.446  13.339 -19.551  0.00  0.00     0.077 H 
BRANCH  77  80
ATOM     80  OG  SER d   1      -7.197  14.256 -18.983  0.00  0.00    -0.398 OA
ATOM     81  H41 SER d   1      -7.715  13.753 -19.600  0.00  0.00     0.209 HD
ENDBRANCH  77  80
ENDBRANCH   7  77
ENDBRANCH   4   7
ENDBRANCH   1   3
BRANCH   1  82
ATOM     82  C   ARG d   1      -6.246  13.501 -24.983  0.00  0.00     0.241 C 
ATOM     83  O   ARG d   1      -6.156  12.274 -24.980  0.00  0.00    -0.271 OA
ATOM     84  N   LEU d   1      -5.359  14.298 -25.591  0.00  0.00    -0.346 N 
ATOM     85  H55 LEU d   1      -5.513  15.285 -25.554  0.00  0.00     0.163 HD
BRANCH  84  86
ATOM     86  CA  LEU d   1      -4.186  13.818 -26.301  0.00  0.00     0.089 C 
ATOM     87  H56 LEU d   1      -4.548  13.176 -27.118  0.00  0.00     0.087 H 
BRANCH  86  88
ATOM     88  C   LEU d   1      -3.326  12.937 -25.412  0.00  0.00     0.241 C 
ATOM     89  O   LEU d   1      -2.776  11.969 -25.909  0.00  0.00    -0.271 OA
ATOM     90  N   LEU d   1      -3.206  13.245 -24.118  0.00  0.00    -0.346 N 
ATOM     91  H66 LEU d   1      -3.726  14.020 -23.760  0.00  0.00     0.163 HD
BRANCH  90  92
ATOM     92  CA  LEU d   1      -2.350  12.500 -23.206  0.00  0.00     0.089 C 
ATOM     93  H67 LEU d   1      -1.358  12.485 -23.681  0.00  0.00     0.087 H 
BRANCH  92  94
ATOM     94  C   LEU d   1      -2.753  11.031 -23.064  0.00  0.00     0.241 C 
ATOM     95  O   LEU d   1      -1.952  10.231 -22.588  0.00  0.00    -0.271 OA
ATOM     96  N   SER d   1      -3.954  10.646 -23.517  0.00  0.00    -0.344 N 
ATOM     97  H77 SER d   1      -4.585  11.336 -23.872  0.00  0.00     0.163 HD
BRANCH  96  98
ATOM     98  CA  SER d   1      -4.363   9.248 -23.506  0.00  0.00     0.109 C 
ATOM     99  H78 SER d   1      -4.273   8.858 -22.481  0.00  0.00     0.090 H 
BRANCH  98 100
ATOM    100  C   SER d   1      -3.445   8.423 -24.430  0.00  0.00     0.243 C 
ATOM    101  O   SER d   1      -3.434   7.197 -24.346  0.00  0.00    -0.271 OA
ATOM    102  N   TYR d   1      -2.683   9.095 -25.307  0.00  0.00    -0.346 N 
ATOM    103  H82 TYR d   1      -2.767  10.091 -25.306  0.00  0.00     0.163 HD
BRANCH 102 104
ATOM    104  CA  TYR d   1      -1.747   8.518 -26.259  0.00  0.00     0.093 C 
ATOM    105  H83 TYR d   1      -2.245   7.671 -26.753  0.00  0.00     0.088 H 
BRANCH 104 106
ATOM    106  C   TYR d   1      -0.448   7.990 -25.630  0.00  0.00     0.241 C 
ATOM    107  O   TYR d   1       0.382   7.445 -26.355  0.00  0.00    -0.271 OA
ATOM    108  N   ALA d   1      -0.238   8.178 -24.318  0.00  0.00    -0.345 N 
ATOM    109  H91 ALA d   1      -0.966   8.597 -23.775  0.00  0.00     0.163 HD
BRANCH 108 110
ATOM    110  CA  ALA d   1       0.995   7.803 -23.647  0.00  0.00     0.093 C 
ATOM    111  H92 ALA d   1       1.364   6.851 -24.057  0.00  0.00     0.089 H 
BRANCH 110 112
ATOM    112  C   ALA d   1       0.747   7.635 -22.148  0.00  0.00     0.196 C 
ATOM    113  O   ALA d   1       1.087   6.544 -21.641  0.00  0.00    -0.646 OA
ATOM    114  OXT ALA d   1       0.444   8.664 -21.505  0.00  0.00    -0.646 OA
ENDBRANCH 110 112
BRANCH 110 115
ATOM    115  CB  ALA d   1       2.029   8.910 -23.913  0.00  0.00    -0.048 C 
ATOM    116  H93 ALA d   1       2.976   8.654 -23.416  0.00  0.00     0.030 H 
ATOM    117  H94 ALA d   1       1.654   9.865 -23.517  0.00  0.00     0.030 H 
ATOM    118  H95 ALA d   1       2.196   9.003 -24.996  0.00  0.00     0.030 H 
ENDBRANCH 110 115
ENDBRANCH 108 110
ENDBRANCH 104 106
BRANCH 104 119
ATOM    119  CB  TYR d   1      -1.423   9.594 -27.320  0.00  0.00    -0.014 C 
ATOM    120  H84 TYR d   1      -2.383  10.009 -27.660  0.00  0.00     0.043 H 
ATOM    121  H85 TYR d   1      -0.929   9.080 -28.158  0.00  0.00     0.043 H 
BRANCH 119 122
ATOM    122  CG  TYR d   1      -0.532  10.783 -26.936  0.00  0.00    -0.056 A 
ATOM    123  CD1 TYR d   1      -0.175  11.077 -25.601  0.00  0.00    -0.074 A 
ATOM    124  CE1 TYR d   1       0.646  12.168 -25.286  0.00  0.00    -0.051 A 
ATOM    125  H86 TYR d   1      -0.545  10.444 -24.802  0.00  0.00     0.084 H 
ATOM    126  CZ  TYR d   1       1.121  12.996 -26.310  0.00  0.00     0.065 A 
ATOM    127  H88 TYR d   1       0.912  12.370 -24.255  0.00  0.00     0.087 H 
ATOM    128  CE2 TYR d   1       0.757  12.729 -27.639  0.00  0.00    -0.051 A 
ATOM    129  CD2 TYR d   1      -0.066  11.635 -27.953  0.00  0.00    -0.074 A 
ATOM    130  H89 TYR d   1       1.115  13.375 -28.433  0.00  0.00     0.087 H 
ATOM    131  H87 TYR d   1      -0.343  11.447 -28.984  0.00  0.00     0.084 H 
BRANCH 126 132
ATOM    132  OH  TYR d   1       1.919  14.062 -26.014  0.00  0.00    -0.361 OA
ATOM    133  H90 TYR d   1       2.066  14.096 -25.076  0.00  0.00     0.217 HD
ENDBRANCH 126 132
ENDBRANCH 119 122
ENDBRANCH 104 119
ENDBRANCH 102 104
ENDBRANCH  98 100
BRANCH  98 134
ATOM    134  CB  SER d   1      -5.826   9.138 -23.948  0.00  0.00     0.044 C 
ATOM    135  H79 SER d   1      -5.908   9.424 -25.007  0.00  0.00     0.077 H 
ATOM    136  H80 SER d   1      -6.442   9.814 -23.337  0.00  0.00     0.077 H 
BRANCH 134 137
ATOM    137  OG  SER d   1      -6.285   7.812 -23.785  0.00  0.00    -0.398 OA
ATOM    138  H81 SER d   1      -5.755   7.227 -24.314  0.00  0.00     0.209 HD
ENDBRANCH 134 137
ENDBRANCH  98 134
ENDBRANCH  96  98
ENDBRANCH  92  94
BRANCH  92 139
ATOM    139  CB  LEU d   1      -2.149  13.212 -21.865  0.00  0.00    -0.035 C 
ATOM    140  H68 LEU d   1      -1.590  12.524 -21.213  0.00  0.00     0.037 H 
ATOM    141  H69 LEU d   1      -3.148  13.390 -21.439  0.00  0.00     0.037 H 
BRANCH 139 142
ATOM    142  CG  LEU d   1      -1.397  14.570 -21.849  0.00  0.00    -0.059 C 
ATOM    143  H70 LEU d   1      -1.126  14.716 -20.793  0.00  0.00     0.038 H 
BRANCH 142 144
ATOM    144  CD1 LEU d   1      -0.046  14.604 -22.589  0.00  0.00    -0.073 C 
ATOM    145  H71 LEU d   1       0.390  15.611 -22.510  0.00  0.00     0.028 H 
ATOM    146  H72 LEU d   1      -0.202  14.354 -23.649  0.00  0.00     0.028 H 
ATOM    147  H73 LEU d   1       0.638  13.871 -22.137  0.00  0.00     0.028 H 
ENDBRANCH 142 144
BRANCH 142 148
ATOM    148  CD2 LEU d   1      -2.311  15.755 -22.182  0.00  0.00    -0.073 C 
ATOM    149  H74 LEU d   1      -3.252  15.662 -21.619  0.00  0.00     0.028 H 
ATOM    150  H75 LEU d   1      -2.528  15.759 -23.260  0.00  0.00     0.028 H 
ATOM    151  H76 LEU d   1      -1.809  16.694 -21.905  0.00  0.00     0.028 H 
ENDBRANCH 142 148
ENDBRANCH 139 142
ENDBRANCH  92 139
ENDBRANCH  90  92
ENDBRANCH  86  88
BRANCH  86 152
ATOM    152  CB  LEU d   1      -3.412  14.975 -26.968  0.00  0.00    -0.035 C 
ATOM    153  H57 LEU d   1      -4.119  15.459 -27.658  0.00  0.00     0.037 H 
ATOM    154  H58 LEU d   1      -2.599  14.509 -27.543  0.00  0.00     0.037 H 
BRANCH 152 155
ATOM    155  CG  LEU d   1      -2.761  16.115 -26.146  0.00  0.00    -0.059 C 
ATOM    156  H59 LEU d   1      -2.422  16.839 -26.901  0.00  0.00     0.038 H 
BRANCH 155 157
ATOM    157  CD1 LEU d   1      -3.665  16.897 -25.204  0.00  0.00    -0.073 C 
ATOM    158  H60 LEU d   1      -3.076  17.670 -24.688  0.00  0.00     0.028 H 
ATOM    159  H61 LEU d   1      -4.101  16.212 -24.462  0.00  0.00     0.028 H 
ATOM    160  H62 LEU d   1      -4.471  17.374 -25.781  0.00  0.00     0.028 H 
ENDBRANCH 155 157
BRANCH 155 161
ATOM    161  CD2 LEU d   1      -1.514  15.697 -25.363  0.00  0.00    -0.073 C 
ATOM    162  H63 LEU d   1      -0.841  15.128 -26.022  0.00  0.00     0.028 H 
ATOM    163  H64 LEU d   1      -1.810  15.068 -24.510  0.00  0.00     0.028 H 
ATOM    164  H65 LEU d   1      -0.995  16.594 -24.994  0.00  0.00     0.028 H 
ENDBRANCH 155 161
ENDBRANCH 152 155
ENDBRANCH  86 152
ENDBRANCH  84  86
ENDBRANCH   1  82
BRANCH   1 165
ATOM    165  CB  ARG d   1      -8.106  15.276 -25.049  0.00  0.00    -0.036 C 
ATOM    166  H44 ARG d   1      -7.365  15.976 -25.463  0.00  0.00     0.036 H 
ATOM    167  H45 ARG d   1      -8.795  15.821 -24.387  0.00  0.00     0.036 H 
BRANCH 165 168
ATOM    168  CG  ARG d   1      -8.907  14.663 -26.202  0.00  0.00    -0.048 C 
ATOM    169  H46 ARG d   1      -9.642  13.951 -25.797  0.00  0.00     0.035 H 
ATOM    170  H47 ARG d   1      -8.222  14.136 -26.882  0.00  0.00     0.035 H 
BRANCH 168 171
ATOM    171  CD  ARG d   1      -9.641  15.767 -26.975  0.00  0.00     0.009 C 
ATOM    172  H48 ARG d   1      -8.897  16.413 -27.465  0.00  0.00     0.064 H 
ATOM    173  H49 ARG d   1     -10.234  16.363 -26.266  0.00  0.00     0.064 H 
BRANCH 171 174
ATOM    174  NE  ARG d   1     -10.540  15.214 -28.000  0.00  0.00    -0.227 N 
ATOM    175  CZ  ARG d   1     -11.773  14.726 -27.774  0.00  0.00     0.665 C 
ATOM    176  NH1 ARG d   1     -12.266  14.665 -26.530  0.00  0.00    -0.235 N 
ATOM    177  NH2 ARG d   1     -12.516  14.295 -28.802  0.00  0.00    -0.235 N 
ATOM    178  H51 ARG d   1     -13.211  14.289 -26.369  0.00  0.00     0.174 HD
ATOM    179  H52 ARG d   1     -11.700  14.994 -25.735  0.00  0.00     0.174 HD
ATOM    180  H53 ARG d   1     -12.143  14.339 -29.761  0.00  0.00     0.174 HD
ATOM    181  H54 ARG d   1     -13.460  13.920 -28.633  0.00  0.00     0.174 HD
ATOM    182  H50 ARG d   1     -10.197  15.199 -28.971  0.00  0.00     0.177 HD
ENDBRANCH 171 174
ENDBRANCH 168 171
ENDBRANCH 165 168
ENDBRANCH   1 165
TORSDOF 49
