REMARK WARNING: 32 MAX_TORS EXCEEDED!!!
REMARK  42 active torsions:
REMARK  status: ('A' for Active; 'I' for Inactive)
REMARK    1  A    between atoms: CA_2  and  N_1 
REMARK    2  A    between atoms: CA_2  and  CB_5 
REMARK    3  A    between atoms: C_3  and  CA_2 
REMARK       I    between atoms: N_9  and  C_3 
REMARK    4  A    between atoms: CB_5  and  CG_6 
REMARK    5  A    between atoms: CA_10  and  N_9 
REMARK    6  A    between atoms: CA_10  and  CB_13 
REMARK    7  A    between atoms: C_11  and  CA_10 
REMARK       I    between atoms: N_17  and  C_11 
REMARK    8  A    between atoms: CB_13  and  CG_14 
REMARK    9  A    between atoms: CA_18  and  N_17 
REMARK   10  A    between atoms: CA_18  and  CB_21 
REMARK   11  A    between atoms: C_19  and  CA_18 
REMARK       I    between atoms: N_28  and  C_19 
REMARK   12  A    between atoms: CB_21  and  CG_22 
REMARK   13  A    between atoms: CA_29  and  N_28 
REMARK   14  A    between atoms: C_30  and  CA_29 
REMARK       I    between atoms: N_32  and  C_30 
REMARK   15  A    between atoms: CA_33  and  N_32 
REMARK   16  A    between atoms: C_34  and  CA_33 
REMARK       I    between atoms: N_36  and  C_34 
REMARK   17  A    between atoms: CA_37  and  N_36 
REMARK   18  A    between atoms: CA_37  and  CB_40 
REMARK   19  A    between atoms: C_38  and  CA_37 
REMARK       I    between atoms: N_47  and  C_38 
REMARK   20  A    between atoms: CB_40  and  CG_41 
REMARK   21  A    between atoms: CA_48  and  N_47 
REMARK   22  A    between atoms: CA_48  and  CB_51 
REMARK   23  A    between atoms: C_49  and  CA_48 
REMARK       I    between atoms: N_56  and  C_49 
REMARK   24  A    between atoms: CB_51  and  CG_52 
REMARK   25  A    between atoms: CG_52  and  CD_53 
REMARK   26  A    between atoms: CA_57  and  N_56 
REMARK   27  A    between atoms: CA_57  and  CB_60 
REMARK   28  A    between atoms: C_58  and  CA_57 
REMARK       I    between atoms: N_61  and  C_58 
REMARK   29  A    between atoms: CA_62  and  N_61 
REMARK   30  A    between atoms: CA_62  and  CB_65 
REMARK   31  A    between atoms: C_63  and  CA_62 
REMARK       I    between atoms: N_66  and  C_63 
REMARK   32  A    between atoms: CA_67  and  N_66 
REMARK   33  A    between atoms: CA_67  and  CB_70 
REMARK   34  A    between atoms: C_68  and  CA_67 
REMARK       I    between atoms: C_68  and  N_75 
REMARK   35  A    between atoms: CB_70  and  CG_71 
REMARK   36  A    between atoms: CG_71  and  CD_72 
REMARK   37  A    between atoms: N_75  and  CA_76 
REMARK   38  A    between atoms: CA_76  and  CB_79 
REMARK   39  A    between atoms: CA_76  and  C_77 
REMARK   40  A    between atoms: C_77  and  O1_82 
REMARK   41  A    between atoms: CB_79  and  CG2_81 
REMARK   42  A    between atoms: CB_79  and  OG1_80 
ROOT
ATOM      1  CA  PHE d   1      -9.066  29.698  41.752  0.00  0.00     0.093 C 
ATOM      2  H27 PHE d   1      -9.603  30.644  41.918  0.00  0.00     0.088 H 
ENDROOT
BRANCH   1   3
ATOM      3  N   PHE d   1      -9.599  28.699  42.657  0.00  0.00    -0.346 N 
ATOM      4  C   GLY d   1     -10.902  28.597  42.887  0.00  0.00     0.236 C 
ATOM      5  O   GLY d   1     -11.743  29.390  42.453  0.00  0.00    -0.272 OA
ATOM      6  H26 PHE d   1      -8.971  28.073  43.118  0.00  0.00     0.163 HD
BRANCH   4   7
ATOM      7  CA  GLY d   1     -11.346  27.449  43.758  0.00  0.00     0.069 C 
ATOM      8  H24 GLY d   1     -11.300  26.507  43.191  0.00  0.00     0.078 H 
ATOM      9  H25 GLY d   1     -10.698  27.376  44.644  0.00  0.00     0.078 H 
BRANCH   7  10
ATOM     10  N   GLY d   1     -12.712  27.717  44.164  0.00  0.00    -0.351 N 
ATOM     11  C   GLY d   1     -12.997  28.511  45.202  0.00  0.00     0.235 C 
ATOM     12  O   GLY d   1     -12.127  29.006  45.936  0.00  0.00    -0.272 OA
ATOM     13  H23 GLY d   1     -13.462  27.296  43.654  0.00  0.00     0.163 HD
BRANCH  11  14
ATOM     14  CA  GLY d   1     -14.479  28.744  45.460  0.00  0.00     0.069 C 
ATOM     15  H21 GLY d   1     -14.955  29.081  44.528  0.00  0.00     0.078 H 
ATOM     16  H22 GLY d   1     -14.938  27.799  45.785  0.00  0.00     0.078 H 
BRANCH  14  17
ATOM     17  N   GLY d   1     -14.687  29.741  46.480  0.00  0.00    -0.351 N 
ATOM     18  C   PHE d   1     -14.443  29.529  47.781  0.00  0.00     0.241 C 
ATOM     19  O   PHE d   1     -14.206  28.409  48.291  0.00  0.00    -0.271 OA
ATOM     20  H20 GLY d   1     -15.031  30.638  46.203  0.00  0.00     0.163 HD
BRANCH  18  21
ATOM     21  CA  PHE d   1     -14.476  30.773  48.628  0.00  0.00     0.093 C 
ATOM     22  H12 PHE d   1     -15.179  31.484  48.169  0.00  0.00     0.088 H 
BRANCH  21  23
ATOM     23  N   PHE d   1     -14.923  30.508  49.976  0.00  0.00    -0.346 N 
ATOM     24  C   ASP d   1     -16.214  30.496  50.314  0.00  0.00     0.241 C 
ATOM     25  O   ASP d   1     -17.161  30.531  49.511  0.00  0.00    -0.271 OA
ATOM     26  H11 PHE d   1     -14.239  30.327  50.683  0.00  0.00     0.163 HD
BRANCH  24  27
ATOM     27  CA  ASP d   1     -16.455  30.497  51.804  0.00  0.00     0.098 C 
ATOM     28  H8  ASP d   1     -15.775  31.246  52.237  0.00  0.00     0.088 H 
BRANCH  27  29
ATOM     29  N   ASP d   1     -17.793  30.938  52.104  0.00  0.00    -0.345 N 
ATOM     30  C   ASP d   1     -17.981  32.246  52.196  0.00  0.00     0.249 C 
ATOM     31  O   ASP d   1     -17.097  33.065  51.909  0.00  0.00    -0.271 OA
ATOM     32  H7  ASP d   1     -18.542  30.289  52.236  0.00  0.00     0.163 HD
BRANCH  30  33
ATOM     33  CA  ASP d   1     -19.324  32.710  52.711  0.00  0.00     0.185 C 
ATOM     34  H4  ASP d   1     -20.002  31.856  52.859  0.00  0.00     0.100 H 
BRANCH  33  35
ATOM     35  N   ASP d   1     -19.005  33.359  54.010  0.00  0.00    -0.066 N 
ATOM     36  H1  ASP d   1     -19.854  33.703  54.431  0.00  0.00     0.275 HD
ATOM     37  H2  ASP d   1     -18.371  34.127  53.855  0.00  0.00     0.275 HD
ATOM     38  H3  ASP d   1     -18.574  32.687  54.625  0.00  0.00     0.275 HD
ENDBRANCH  33  35
BRANCH  33  39
ATOM     39  CB  ASP d   1     -19.968  33.709  51.734  0.00  0.00     0.050 C 
ATOM     40  H5  ASP d   1     -19.168  34.217  51.176  0.00  0.00     0.052 H 
ATOM     41  H6  ASP d   1     -20.537  34.449  52.316  0.00  0.00     0.052 H 
BRANCH  39  42
ATOM     42  CG  ASP d   1     -20.927  33.041  50.718  0.00  0.00     0.175 C 
ATOM     43  OD1 ASP d   1     -20.630  31.914  50.163  0.00  0.00    -0.648 OA
ATOM     44  OD2 ASP d   1     -22.022  33.616  50.412  0.00  0.00    -0.648 OA
ENDBRANCH  39  42
ENDBRANCH  33  39
ENDBRANCH  30  33
ENDBRANCH  27  29
BRANCH  27  45
ATOM     45  CB  ASP d   1     -16.084  29.159  52.448  0.00  0.00     0.043 C 
ATOM     46  H9  ASP d   1     -15.791  28.453  51.657  0.00  0.00     0.052 H 
ATOM     47  H10 ASP d   1     -16.961  28.767  52.983  0.00  0.00     0.052 H 
BRANCH  45  48
ATOM     48  CG  ASP d   1     -14.930  29.302  53.432  0.00  0.00     0.175 C 
ATOM     49  OD1 ASP d   1     -13.753  29.379  52.986  0.00  0.00    -0.648 OA
ATOM     50  OD2 ASP d   1     -15.118  29.381  54.663  0.00  0.00    -0.648 OA
ENDBRANCH  45  48
ENDBRANCH  27  45
ENDBRANCH  24  27
ENDBRANCH  21  23
BRANCH  21  51
ATOM     51  CB  PHE d   1     -13.083  31.405  48.649  0.00  0.00    -0.014 C 
ATOM     52  H13 PHE d   1     -12.572  31.156  47.707  0.00  0.00     0.043 H 
ATOM     53  H14 PHE d   1     -12.521  30.982  49.494  0.00  0.00     0.043 H 
BRANCH  51  54
ATOM     54  CG  PHE d   1     -13.110  32.889  48.794  0.00  0.00    -0.056 A 
ATOM     55  CD1 PHE d   1     -13.215  33.473  50.055  0.00  0.00    -0.077 A 
ATOM     56  CE1 PHE d   1     -13.247  34.898  50.182  0.00  0.00    -0.082 A 
ATOM     57  H15 PHE d   1     -13.272  32.848  50.939  0.00  0.00     0.084 H 
ATOM     58  CZ  PHE d   1     -13.224  35.701  49.026  0.00  0.00    -0.083 A 
ATOM     59  H17 PHE d   1     -13.289  35.357  51.163  0.00  0.00     0.083 H 
ATOM     60  CE2 PHE d   1     -13.160  35.109  47.760  0.00  0.00    -0.082 A 
ATOM     61  H19 PHE d   1     -13.256  36.781  49.117  0.00  0.00     0.083 H 
ATOM     62  CD2 PHE d   1     -13.099  33.712  47.652  0.00  0.00    -0.077 A 
ATOM     63  H18 PHE d   1     -13.158  35.726  46.869  0.00  0.00     0.083 H 
ATOM     64  H16 PHE d   1     -13.042  33.257  46.670  0.00  0.00     0.084 H 
ENDBRANCH  51  54
ENDBRANCH  21  51
ENDBRANCH  18  21
ENDBRANCH  14  17
ENDBRANCH  11  14
ENDBRANCH   7  10
ENDBRANCH   4   7
ENDBRANCH   1   3
BRANCH   1  65
ATOM     65  CB  PHE d   1      -7.564  29.941  41.986  0.00  0.00    -0.014 C 
ATOM     66  H28 PHE d   1      -7.172  30.551  41.159  0.00  0.00     0.043 H 
ATOM     67  H29 PHE d   1      -7.047  28.970  42.003  0.00  0.00     0.043 H 
BRANCH  65  68
ATOM     68  CG  PHE d   1      -7.300  30.640  43.257  0.00  0.00    -0.056 A 
ATOM     69  CD1 PHE d   1      -7.140  29.925  44.433  0.00  0.00    -0.077 A 
ATOM     70  CE1 PHE d   1      -6.936  30.599  45.639  0.00  0.00    -0.082 A 
ATOM     71  H30 PHE d   1      -7.173  28.842  44.417  0.00  0.00     0.084 H 
ATOM     72  CZ  PHE d   1      -6.948  31.989  45.651  0.00  0.00    -0.083 A 
ATOM     73  H32 PHE d   1      -6.770  30.044  46.556  0.00  0.00     0.083 H 
ATOM     74  CE2 PHE d   1      -7.149  32.689  44.470  0.00  0.00    -0.082 A 
ATOM     75  H34 PHE d   1      -6.801  32.525  46.581  0.00  0.00     0.083 H 
ATOM     76  CD2 PHE d   1      -7.341  32.025  43.305  0.00  0.00    -0.077 A 
ATOM     77  H33 PHE d   1      -7.152  33.773  44.480  0.00  0.00     0.083 H 
ATOM     78  H31 PHE d   1      -7.530  32.585  42.396  0.00  0.00     0.084 H 
ENDBRANCH  65  68
ENDBRANCH   1  65
BRANCH   1  79
ATOM     79  C   PHE d   1      -9.288  29.251  40.341  0.00  0.00     0.241 C 
ATOM     80  O   PHE d   1      -8.988  28.107  39.982  0.00  0.00    -0.271 OA
ATOM     81  N   GLU d   1      -9.825  30.187  39.569  0.00  0.00    -0.346 N 
ATOM     82  H35 GLU d   1     -10.138  31.031  40.005  0.00  0.00     0.163 HD
BRANCH  81  83
ATOM     83  CA  GLU d   1      -9.985  30.064  38.150  0.00  0.00     0.090 C 
ATOM     84  H36 GLU d   1      -9.951  29.001  37.868  0.00  0.00     0.087 H 
BRANCH  83  85
ATOM     85  CB  GLU d   1     -11.342  30.660  37.750  0.00  0.00    -0.029 C 
ATOM     86  H37 GLU d   1     -11.512  30.421  36.690  0.00  0.00     0.037 H 
ATOM     87  H38 GLU d   1     -11.276  31.751  37.874  0.00  0.00     0.037 H 
BRANCH  85  88
ATOM     88  CG  GLU d   1     -12.577  30.172  38.544  0.00  0.00     0.018 C 
ATOM     89  H39 GLU d   1     -13.451  30.753  38.216  0.00  0.00     0.049 H 
ATOM     90  H40 GLU d   1     -12.395  30.354  39.614  0.00  0.00     0.049 H 
BRANCH  88  91
ATOM     91  CD  GLU d   1     -12.891  28.673  38.353  0.00  0.00     0.172 C 
ATOM     92  OE2 GLU d   1     -13.555  28.088  39.232  0.00  0.00    -0.648 OA
ATOM     93  OE1 GLU d   1     -12.435  28.074  37.356  0.00  0.00    -0.648 OA
ENDBRANCH  88  91
ENDBRANCH  85  88
ENDBRANCH  83  85
BRANCH  83  94
ATOM     94  C   GLU d   1      -8.860  30.822  37.422  0.00  0.00     0.241 C 
ATOM     95  O   GLU d   1      -8.371  31.851  37.894  0.00  0.00    -0.271 OA
ATOM     96  N   ALA d   1      -8.432  30.299  36.282  0.00  0.00    -0.346 N 
ATOM     97  H41 ALA d   1      -8.689  29.361  36.051  0.00  0.00     0.163 HD
BRANCH  96  98
ATOM     98  CA  ALA d   1      -7.598  31.052  35.358  0.00  0.00     0.086 C 
ATOM     99  H42 ALA d   1      -7.605  32.113  35.649  0.00  0.00     0.086 H 
BRANCH  98 100
ATOM    100  CB  ALA d   1      -6.157  30.539  35.420  0.00  0.00    -0.049 C 
ATOM    101  H43 ALA d   1      -5.533  31.113  34.719  0.00  0.00     0.030 H 
ATOM    102  H44 ALA d   1      -6.135  29.474  35.144  0.00  0.00     0.030 H 
ATOM    103  H45 ALA d   1      -5.768  30.661  36.442  0.00  0.00     0.030 H 
ENDBRANCH  98 100
BRANCH  98 104
ATOM    104  C   ALA d   1      -8.186  30.922  33.933  0.00  0.00     0.240 C 
ATOM    105  O   ALA d   1      -9.290  30.399  33.739  0.00  0.00    -0.271 OA
ATOM    106  N   ALA d   1      -7.470  31.407  32.939  0.00  0.00    -0.346 N 
ATOM    107  H46 ALA d   1      -6.616  31.892  33.129  0.00  0.00     0.163 HD
BRANCH 106 108
ATOM    108  CA  ALA d   1      -7.914  31.241  31.582  0.00  0.00     0.086 C 
ATOM    109  H47 ALA d   1      -9.000  31.068  31.587  0.00  0.00     0.086 H 
BRANCH 108 110
ATOM    110  CB  ALA d   1      -7.627  32.515  30.778  0.00  0.00    -0.049 C 
ATOM    111  H48 ALA d   1      -7.970  32.379  29.742  0.00  0.00     0.030 H 
ATOM    112  H49 ALA d   1      -6.546  32.716  30.783  0.00  0.00     0.030 H 
ATOM    113  H50 ALA d   1      -8.160  33.363  31.232  0.00  0.00     0.030 H 
ENDBRANCH 108 110
BRANCH 108 114
ATOM    114  C   ALA d   1      -7.242  30.041  30.947  0.00  0.00     0.240 C 
ATOM    115  O   ALA d   1      -6.091  29.699  31.313  0.00  0.00    -0.271 OA
ATOM    116  N   GLU d   1      -7.968  29.404  29.999  0.00  0.00    -0.346 N 
ATOM    117  H51 GLU d   1      -8.932  29.648  29.898  0.00  0.00     0.163 HD
BRANCH 116 118
ATOM    118  CA  GLU d   1      -7.411  28.362  29.100  0.00  0.00     0.090 C 
ATOM    119  H52 GLU d   1      -7.193  27.464  29.697  0.00  0.00     0.087 H 
BRANCH 118 120
ATOM    120  CB  GLU d   1      -8.380  27.989  27.972  0.00  0.00    -0.029 C 
ATOM    121  H53 GLU d   1      -7.850  27.325  27.274  0.00  0.00     0.037 H 
ATOM    122  H54 GLU d   1      -8.668  28.914  27.451  0.00  0.00     0.037 H 
BRANCH 120 123
ATOM    123  CG  GLU d   1      -9.669  27.275  28.424  0.00  0.00     0.018 C 
ATOM    124  H55 GLU d   1      -9.649  27.174  29.519  0.00  0.00     0.049 H 
ATOM    125  H56 GLU d   1      -9.696  26.276  27.964  0.00  0.00     0.049 H 
BRANCH 123 126
ATOM    126  CD  GLU d   1     -10.949  28.035  28.024  0.00  0.00     0.172 C 
ATOM    127  OE2 GLU d   1     -11.866  27.412  27.412  0.00  0.00    -0.648 OA
ATOM    128  OE1 GLU d   1     -11.038  29.267  28.359  0.00  0.00    -0.648 OA
ENDBRANCH 123 126
ENDBRANCH 120 123
ENDBRANCH 118 120
BRANCH 118 129
ATOM    129  C   GLU d   1      -6.124  28.869  28.451  0.00  0.00     0.241 C 
ATOM    130  O   GLU d   1      -6.176  29.777  27.634  0.00  0.00    -0.271 OA
ATOM    131  N   THR d   1      -4.992  28.304  28.854  0.00  0.00    -0.343 N 
ATOM    132  H57 THR d   1      -5.026  27.698  29.649  0.00  0.00     0.163 HD
BRANCH 131 133
ATOM    133  CA  THR d   1      -3.698  28.515  28.204  0.00  0.00     0.117 C 
ATOM    134  H58 THR d   1      -3.695  29.498  27.711  0.00  0.00     0.093 H 
BRANCH 133 135
ATOM    135  CB  THR d   1      -2.534  28.455  29.268  0.00  0.00     0.061 C 
ATOM    136  H59 THR d   1      -2.501  27.450  29.715  0.00  0.00     0.086 H 
BRANCH 135 137
ATOM    137  CG2 THR d   1      -1.171  28.807  28.626  0.00  0.00    -0.050 C 
ATOM    138  H61 THR d   1      -0.382  28.757  29.390  0.00  0.00     0.031 H 
ATOM    139  H62 THR d   1      -1.214  29.824  28.209  0.00  0.00     0.031 H 
ATOM    140  H63 THR d   1      -0.949  28.090  27.822  0.00  0.00     0.031 H 
ENDBRANCH 135 137
BRANCH 135 141
ATOM    141  OG1 THR d   1      -2.728  29.458  30.288  0.00  0.00    -0.393 OA
ATOM    142  H60 THR d   1      -3.555  29.303  30.729  0.00  0.00     0.210 HD
ENDBRANCH 135 141
ENDBRANCH 133 135
BRANCH 133 143
ATOM    143  C   THR d   1      -3.462  27.421  27.169  0.00  0.00     0.166 C 
ATOM    144  O   THR d   1      -3.374  26.250  27.562  0.00  0.00    -0.648 OA
BRANCH 143 145
ATOM    145  O1  THR d   1      -3.353  27.717  25.877  0.00  0.00    -0.775 OA
ATOM    146  H64 THR d   1      -4.035  27.267  25.392  0.00  0.00     0.167 HD
ENDBRANCH 143 145
ENDBRANCH 133 143
ENDBRANCH 131 133
ENDBRANCH 118 129
ENDBRANCH 116 118
ENDBRANCH 108 114
ENDBRANCH 106 108
ENDBRANCH  98 104
ENDBRANCH  96  98
ENDBRANCH  83  94
ENDBRANCH  81  83
ENDBRANCH   1  79
TORSDOF 42
