REMARK  3 active torsions:
REMARK  status: ('A' for Active; 'I' for Inactive)
REMARK    1  A    between atoms: C3_3  and  C31_9 
REMARK    2  A    between atoms: C6_6  and  C7_7 
REMARK    3  A    between atoms: C61_12  and  C62_13 
ROOT
ATOM      1  S1  WY4 d   1       5.515  36.188   4.243  0.00  0.00    -0.127 SA
ATOM      2  C2  WY4 d   1       6.135  37.782   3.919  0.00  0.00    -0.014 C 
ATOM      3  C3  WY4 d   1       7.243  38.358   4.425  0.00  0.00     0.138 C 
ATOM      4  N4  WY4 d   1       8.202  37.690   5.199  0.00  0.00    -0.257 NA
ATOM      5  C5  WY4 d   1       8.476  36.418   5.561  0.00  0.00    -0.005 C 
ATOM      6  C6  WY4 d   1       7.915  35.251   5.162  0.00  0.00     0.046 C 
ATOM      7  C61 WY4 d   1       6.876  35.050   4.113  0.00  0.00     0.052 C 
ATOM      8  H1  WY4 d   1       5.557  38.387   3.223  0.00  0.00     0.098 H 
ATOM      9  H2  WY4 d   1       9.277  36.313   6.291  0.00  0.00     0.109 H 
ATOM     10  H3  WY4 d   1       7.117  35.358   5.911  0.00  0.00     0.061 H 
ATOM     11  H5  WY4 d   1       6.441  34.056   4.293  0.00  0.00     0.068 H 
ENDROOT
BRANCH   7  12
ATOM     12  C62 WY4 d   1       7.550  34.974   2.720  0.00  0.00     0.067 A 
ATOM     13  N63 WY4 d   1       8.494  34.049   2.407  0.00  0.00    -0.235 NA
ATOM     14  C64 WY4 d   1       8.918  34.250   1.206  0.00  0.00     0.130 A 
ATOM     15  N65 WY4 d   1       8.242  35.346   0.675  0.00  0.00    -0.339 N 
ATOM     16  C67 WY4 d   1       9.983  33.496   0.423  0.00  0.00     0.074 C 
ATOM     17  C66 WY4 d   1       7.387  35.781   1.621  0.00  0.00     0.006 A 
ATOM     18  C70 WY4 d   1       8.537  35.919  -0.660  0.00  0.00     0.020 C 
ATOM     19  H6  WY4 d   1       6.695  36.617   1.531  0.00  0.00     0.114 H 
ATOM     20  C69 WY4 d   1       9.535  34.992  -1.393  0.00  0.00     0.035 C 
ATOM     21  H11 WY4 d   1       8.980  36.919  -0.543  0.00  0.00     0.068 H 
ATOM     22  H12 WY4 d   1       7.607  35.995  -1.243  0.00  0.00     0.068 H 
ATOM     23  O68 WY4 d   1      10.528  34.401  -0.561  0.00  0.00    -0.382 OA
ATOM     24  H9  WY4 d   1       8.963  34.182  -1.869  0.00  0.00     0.076 H 
ATOM     25  H10 WY4 d   1      10.046  35.584  -2.167  0.00  0.00     0.076 H 
ATOM     26  H7  WY4 d   1       9.534  32.625  -0.077  0.00  0.00     0.086 H 
ATOM     27  H8  WY4 d   1      10.779  33.158   1.103  0.00  0.00     0.086 H 
ENDBRANCH   7  12
BRANCH   6  28
ATOM     28  C7  WY4 d   1       8.491  34.116   5.848  0.00  0.00     0.098 C 
ATOM     29  O8  WY4 d   1       9.482  34.261   6.530  0.00  0.00    -0.306 OA
ATOM     30  H4  WY4 d   1       8.035  33.132   5.752  0.00  0.00     0.144 H 
ENDBRANCH   6  28
BRANCH   3  31
ATOM     31  C31 WY4 d   1       7.506  39.730   4.128  0.00  0.00     0.229 C 
ATOM     32  O32 WY4 d   1       8.609  40.164   4.415  0.00  0.00    -0.643 OA
ATOM     33  O33 WY4 d   1       6.548  40.438   3.533  0.00  0.00    -0.643 OA
ENDBRANCH   3  31
TORSDOF 3
