REMARK  3 active torsions:
REMARK  status: ('A' for Active; 'I' for Inactive)
REMARK    1  A    between atoms: C3_3  and  C31_9 
REMARK    2  A    between atoms: C6_6  and  C7_7 
REMARK    3  A    between atoms: C61_12  and  C62_13 
ROOT
ATOM      1  S1  WY4 d   1      21.147  21.684   6.623  0.00  0.00    -0.147 SA
ATOM      2  C2  WY4 d   1      20.103  22.435   5.383  0.00  0.00     0.024 C 
ATOM      3  C3  WY4 d   1      19.275  21.667   4.656  0.00  0.00     0.119 C 
ATOM      4  N4  WY4 d   1      19.219  20.271   4.864  0.00  0.00    -0.257 NA
ATOM      5  C5  WY4 d   1      18.879  19.495   5.951  0.00  0.00     0.013 C 
ATOM      6  C6  WY4 d   1      19.284  19.761   7.216  0.00  0.00     0.017 C 
ATOM      7  C61 WY4 d   1      19.867  21.031   7.723  0.00  0.00     0.064 C 
ATOM      8  H1  WY4 d   1      20.769  22.947   4.673  0.00  0.00     0.058 H 
ATOM      9  H2  WY4 d   1      19.478  23.178   5.900  0.00  0.00     0.058 H 
ATOM     10  H3  WY4 d   1      18.251  18.621   5.784  0.00  0.00     0.115 H 
ATOM     11  H5  WY4 d   1      20.366  20.771   8.668  0.00  0.00     0.074 H 
ENDROOT
BRANCH   7  12
ATOM     12  C62 WY4 d   1      18.859  22.128   8.066  0.00  0.00     0.070 A 
ATOM     13  N63 WY4 d   1      19.047  23.148   8.918  0.00  0.00    -0.235 NA
ATOM     14  C64 WY4 d   1      17.942  23.842   8.970  0.00  0.00     0.130 A 
ATOM     15  N65 WY4 d   1      17.015  23.296   8.119  0.00  0.00    -0.339 N 
ATOM     16  C67 WY4 d   1      17.624  25.045   9.801  0.00  0.00     0.074 C 
ATOM     17  C66 WY4 d   1      17.598  22.221   7.535  0.00  0.00     0.006 A 
ATOM     18  C70 WY4 d   1      15.633  23.800   7.939  0.00  0.00     0.020 C 
ATOM     19  H6  WY4 d   1      17.153  21.561   6.791  0.00  0.00     0.114 H 
ATOM     20  C69 WY4 d   1      15.613  25.259   8.479  0.00  0.00     0.035 C 
ATOM     21  H11 WY4 d   1      14.926  23.177   8.506  0.00  0.00     0.068 H 
ATOM     22  H12 WY4 d   1      15.361  23.787   6.873  0.00  0.00     0.068 H 
ATOM     23  O68 WY4 d   1      16.186  25.231   9.805  0.00  0.00    -0.382 OA
ATOM     24  H9  WY4 d   1      16.209  25.912   7.824  0.00  0.00     0.076 H 
ATOM     25  H10 WY4 d   1      14.579  25.631   8.523  0.00  0.00     0.076 H 
ATOM     26  H7  WY4 d   1      18.112  25.933   9.372  0.00  0.00     0.086 H 
ATOM     27  H8  WY4 d   1      17.982  24.891  10.830  0.00  0.00     0.086 H 
ENDBRANCH   7  12
BRANCH   6  28
ATOM     28  C7  WY4 d   1      19.227  18.684   8.152  0.00  0.00     0.117 C 
ATOM     29  O8  WY4 d   1      19.236  18.788   9.368  0.00  0.00    -0.302 OA
ATOM     30  H4  WY4 d   1      19.170  17.676   7.743  0.00  0.00     0.151 H 
ENDBRANCH   6  28
BRANCH   3  31
ATOM     31  C31 WY4 d   1      18.471  22.202   3.604  0.00  0.00     0.225 C 
ATOM     32  O32 WY4 d   1      17.839  21.454   2.854  0.00  0.00    -0.643 OA
ATOM     33  O33 WY4 d   1      18.449  23.521   3.443  0.00  0.00    -0.643 OA
ENDBRANCH   3  31
TORSDOF 3
