REMARK WARNING: 32 MAX_TORS EXCEEDED!!!
REMARK  65 active torsions:
REMARK  status: ('A' for Active; 'I' for Inactive)
REMARK    1  A    between atoms: CA_2  and  C_3 
REMARK       I    between atoms: C_3  and  N_8 
REMARK    2  A    between atoms: N_8  and  CA_9 
REMARK    3  A    between atoms: CA_9  and  C_10 
REMARK    4  A    between atoms: CA_9  and  CB_12 
REMARK       I    between atoms: C_10  and  N_14 
REMARK    5  A    between atoms: CB_12  and  OG_13 
REMARK    6  A    between atoms: N_14  and  CA_15 
REMARK    7  A    between atoms: CA_15  and  C_16 
REMARK    8  A    between atoms: CA_15  and  CB_18 
REMARK       I    between atoms: C_16  and  N_23 
REMARK    9  A    between atoms: CB_18  and  CG_19 
REMARK   10  A    between atoms: CG_19  and  CD_20 
REMARK   11  A    between atoms: CD_20  and  CE_21 
REMARK   12  A    between atoms: CE_21  and  NZ_22 
REMARK   13  A    between atoms: N_23  and  CA_24 
REMARK   14  A    between atoms: CA_24  and  C_25 
REMARK   15  A    between atoms: CA_24  and  CB_27 
REMARK       I    between atoms: C_25  and  N_32 
REMARK   16  A    between atoms: CB_27  and  CG_28 
REMARK   17  A    between atoms: CG_28  and  CD_29 
REMARK   18  A    between atoms: CD_29  and  CE_30 
REMARK   19  A    between atoms: CE_30  and  NZ_31 
REMARK   20  A    between atoms: N_32  and  CA_33 
REMARK   21  A    between atoms: CA_33  and  C_34 
REMARK   22  A    between atoms: CA_33  and  CB_36 
REMARK       I    between atoms: C_34  and  N_43 
REMARK   23  A    between atoms: CB_36  and  CG_37 
REMARK   24  A    between atoms: CG_37  and  CD_38 
REMARK   25  A    between atoms: CD_38  and  NE_39 
REMARK       I    between atoms: NE_39  and  CZ_40 
REMARK       I    between atoms: CZ_40  and  NH1_41 
REMARK       I    between atoms: CZ_40  and  NH2_42 
REMARK   26  A    between atoms: N_43  and  CA_44 
REMARK   27  A    between atoms: CA_44  and  C_45 
REMARK   28  A    between atoms: CA_44  and  CB_47 
REMARK       I    between atoms: C_45  and  N_52 
REMARK   29  A    between atoms: CB_47  and  CG_48 
REMARK   30  A    between atoms: CG_48  and  CD_49 
REMARK   31  A    between atoms: CD_49  and  CE_50 
REMARK   32  A    between atoms: CE_50  and  NZ_51 
REMARK   33  A    between atoms: N_52  and  CA_53 
REMARK   34  A    between atoms: CA_53  and  C_54 
REMARK   35  A    between atoms: CA_53  and  CB_56 
REMARK       I    between atoms: C_54  and  N_63 
REMARK   36  A    between atoms: CB_56  and  CG_57 
REMARK   37  A    between atoms: CG_57  and  CD_58 
REMARK   38  A    between atoms: CD_58  and  NE_59 
REMARK       I    between atoms: NE_59  and  CZ_60 
REMARK       I    between atoms: CZ_60  and  NH1_61 
REMARK       I    between atoms: CZ_60  and  NH2_62 
REMARK   39  A    between atoms: N_63  and  CA_64 
REMARK   40  A    between atoms: CA_64  and  C_65 
REMARK   41  A    between atoms: CA_64  and  CB_67 
REMARK       I    between atoms: C_65  and  N_69 
REMARK   42  A    between atoms: CB_67  and  OG_68 
REMARK   43  A    between atoms: N_69  and  CA_70 
REMARK   44  A    between atoms: CA_70  and  C_71 
REMARK   45  A    between atoms: CA_70  and  CB_73 
REMARK       I    between atoms: C_71  and  N_80 
REMARK   46  A    between atoms: CB_73  and  CG_74 
REMARK   47  A    between atoms: CG_74  and  CD_75 
REMARK   48  A    between atoms: CD_75  and  NE_76 
REMARK       I    between atoms: NE_76  and  CZ_77 
REMARK       I    between atoms: CZ_77  and  NH1_78 
REMARK   49  A    between atoms: N_80  and  CA_81 
REMARK   50  A    between atoms: CA_81  and  C_82 
REMARK   51  A    between atoms: CA_81  and  CB_84 
REMARK       I    between atoms: C_82  and  N_94 
REMARK   52  A    between atoms: CB_84  and  CG_85 
REMARK   53  A    between atoms: N_94  and  CA_95 
REMARK   54  A    between atoms: CA_95  and  C_96 
REMARK   55  A    between atoms: CA_95  and  CB_98 
REMARK       I    between atoms: C_96  and  N_102 
REMARK   56  A    between atoms: CB_98  and  CG_99 
REMARK       I    between atoms: CG_99  and  ND2_101 
REMARK   57  A    between atoms: N_102  and  CA_103 
REMARK   58  A    between atoms: CA_103  and  C_104 
REMARK   59  A    between atoms: CA_103  and  CB_106 
REMARK       I    between atoms: C_104  and  N_111 
REMARK   60  A    between atoms: CB_106  and  CG_107 
REMARK   61  A    between atoms: CG_107  and  CD_108 
REMARK       I    between atoms: CD_108  and  NE2_110 
REMARK   62  A    between atoms: N_111  and  CA_112 
REMARK   63  A    between atoms: CA_112  and  C_113 
REMARK   64  A    between atoms: CA_112  and  CB_115 
REMARK   65  A    between atoms: CB_115  and  CG_116 
ROOT
ATOM      1  CA  ARG d   1      14.784  -6.677  10.021  0.00  0.00     0.089 C 
ATOM      2  H68 ARG d   1      15.573  -7.399   9.765  0.00  0.00     0.087 H 
ENDROOT
BRANCH   1   3
ATOM      3  N   ARG d   1      15.280  -5.809  11.081  0.00  0.00    -0.346 N 
ATOM      4  C   LYS d   1      16.429  -6.055  11.703  0.00  0.00     0.241 C 
ATOM      5  O   LYS d   1      17.148  -7.017  11.431  0.00  0.00    -0.271 OA
ATOM      6  H67 ARG d   1      14.743  -5.008  11.347  0.00  0.00     0.163 HD
BRANCH   4   7
ATOM      7  CA  LYS d   1      16.826  -5.067  12.794  0.00  0.00     0.089 C 
ATOM      8  H55 LYS d   1      17.840  -5.315  13.140  0.00  0.00     0.087 H 
BRANCH   7   9
ATOM      9  N   LYS d   1      16.833  -3.703  12.281  0.00  0.00    -0.346 N 
ATOM     10  C   ARG d   1      17.440  -2.716  12.933  0.00  0.00     0.241 C 
ATOM     11  O   ARG d   1      18.029  -2.880  14.001  0.00  0.00    -0.271 OA
ATOM     12  H54 LYS d   1      16.370  -3.505  11.417  0.00  0.00     0.163 HD
BRANCH  10  13
ATOM     13  CA  ARG d   1      17.368  -1.339  12.282  0.00  0.00     0.089 C 
ATOM     14  H42 ARG d   1      17.260  -1.471  11.195  0.00  0.00     0.087 H 
BRANCH  13  15
ATOM     15  N   ARG d   1      16.216  -0.593  12.773  0.00  0.00    -0.346 N 
ATOM     16  C   LYS d   1      15.555   0.260  11.998  0.00  0.00     0.241 C 
ATOM     17  O   LYS d   1      15.865   0.480  10.827  0.00  0.00    -0.271 OA
ATOM     18  H41 ARG d   1      15.915  -0.727  13.717  0.00  0.00     0.163 HD
BRANCH  16  19
ATOM     19  CA  LYS d   1      14.367   0.974  12.638  0.00  0.00     0.089 C 
ATOM     20  H29 LYS d   1      13.670   1.272  11.841  0.00  0.00     0.087 H 
BRANCH  19  21
ATOM     21  N   LYS d   1      13.661   0.091  13.561  0.00  0.00    -0.346 N 
ATOM     22  C   LYS d   1      12.394  -0.260  13.358  0.00  0.00     0.241 C 
ATOM     23  O   LYS d   1      11.738   0.126  12.390  0.00  0.00    -0.271 OA
ATOM     24  H28 LYS d   1      14.141  -0.259  14.365  0.00  0.00     0.163 HD
BRANCH  22  25
ATOM     25  CA  LYS d   1      11.777  -1.187  14.403  0.00  0.00     0.089 C 
ATOM     26  H16 LYS d   1      12.280  -2.163  14.343  0.00  0.00     0.087 H 
BRANCH  25  27
ATOM     27  N   LYS d   1      11.965  -0.652  15.749  0.00  0.00    -0.346 N 
ATOM     28  C   SER d   1      11.558   0.571  16.081  0.00  0.00     0.243 C 
ATOM     29  O   SER d   1      10.999   1.332  15.291  0.00  0.00    -0.271 OA
ATOM     30  H15 LYS d   1      12.412  -1.220  16.440  0.00  0.00     0.163 HD
BRANCH  28  31
ATOM     31  CA  SER d   1      11.819   0.997  17.522  0.00  0.00     0.109 C 
ATOM     32  H11 SER d   1      12.892   1.213  17.634  0.00  0.00     0.090 H 
BRANCH  31  33
ATOM     33  N   SER d   1      11.067   2.203  17.851  0.00  0.00    -0.344 N 
ATOM     34  C   PRO d   1      11.648   3.399  17.889  0.00  0.00     0.249 C 
ATOM     35  O   PRO d   1      12.844   3.573  17.656  0.00  0.00    -0.271 OA
ATOM     36  H10 SER d   1      10.090   2.129  18.053  0.00  0.00     0.163 HD
BRANCH  34  37
ATOM     37  CA  PRO d   1      10.744   4.574  18.245  0.00  0.00     0.178 C 
ATOM     38  N   PRO d   1      11.125   5.207  19.513  0.00  0.00    -0.062 N 
ATOM     39  CD  PRO d   1      11.379   6.651  19.353  0.00  0.00     0.083 C 
ATOM     40  H1  PRO d   1      11.962   4.765  19.859  0.00  0.00     0.278 HD
ATOM     41  H2  PRO d   1      10.378   5.079  20.178  0.00  0.00     0.278 HD
ATOM     42  CG  PRO d   1      10.815   6.956  17.994  0.00  0.00    -0.040 C 
ATOM     43  H8  PRO d   1      12.457   6.867  19.389  0.00  0.00     0.075 H 
ATOM     44  H9  PRO d   1      10.862   7.230  20.133  0.00  0.00     0.075 H 
ATOM     45  CB  PRO d   1      10.898   5.696  17.215  0.00  0.00    -0.028 C 
ATOM     46  H6  PRO d   1       9.768   7.282  18.081  0.00  0.00     0.035 H 
ATOM     47  H7  PRO d   1      11.405   7.745  17.505  0.00  0.00     0.035 H 
ATOM     48  H4  PRO d   1      10.090   5.649  16.471  0.00  0.00     0.036 H 
ATOM     49  H5  PRO d   1      11.870   5.621  16.706  0.00  0.00     0.036 H 
ATOM     50  H3  PRO d   1       9.702   4.225  18.289  0.00  0.00     0.099 H 
ENDBRANCH  34  37
ENDBRANCH  31  33
BRANCH  31  51
ATOM     51  CB  SER d   1      11.445  -0.137  18.477  0.00  0.00     0.044 C 
ATOM     52  H12 SER d   1      10.820  -0.867  17.941  0.00  0.00     0.077 H 
ATOM     53  H13 SER d   1      10.879   0.278  19.324  0.00  0.00     0.077 H 
BRANCH  51  54
ATOM     54  OG  SER d   1      12.601  -0.791  18.970  0.00  0.00    -0.398 OA
ATOM     55  H14 SER d   1      12.341  -1.489  19.559  0.00  0.00     0.209 HD
ENDBRANCH  51  54
ENDBRANCH  31  51
ENDBRANCH  28  31
ENDBRANCH  25  27
BRANCH  25  56
ATOM     56  CB  LYS d   1      10.287  -1.388  14.115  0.00  0.00    -0.038 C 
ATOM     57  H17 LYS d   1      10.120  -1.252  13.036  0.00  0.00     0.036 H 
ATOM     58  H18 LYS d   1       9.719  -0.628  14.673  0.00  0.00     0.036 H 
BRANCH  56  59
ATOM     59  CG  LYS d   1       9.771  -2.761  14.512  0.00  0.00    -0.061 C 
ATOM     60  H19 LYS d   1      10.628  -3.433  14.668  0.00  0.00     0.033 H 
ATOM     61  H20 LYS d   1       9.140  -3.154  13.701  0.00  0.00     0.033 H 
BRANCH  59  62
ATOM     62  CD  LYS d   1       8.951  -2.701  15.791  0.00  0.00    -0.043 C 
ATOM     63  H21 LYS d   1       8.430  -1.733  15.837  0.00  0.00     0.035 H 
ATOM     64  H22 LYS d   1       9.627  -2.795  16.654  0.00  0.00     0.035 H 
BRANCH  62  65
ATOM     65  CE  LYS d   1       7.923  -3.818  15.845  0.00  0.00     0.080 C 
ATOM     66  H23 LYS d   1       8.441  -4.769  16.035  0.00  0.00     0.075 H 
ATOM     67  H24 LYS d   1       7.404  -3.870  14.877  0.00  0.00     0.075 H 
BRANCH  65  68
ATOM     68  NZ  LYS d   1       6.917  -3.596  16.919  0.00  0.00    -0.079 N 
ATOM     69  H25 LYS d   1       6.255  -4.356  16.922  0.00  0.00     0.274 HD
ATOM     70  H26 LYS d   1       6.432  -2.729  16.751  0.00  0.00     0.274 HD
ATOM     71  H27 LYS d   1       7.383  -3.553  17.812  0.00  0.00     0.274 HD
ENDBRANCH  65  68
ENDBRANCH  62  65
ENDBRANCH  59  62
ENDBRANCH  56  59
ENDBRANCH  25  56
ENDBRANCH  22  25
ENDBRANCH  19  21
BRANCH  19  72
ATOM     72  CB  LYS d   1      14.842   2.234  13.367  0.00  0.00    -0.038 C 
ATOM     73  H30 LYS d   1      13.964   2.738  13.798  0.00  0.00     0.036 H 
ATOM     74  H31 LYS d   1      15.323   2.898  12.634  0.00  0.00     0.036 H 
BRANCH  72  75
ATOM     75  CG  LYS d   1      15.833   1.956  14.486  0.00  0.00    -0.061 C 
ATOM     76  H32 LYS d   1      16.819   2.346  14.195  0.00  0.00     0.033 H 
ATOM     77  H33 LYS d   1      15.900   0.869  14.642  0.00  0.00     0.033 H 
BRANCH  75  78
ATOM     78  CD  LYS d   1      15.405   2.616  15.786  0.00  0.00    -0.043 C 
ATOM     79  H34 LYS d   1      14.348   2.909  15.707  0.00  0.00     0.035 H 
ATOM     80  H35 LYS d   1      16.022   3.511  15.953  0.00  0.00     0.035 H 
BRANCH  78  81
ATOM     81  CE  LYS d   1      15.569   1.676  16.969  0.00  0.00     0.080 C 
ATOM     82  H36 LYS d   1      14.940   0.788  16.808  0.00  0.00     0.075 H 
ATOM     83  H37 LYS d   1      15.244   2.195  17.883  0.00  0.00     0.075 H 
BRANCH  81  84
ATOM     84  NZ  LYS d   1      16.982   1.239  17.140  0.00  0.00    -0.079 N 
ATOM     85  H38 LYS d   1      17.048   0.619  17.932  0.00  0.00     0.274 HD
ATOM     86  H39 LYS d   1      17.567   2.045  17.294  0.00  0.00     0.274 HD
ATOM     87  H40 LYS d   1      17.287   0.757  16.309  0.00  0.00     0.274 HD
ENDBRANCH  81  84
ENDBRANCH  78  81
ENDBRANCH  75  78
ENDBRANCH  72  75
ENDBRANCH  19  72
ENDBRANCH  16  19
ENDBRANCH  13  15
BRANCH  13  88
ATOM     88  CB  ARG d   1      18.659  -0.564  12.554  0.00  0.00    -0.036 C 
ATOM     89  H43 ARG d   1      19.478  -1.287  12.681  0.00  0.00     0.036 H 
ATOM     90  H44 ARG d   1      18.530   0.012  13.482  0.00  0.00     0.036 H 
BRANCH  88  91
ATOM     91  CG  ARG d   1      19.036   0.399  11.439  0.00  0.00    -0.048 C 
ATOM     92  H45 ARG d   1      18.708   1.412  11.715  0.00  0.00     0.035 H 
ATOM     93  H46 ARG d   1      18.529   0.089  10.513  0.00  0.00     0.035 H 
BRANCH  91  94
ATOM     94  CD  ARG d   1      20.537   0.415  11.199  0.00  0.00     0.009 C 
ATOM     95  H47 ARG d   1      21.037   0.794  12.102  0.00  0.00     0.064 H 
ATOM     96  H48 ARG d   1      20.754   1.082  10.352  0.00  0.00     0.064 H 
BRANCH  94  97
ATOM     97  NE  ARG d   1      21.057  -0.917  10.896  0.00  0.00    -0.227 N 
ATOM     98  CZ  ARG d   1      22.258  -1.343  11.276  0.00  0.00     0.665 C 
ATOM     99  NH1 ARG d   1      23.063  -0.545  11.965  0.00  0.00    -0.235 N 
ATOM    100  NH2 ARG d   1      22.656  -2.569  10.964  0.00  0.00    -0.235 N 
ATOM    101  H50 ARG d   1      23.992  -0.879  12.257  0.00  0.00     0.174 HD
ATOM    102  H51 ARG d   1      22.759   0.409  12.208  0.00  0.00     0.174 HD
ATOM    103  H52 ARG d   1      22.034  -3.192  10.429  0.00  0.00     0.174 HD
ATOM    104  H53 ARG d   1      23.587  -2.898  11.257  0.00  0.00     0.174 HD
ATOM    105  H49 ARG d   1      20.460  -1.562  10.358  0.00  0.00     0.177 HD
ENDBRANCH  94  97
ENDBRANCH  91  94
ENDBRANCH  88  91
ENDBRANCH  13  88
ENDBRANCH  10  13
ENDBRANCH   7   9
BRANCH   7 106
ATOM    106  CB  LYS d   1      15.861  -5.184  13.976  0.00  0.00    -0.038 C 
ATOM    107  H56 LYS d   1      14.835  -5.241  13.584  0.00  0.00     0.036 H 
ATOM    108  H57 LYS d   1      15.965  -4.285  14.601  0.00  0.00     0.036 H 
BRANCH 106 109
ATOM    109  CG  LYS d   1      16.113  -6.405  14.844  0.00  0.00    -0.061 C 
ATOM    110  H58 LYS d   1      16.441  -7.237  14.204  0.00  0.00     0.033 H 
ATOM    111  H59 LYS d   1      15.178  -6.681  15.353  0.00  0.00     0.033 H 
BRANCH 109 112
ATOM    112  CD  LYS d   1      17.182  -6.135  15.889  0.00  0.00    -0.043 C 
ATOM    113  H60 LYS d   1      17.479  -5.077  15.831  0.00  0.00     0.035 H 
ATOM    114  H61 LYS d   1      18.054  -6.773  15.681  0.00  0.00     0.035 H 
BRANCH 112 115
ATOM    115  CE  LYS d   1      16.677  -6.430  17.292  0.00  0.00     0.080 C 
ATOM    116  H62 LYS d   1      15.606  -6.186  17.343  0.00  0.00     0.075 H 
ATOM    117  H63 LYS d   1      17.230  -5.804  18.008  0.00  0.00     0.075 H 
BRANCH 115 118
ATOM    118  NZ  LYS d   1      16.863  -7.861  17.659  0.00  0.00    -0.079 N 
ATOM    119  H64 LYS d   1      16.517  -8.016  18.593  0.00  0.00     0.274 HD
ATOM    120  H65 LYS d   1      17.843  -8.093  17.621  0.00  0.00     0.274 HD
ATOM    121  H66 LYS d   1      16.355  -8.443  17.012  0.00  0.00     0.274 HD
ENDBRANCH 115 118
ENDBRANCH 112 115
ENDBRANCH 109 112
ENDBRANCH 106 109
ENDBRANCH   7 106
ENDBRANCH   4   7
ENDBRANCH   1   3
BRANCH   1 122
ATOM    122  C   ARG d   1      14.440  -5.872   8.772  0.00  0.00     0.241 C 
ATOM    123  O   ARG d   1      13.484  -5.095   8.767  0.00  0.00    -0.271 OA
ATOM    124  N   SER d   1      15.226  -6.062   7.716  0.00  0.00    -0.344 N 
ATOM    125  H80 SER d   1      15.989  -6.704   7.784  0.00  0.00     0.163 HD
BRANCH 124 126
ATOM    126  CA  SER d   1      15.000  -5.355   6.461  0.00  0.00     0.109 C 
ATOM    127  H81 SER d   1      14.984  -4.274   6.666  0.00  0.00     0.090 H 
BRANCH 126 128
ATOM    128  C   SER d   1      13.661  -5.755   5.852  0.00  0.00     0.243 C 
ATOM    129  O   SER d   1      13.389  -6.939   5.648  0.00  0.00    -0.271 OA
ATOM    130  N   ARG d   1      12.826  -4.760   5.565  0.00  0.00    -0.346 N 
ATOM    131  H85 ARG d   1      13.106  -3.818   5.753  0.00  0.00     0.163 HD
BRANCH 130 132
ATOM    132  CA  ARG d   1      11.512  -5.009   4.983  0.00  0.00     0.089 C 
ATOM    133  H86 ARG d   1      11.341  -6.095   4.960  0.00  0.00     0.087 H 
BRANCH 132 134
ATOM    134  C   ARG d   1      11.438  -4.476   3.556  0.00  0.00     0.241 C 
ATOM    135  O   ARG d   1      10.356  -4.374   2.979  0.00  0.00    -0.271 OA
ATOM    136  N   TRP d   1      12.593  -4.135   2.994  0.00  0.00    -0.346 N 
ATOM    137  H98 TRP d   1      13.439  -4.240   3.517  0.00  0.00     0.163 HD
BRANCH 136 138
ATOM    138  CA  TRP d   1      12.657  -3.612   1.634  0.00  0.00     0.093 C 
ATOM    139  H99 TRP d   1      11.761  -3.946   1.090  0.00  0.00     0.088 H 
BRANCH 138 140
ATOM    140  C   TRP d   1      13.888  -4.144   0.908  0.00  0.00     0.241 C 
ATOM    141  O   TRP d   1      14.683  -3.377   0.364  0.00  0.00    -0.271 OA
ATOM    142  N   ASN d   1      14.038  -5.465   0.905  0.00  0.00    -0.346 N 
ATOM    143 8H10 ASN d   1      13.357  -6.033   1.366  0.00  0.00     0.163 HD
BRANCH 142 144
ATOM    144  CA  ASN d   1      15.171  -6.108   0.246  0.00  0.00     0.097 C 
ATOM    145 9H10 ASN d   1      16.068  -5.495   0.419  0.00  0.00     0.088 H 
BRANCH 144 146
ATOM    146  C   ASN d   1      14.938  -6.212  -1.258  0.00  0.00     0.241 C 
ATOM    147  O   ASN d   1      14.165  -5.443  -1.830  0.00  0.00    -0.271 OA
ATOM    148  N   GLN d   1      15.616  -7.164  -1.894  0.00  0.00    -0.346 N 
ATOM    149 4H11 GLN d   1      16.235  -7.752  -1.373  0.00  0.00     0.163 HD
BRANCH 148 150
ATOM    150  CA  GLN d   1      15.479  -7.372  -3.333  0.00  0.00     0.090 C 
ATOM    151 5H11 GLN d   1      14.408  -7.437  -3.574  0.00  0.00     0.087 H 
BRANCH 150 152
ATOM    152  C   GLN d   1      16.150  -8.674  -3.761  0.00  0.00     0.241 C 
ATOM    153  O   GLN d   1      15.647  -9.385  -4.631  0.00  0.00    -0.271 OA
ATOM    154  N   ASP d   1      17.288  -8.981  -3.143  0.00  0.00    -0.344 N 
ATOM    155 2H12 ASP d   1      17.645  -8.361  -2.444  0.00  0.00     0.163 HD
BRANCH 154 156
ATOM    156  CA  ASP d   1      18.028 -10.197  -3.458  0.00  0.00     0.105 C 
ATOM    157 3H12 ASP d   1      17.531 -10.700  -4.301  0.00  0.00     0.090 H 
BRANCH 156 158
ATOM    158  C   ASP d   1      18.042 -11.147  -2.265  0.00  0.00     0.197 C 
ATOM    159  O   ASP d   1      18.514 -10.733  -1.186  0.00  0.00    -0.646 OA
ATOM    160  OXT ASP d   1      17.581 -12.297  -2.421  0.00  0.00    -0.646 OA
ENDBRANCH 156 158
BRANCH 156 161
ATOM    161  CB  ASP d   1      19.462  -9.855  -3.868  0.00  0.00     0.044 C 
ATOM    162 4H12 ASP d   1      20.149 -10.229  -3.095  0.00  0.00     0.053 H 
ATOM    163 5H12 ASP d   1      19.556  -8.762  -3.944  0.00  0.00     0.053 H 
BRANCH 161 164
ATOM    164  CG  ASP d   1      19.846 -10.470  -5.199  0.00  0.00     0.175 C 
ATOM    165  OD1 ASP d   1      19.210 -10.126  -6.218  0.00  0.00    -0.648 OA
ATOM    166  OD2 ASP d   1      20.781 -11.298  -5.223  0.00  0.00    -0.648 OA
ENDBRANCH 161 164
ENDBRANCH 156 161
ENDBRANCH 154 156
ENDBRANCH 150 152
BRANCH 150 167
ATOM    167  CB  GLN d   1      16.080  -6.194  -4.102  0.00  0.00    -0.030 C 
ATOM    168 6H11 GLN d   1      15.548  -5.278  -3.805  0.00  0.00     0.037 H 
ATOM    169 7H11 GLN d   1      15.934  -6.371  -5.178  0.00  0.00     0.037 H 
BRANCH 167 170
ATOM    170  CG  GLN d   1      17.566  -5.989  -3.847  0.00  0.00     0.011 C 
ATOM    171 8H11 GLN d   1      18.110  -6.879  -4.197  0.00  0.00     0.047 H 
ATOM    172 9H11 GLN d   1      17.724  -5.864  -2.766  0.00  0.00     0.047 H 
BRANCH 170 173
ATOM    173  CD  GLN d   1      18.115  -4.771  -4.563  0.00  0.00     0.215 C 
ATOM    174  OE1 GLN d   1      17.545  -4.304  -5.549  0.00  0.00    -0.274 OA
ATOM    175  NE2 GLN d   1      19.230  -4.247  -4.067  0.00  0.00    -0.370 N 
ATOM    176 0H12 GLN d   1      19.639  -3.442  -4.498  0.00  0.00     0.159 HD
ATOM    177 1H12 GLN d   1      19.661  -4.657  -3.263  0.00  0.00     0.159 HD
ENDBRANCH 170 173
ENDBRANCH 167 170
ENDBRANCH 150 167
ENDBRANCH 148 150
ENDBRANCH 144 146
BRANCH 144 178
ATOM    178  CB  ASN d   1      15.407  -7.499   0.839  0.00  0.00     0.036 C 
ATOM    179 0H11 ASN d   1      15.159  -8.254   0.078  0.00  0.00     0.051 H 
ATOM    180 1H11 ASN d   1      14.749  -7.627   1.711  0.00  0.00     0.051 H 
BRANCH 178 181
ATOM    181  CG  ASN d   1      16.843  -7.705   1.278  0.00  0.00     0.217 C 
ATOM    182  OD1 ASN d   1      17.491  -8.677   0.889  0.00  0.00    -0.274 OA
ATOM    183  ND2 ASN d   1      17.351  -6.786   2.092  0.00  0.00    -0.370 N 
ATOM    184 2H11 ASN d   1      18.294  -6.870   2.414  0.00  0.00     0.159 HD
ATOM    185 3H11 ASN d   1      16.791  -6.010   2.382  0.00  0.00     0.159 HD
ENDBRANCH 178 181
ENDBRANCH 144 178
ENDBRANCH 142 144
ENDBRANCH 138 140
BRANCH 138 186
ATOM    186  CB  TRP d   1      12.673  -2.081   1.653  0.00  0.00    -0.012 C 
ATOM    187 0H10 TRP d   1      12.640  -1.718   0.615  0.00  0.00     0.044 H 
ATOM    188 1H10 TRP d   1      13.607  -1.747   2.128  0.00  0.00     0.044 H 
BRANCH 186 189
ATOM    189  CG  TRP d   1      11.518  -1.486   2.403  0.00  0.00    -0.028 A 
ATOM    190  CD1 TRP d   1      11.517  -1.059   3.699  0.00  0.00    -0.015 A 
ATOM    191  NE1 TRP d   1      10.276  -0.578   4.036  0.00  0.00    -0.365 N 
ATOM    192 2H10 TRP d   1      12.375  -1.095   4.368  0.00  0.00     0.112 H 
ATOM    193  CE2 TRP d   1       9.447  -0.687   2.950  0.00  0.00     0.042 A 
ATOM    194 3H10 TRP d   1      10.011  -0.197   4.956  0.00  0.00     0.165 HD
ATOM    195  CD2 TRP d   1      10.196  -1.255   1.902  0.00  0.00    -0.002 A 
ATOM    196  CZ2 TRP d   1       8.108  -0.333   2.803  0.00  0.00    -0.056 A 
ATOM    197  CE3 TRP d   1       9.572  -1.474   0.671  0.00  0.00    -0.070 A 
ATOM    198  CZ3 TRP d   1       8.242  -1.123   0.526  0.00  0.00    -0.082 A 
ATOM    199 4H10 TRP d   1      10.120  -1.911  -0.155  0.00  0.00     0.084 H 
ATOM    200  CH2 TRP d   1       7.524  -0.559   1.587  0.00  0.00    -0.081 A 
ATOM    201 6H10 TRP d   1       7.748  -1.287  -0.425  0.00  0.00     0.083 H 
ATOM    202 7H10 TRP d   1       6.483  -0.296   1.442  0.00  0.00     0.083 H 
ATOM    203 5H10 TRP d   1       7.549   0.105   3.622  0.00  0.00     0.086 H 
ENDBRANCH 186 189
ENDBRANCH 138 186
ENDBRANCH 136 138
ENDBRANCH 132 134
BRANCH 132 204
ATOM    204  CB  ARG d   1      10.425  -4.359   5.838  0.00  0.00    -0.036 C 
ATOM    205  H87 ARG d   1       9.528  -4.223   5.216  0.00  0.00     0.036 H 
ATOM    206  H88 ARG d   1      10.789  -3.378   6.177  0.00  0.00     0.036 H 
BRANCH 204 207
ATOM    207  CG  ARG d   1      10.044  -5.179   7.060  0.00  0.00    -0.048 C 
ATOM    208  H89 ARG d   1      10.020  -4.519   7.940  0.00  0.00     0.035 H 
ATOM    209  H90 ARG d   1      10.798  -5.966   7.212  0.00  0.00     0.035 H 
BRANCH 207 210
ATOM    210  CD  ARG d   1       8.680  -5.828   6.892  0.00  0.00     0.009 C 
ATOM    211  H91 ARG d   1       8.563  -6.141   5.844  0.00  0.00     0.064 H 
ATOM    212  H92 ARG d   1       7.903  -5.091   7.144  0.00  0.00     0.064 H 
BRANCH 210 213
ATOM    213  NE  ARG d   1       8.519  -6.995   7.753  0.00  0.00    -0.227 N 
ATOM    214  CZ  ARG d   1       7.415  -7.252   8.447  0.00  0.00     0.665 C 
ATOM    215  NH1 ARG d   1       6.378  -6.429   8.379  0.00  0.00    -0.235 N 
ATOM    216  NH2 ARG d   1       7.346  -8.335   9.211  0.00  0.00    -0.235 N 
ATOM    217  H94 ARG d   1       5.524  -6.631   8.918  0.00  0.00     0.174 HD
ATOM    218  H95 ARG d   1       6.426  -5.588   7.787  0.00  0.00     0.174 HD
ATOM    219  H96 ARG d   1       8.149  -8.978   9.267  0.00  0.00     0.174 HD
ATOM    220  H97 ARG d   1       6.489  -8.533   9.748  0.00  0.00     0.174 HD
ATOM    221  H93 ARG d   1       9.305  -7.657   7.827  0.00  0.00     0.177 HD
ENDBRANCH 210 213
ENDBRANCH 207 210
ENDBRANCH 204 207
ENDBRANCH 132 204
ENDBRANCH 130 132
ENDBRANCH 126 128
BRANCH 126 222
ATOM    222  CB  SER d   1      16.130  -5.650   5.473  0.00  0.00     0.044 C 
ATOM    223  H82 SER d   1      16.820  -4.793   5.450  0.00  0.00     0.077 H 
ATOM    224  H83 SER d   1      15.701  -5.803   4.472  0.00  0.00     0.077 H 
BRANCH 222 225
ATOM    225  OG  SER d   1      16.848  -6.811   5.850  0.00  0.00    -0.398 OA
ATOM    226  H84 SER d   1      17.542  -6.971   5.221  0.00  0.00     0.209 HD
ENDBRANCH 222 225
ENDBRANCH 126 222
ENDBRANCH 124 126
ENDBRANCH   1 122
BRANCH   1 227
ATOM    227  CB  ARG d   1      13.552  -7.447  10.501  0.00  0.00    -0.036 C 
ATOM    228  H69 ARG d   1      12.663  -6.823  10.328  0.00  0.00     0.036 H 
ATOM    229  H70 ARG d   1      13.660  -7.639  11.579  0.00  0.00     0.036 H 
BRANCH 227 230
ATOM    230  CG  ARG d   1      13.351  -8.776   9.794  0.00  0.00    -0.048 C 
ATOM    231  H71 ARG d   1      13.902  -8.761   8.842  0.00  0.00     0.035 H 
ATOM    232  H72 ARG d   1      12.278  -8.917   9.595  0.00  0.00     0.035 H 
BRANCH 230 233
ATOM    233  CD  ARG d   1      13.854  -9.937  10.638  0.00  0.00     0.009 C 
ATOM    234  H73 ARG d   1      13.365  -9.898  11.623  0.00  0.00     0.064 H 
ATOM    235  H74 ARG d   1      14.942  -9.838  10.765  0.00  0.00     0.064 H 
BRANCH 233 236
ATOM    236  NE  ARG d   1      13.567 -11.228  10.020  0.00  0.00    -0.227 N 
ATOM    237  CZ  ARG d   1      12.555 -12.010  10.383  0.00  0.00     0.665 C 
ATOM    238  NH1 ARG d   1      11.738 -11.636  11.360  0.00  0.00    -0.235 N 
ATOM    239  NH2 ARG d   1      12.358 -13.169   9.769  0.00  0.00    -0.235 N 
ATOM    240  H76 ARG d   1      10.955 -12.245  11.638  0.00  0.00     0.174 HD
ATOM    241  H77 ARG d   1      11.887 -10.737  11.840  0.00  0.00     0.174 HD
ATOM    242  H78 ARG d   1      12.989 -13.464   9.010  0.00  0.00     0.174 HD
ATOM    243  H79 ARG d   1      11.574 -13.774  10.051  0.00  0.00     0.174 HD
ATOM    244  H75 ARG d   1      14.183 -11.551   9.260  0.00  0.00     0.177 HD
ENDBRANCH 233 236
ENDBRANCH 230 233
ENDBRANCH 227 230
ENDBRANCH   1 227
TORSDOF 65
