REMARK  6 active torsions:
REMARK  status: ('A' for Active; 'I' for Inactive)
REMARK    1  A    between atoms: S1_1  and  C15_2 
REMARK    2  A    between atoms: S1_1  and  N3_24 
REMARK    3  A    between atoms: C12_5  and  N2_8 
REMARK    4  A    between atoms: C3_9  and  C5_10 
REMARK    5  A    between atoms: C8_13  and  C11_14 
REMARK    6  A    between atoms: C1_18  and  C4_19 
ROOT
ATOM      1  N2  CEL d   1      17.697   7.528  13.849  0.00  0.00    -0.233 N 
ATOM      2  C3  CEL d   1      17.520   8.191  12.667  0.00  0.00     0.071 A 
ATOM      3  C2  CEL d   1      18.357   9.303  12.705  0.00  0.00    -0.020 A 
ATOM      4  C1  CEL d   1      18.923   9.270  13.975  0.00  0.00     0.163 A 
ATOM      5  N1  CEL d   1      18.531   8.211  14.657  0.00  0.00    -0.162 NA
ATOM      6  H12 CEL d   1      18.530  10.034  11.917  0.00  0.00     0.090 H 
ENDROOT
BRANCH   1   7
ATOM      7  C12 CEL d   1      17.113   6.332  14.441  0.00  0.00     0.059 A 
ATOM      8  C13 CEL d   1      15.754   6.300  14.604  0.00  0.00    -0.054 A 
ATOM      9  C14 CEL d   1      15.186   5.215  15.256  0.00  0.00    -0.058 A 
ATOM     10  H2  CEL d   1      15.134   7.107  14.231  0.00  0.00     0.087 H 
ATOM     11  C15 CEL d   1      15.988   4.196  15.712  0.00  0.00     0.079 A 
ATOM     12  H1  CEL d   1      14.113   5.171  15.405  0.00  0.00     0.086 H 
ATOM     13  C16 CEL d   1      17.358   4.211  15.545  0.00  0.00    -0.058 A 
ATOM     14  C17 CEL d   1      17.926   5.311  14.892  0.00  0.00    -0.054 A 
ATOM     15  H4  CEL d   1      17.974   3.397  15.908  0.00  0.00     0.086 H 
ATOM     16  H3  CEL d   1      18.998   5.361  14.741  0.00  0.00     0.087 H 
BRANCH  11  17
ATOM     17  S1  CEL d   1      15.289   2.846  16.652  0.00  0.00     0.256 S 
ATOM     18  O2  CEL d   1      13.890   2.912  16.527  0.00  0.00    -0.201 OA
ATOM     19  O1  CEL d   1      15.814   3.012  17.985  0.00  0.00    -0.201 OA
BRANCH  17  20
ATOM     20  N3  CEL d   1      15.813   1.484  16.022  0.00  0.00    -0.324 N 
ATOM     21  H13 CEL d   1      15.529   0.609  16.415  0.00  0.00     0.169 HD
ATOM     22  H14 CEL d   1      16.427   1.502  15.233  0.00  0.00     0.169 HD
ENDBRANCH  17  20
ENDBRANCH  11  17
ENDBRANCH   1   7
BRANCH   2  23
ATOM     23  C5  CEL d   1      16.762   7.819  11.478  0.00  0.00    -0.007 A 
ATOM     24  C10 CEL d   1      16.818   6.497  11.064  0.00  0.00    -0.070 A 
ATOM     25  C9  CEL d   1      16.152   6.097   9.930  0.00  0.00    -0.076 A 
ATOM     26  H5  CEL d   1      17.389   5.776  11.637  0.00  0.00     0.084 H 
ATOM     27  C8  CEL d   1      15.381   6.993   9.225  0.00  0.00    -0.062 A 
ATOM     28  H6  CEL d   1      16.234   5.071   9.589  0.00  0.00     0.084 H 
ATOM     29  C7  CEL d   1      15.256   8.300   9.682  0.00  0.00    -0.076 A 
ATOM     30  C6  CEL d   1      15.971   8.706  10.778  0.00  0.00    -0.070 A 
ATOM     31  H10 CEL d   1      14.596   8.994   9.174  0.00  0.00     0.084 H 
ATOM     32  H11 CEL d   1      15.914   9.740  11.100  0.00  0.00     0.084 H 
BRANCH  27  33
ATOM     33  C11 CEL d   1      14.663   6.537   7.981  0.00  0.00    -0.051 C 
ATOM     34  H7  CEL d   1      14.101   7.380   7.553  0.00  0.00     0.033 H 
ATOM     35  H8  CEL d   1      13.967   5.724   8.236  0.00  0.00     0.033 H 
ATOM     36  H9  CEL d   1      15.397   6.175   7.246  0.00  0.00     0.033 H 
ENDBRANCH  27  33
ENDBRANCH   2  23
BRANCH   4  37
ATOM     37  C4  CEL d   1      19.849  10.267  14.582  0.00  0.00     0.436 C 
ATOM     38  F3  CEL d   1      21.060  10.258  14.089  0.00  0.00    -0.165 F 
ATOM     39  F2  CEL d   1      19.916  10.213  15.908  0.00  0.00    -0.165 F 
ATOM     40  F1  CEL d   1      19.380  11.489  14.361  0.00  0.00    -0.165 F 
ENDBRANCH   4  37
TORSDOF 6
