REMARK WARNING: 32 MAX_TORS EXCEEDED!!!
REMARK  105 active torsions:
REMARK  status: ('A' for Active; 'I' for Inactive)
REMARK    1  A    between atoms: N_1  and  CA_2 
REMARK    2  A    between atoms: CA_2  and  C_3 
REMARK    3  A    between atoms: CA_2  and  CB_5 
REMARK       I    between atoms: C_3  and  N_10 
REMARK    4  A    between atoms: CB_5  and  CG_6 
REMARK    5  A    between atoms: CG_6  and  CD_7 
REMARK    6  A    between atoms: CD_7  and  CE_8 
REMARK    7  A    between atoms: CE_8  and  NZ_9 
REMARK    8  A    between atoms: N_10  and  CA_11 
REMARK    9  A    between atoms: CA_11  and  C_12 
REMARK   10  A    between atoms: CA_11  and  CB_14 
REMARK       I    between atoms: C_12  and  N_19 
REMARK   11  A    between atoms: CB_14  and  CG_15 
REMARK   12  A    between atoms: CG_15  and  CD_16 
REMARK   13  A    between atoms: CD_16  and  CE_17 
REMARK   14  A    between atoms: CE_17  and  NZ_18 
REMARK   15  A    between atoms: N_19  and  CA_20 
REMARK   16  A    between atoms: CA_20  and  C_21 
REMARK   17  A    between atoms: CA_20  and  CB_23 
REMARK       I    between atoms: C_21  and  N_30 
REMARK   18  A    between atoms: CB_23  and  CG_24 
REMARK   19  A    between atoms: CG_24  and  CD_25 
REMARK   20  A    between atoms: CD_25  and  NE_26 
REMARK       I    between atoms: NE_26  and  CZ_27 
REMARK       I    between atoms: CZ_27  and  NH1_28 
REMARK       I    between atoms: CZ_27  and  NH2_29 
REMARK   21  A    between atoms: N_30  and  CA_31 
REMARK   22  A    between atoms: CA_31  and  C_32 
REMARK   23  A    between atoms: CA_31  and  CB_34 
REMARK       I    between atoms: C_32  and  N_39 
REMARK   24  A    between atoms: CB_34  and  CG_35 
REMARK   25  A    between atoms: CG_35  and  CD_36 
REMARK   26  A    between atoms: N_39  and  CA_40 
REMARK   27  A    between atoms: CA_40  and  C_41 
REMARK   28  A    between atoms: CA_40  and  CB_43 
REMARK       I    between atoms: C_41  and  N_47 
REMARK   29  A    between atoms: CB_43  and  CG_44 
REMARK   30  A    between atoms: CG_44  and  CD1_45 
REMARK   31  A    between atoms: CG_44  and  CD2_46 
REMARK   32  A    between atoms: N_47  and  CA_48 
REMARK   33  A    between atoms: CA_48  and  C_49 
REMARK   34  A    between atoms: CA_48  and  CB_51 
REMARK       I    between atoms: C_49  and  N_55 
REMARK   35  A    between atoms: CB_51  and  CG1_52 
REMARK   36  A    between atoms: CB_51  and  CG2_53 
REMARK   37  A    between atoms: CG1_52  and  CD1_54 
REMARK   38  A    between atoms: N_55  and  CA_56 
REMARK   39  A    between atoms: CA_56  and  C_57 
REMARK   40  A    between atoms: CA_56  and  CB_59 
REMARK       I    between atoms: C_57  and  N_64 
REMARK   41  A    between atoms: CB_59  and  CG_60 
REMARK   42  A    between atoms: CG_60  and  CD_61 
REMARK   43  A    between atoms: N_64  and  CA_65 
REMARK   44  A    between atoms: CA_65  and  C_66 
REMARK   45  A    between atoms: CA_65  and  CB_68 
REMARK       I    between atoms: C_66  and  N_70 
REMARK   46  A    between atoms: CB_68  and  OG_69 
REMARK   47  A    between atoms: N_70  and  CA_71 
REMARK   48  A    between atoms: CA_71  and  C_72 
REMARK   49  A    between atoms: CA_71  and  CB_74 
REMARK       I    between atoms: C_72  and  N_79 
REMARK   50  A    between atoms: CB_74  and  CG_75 
REMARK   51  A    between atoms: CG_75  and  CD_76 
REMARK   52  A    between atoms: CD_76  and  CE_77 
REMARK   53  A    between atoms: CE_77  and  NZ_78 
REMARK   54  A    between atoms: N_79  and  CA_80 
REMARK   55  A    between atoms: CA_80  and  C_81 
REMARK   56  A    between atoms: CA_80  and  CB_83 
REMARK       I    between atoms: C_81  and  N_93 
REMARK   57  A    between atoms: CB_83  and  CG_84 
REMARK   58  A    between atoms: N_93  and  CA_94 
REMARK   59  A    between atoms: CA_94  and  C_95 
REMARK   60  A    between atoms: CA_94  and  CB_97 
REMARK       I    between atoms: C_95  and  N_103 
REMARK   61  A    between atoms: CB_97  and  CG_98 
REMARK   62  A    between atoms: N_103  and  CA_104 
REMARK   63  A    between atoms: CA_104  and  C_105 
REMARK   64  A    between atoms: CA_104  and  CB_107 
REMARK       I    between atoms: C_105  and  N_114 
REMARK   65  A    between atoms: CB_107  and  CG_108 
REMARK   66  A    between atoms: CG_108  and  CD_109 
REMARK   67  A    between atoms: CD_109  and  NE_110 
REMARK       I    between atoms: NE_110  and  CZ_111 
REMARK       I    between atoms: CZ_111  and  NH1_112 
REMARK   68  A    between atoms: N_114  and  CA_115 
REMARK   69  A    between atoms: CA_115  and  C_116 
REMARK   70  A    between atoms: CA_115  and  CB_118 
REMARK       I    between atoms: C_116  and  N_122 
REMARK   71  A    between atoms: CB_118  and  CG_119 
REMARK   72  A    between atoms: CG_119  and  CD1_120 
REMARK   73  A    between atoms: CG_119  and  CD2_121 
REMARK   74  A    between atoms: N_122  and  CA_123 
REMARK   75  A    between atoms: CA_123  and  C_124 
REMARK   76  A    between atoms: CA_123  and  CB_126 
REMARK       I    between atoms: C_124  and  N_130 
REMARK   77  A    between atoms: CB_126  and  CG_127 
REMARK   78  A    between atoms: CG_127  and  CD1_128 
REMARK   79  A    between atoms: CG_127  and  CD2_129 
REMARK   80  A    between atoms: N_130  and  CA_131 
REMARK   81  A    between atoms: CA_131  and  C_132 
REMARK   82  A    between atoms: CA_131  and  CB_134 
REMARK       I    between atoms: C_132  and  N_141 
REMARK   83  A    between atoms: CB_134  and  CG_135 
REMARK   84  A    between atoms: N_141  and  CA_142 
REMARK   85  A    between atoms: CA_142  and  C_143 
REMARK   86  A    between atoms: CA_142  and  CB_145 
REMARK       I    between atoms: C_143  and  N_151 
REMARK   87  A    between atoms: CB_145  and  CG_146 
REMARK   88  A    between atoms: N_151  and  CA_152 
REMARK   89  A    between atoms: CA_152  and  C_153 
REMARK   90  A    between atoms: CA_152  and  CB_155 
REMARK       I    between atoms: C_153  and  N_159 
REMARK   91  A    between atoms: CB_155  and  CG_156 
REMARK   92  A    between atoms: N_159  and  CA_160 
REMARK   93  A    between atoms: CA_160  and  C_161 
REMARK   94  A    between atoms: CA_160  and  CB_163 
REMARK       I    between atoms: C_161  and  N_168 
REMARK   95  A    between atoms: CB_163  and  CG_164 
REMARK   96  A    between atoms: CG_164  and  CD_165 
REMARK   97  A    between atoms: CD_165  and  CE_166 
REMARK   98  A    between atoms: CE_166  and  NZ_167 
REMARK   99  A    between atoms: N_168  and  CA_169 
REMARK  100  A    between atoms: CA_169  and  C_170 
REMARK  101  A    between atoms: CA_169  and  CB_172 
REMARK  102  A    between atoms: CB_172  and  CG_173 
REMARK  103  A    between atoms: CG_173  and  CD_174 
REMARK  104  A    between atoms: CD_174  and  CE_175 
REMARK  105  A    between atoms: CE_175  and  NZ_176 
ROOT
ATOM      1  CA  TRP d   1      -5.886   0.601   4.888  0.00  0.00     0.093 C 
ATOM      2  H95 TRP d   1      -6.141  -0.119   4.096  0.00  0.00     0.088 H 
ENDROOT
BRANCH   1   3
ATOM      3  N   TRP d   1      -7.080   0.823   5.710  0.00  0.00    -0.346 N 
ATOM      4  C   LYS d   1      -7.624  -0.148   6.458  0.00  0.00     0.241 C 
ATOM      5  O   LYS d   1      -7.225  -1.310   6.415  0.00  0.00    -0.271 OA
ATOM      6  H94 TRP d   1      -7.503   1.729   5.713  0.00  0.00     0.163 HD
BRANCH   4   7
ATOM      7  CA  LYS d   1      -8.746   0.229   7.432  0.00  0.00     0.089 C 
ATOM      8  H82 LYS d   1      -8.907  -0.628   8.103  0.00  0.00     0.087 H 
BRANCH   7   9
ATOM      9  N   LYS d   1      -8.345   1.368   8.246  0.00  0.00    -0.346 N 
ATOM     10  C   SER d   1      -7.441   1.256   9.223  0.00  0.00     0.243 C 
ATOM     11  O   SER d   1      -6.921   0.177   9.495  0.00  0.00    -0.271 OA
ATOM     12  H81 LYS d   1      -8.759   2.261   8.068  0.00  0.00     0.163 HD
BRANCH  10  13
ATOM     13  CA  SER d   1      -7.048   2.502  10.026  0.00  0.00     0.109 C 
ATOM     14  H77 SER d   1      -5.985   2.400  10.290  0.00  0.00     0.090 H 
BRANCH  13  15
ATOM     15  N   SER d   1      -7.184   3.731   9.255  0.00  0.00    -0.344 N 
ATOM     16  C   GLU d   1      -6.624   3.916   8.055  0.00  0.00     0.241 C 
ATOM     17  O   GLU d   1      -5.926   3.059   7.510  0.00  0.00    -0.271 OA
ATOM     18  H76 SER d   1      -7.725   4.476   9.644  0.00  0.00     0.163 HD
BRANCH  16  19
ATOM     19  CA  GLU d   1      -6.946   5.237   7.339  0.00  0.00     0.090 C 
ATOM     20  H71 GLU d   1      -6.724   5.105   6.270  0.00  0.00     0.087 H 
BRANCH  19  21
ATOM     21  N   GLU d   1      -8.359   5.578   7.480  0.00  0.00    -0.346 N 
ATOM     22  C   ILE d   1      -9.344   4.718   7.205  0.00  0.00     0.241 C 
ATOM     23  O   ILE d   1      -9.125   3.598   6.743  0.00  0.00    -0.271 OA
ATOM     24  H70 GLU d   1      -8.600   6.495   7.796  0.00  0.00     0.163 HD
BRANCH  22  25
ATOM     25  CA  ILE d   1     -10.778   5.151   7.515  0.00  0.00     0.092 C 
ATOM     26  H60 ILE d   1     -11.425   4.267   7.418  0.00  0.00     0.088 H 
BRANCH  25  27
ATOM     27  N   ILE d   1     -10.860   5.634   8.886  0.00  0.00    -0.346 N 
ATOM     28  C   LEU d   1     -10.837   4.840   9.958  0.00  0.00     0.241 C 
ATOM     29  O   LEU d   1     -10.747   3.620   9.860  0.00  0.00    -0.271 OA
ATOM     30  H59 ILE d   1     -10.938   6.620   9.033  0.00  0.00     0.163 HD
BRANCH  28  31
ATOM     31  CA  LEU d   1     -10.932   5.498  11.339  0.00  0.00     0.089 C 
ATOM     32  H49 LEU d   1     -10.471   4.816  12.069  0.00  0.00     0.087 H 
BRANCH  31  33
ATOM     33  N   LEU d   1     -10.202   6.760  11.382  0.00  0.00    -0.346 N 
ATOM     34  C   GLU d   1      -8.900   6.843  11.095  0.00  0.00     0.241 C 
ATOM     35  O   GLU d   1      -8.239   5.869  10.736  0.00  0.00    -0.271 OA
ATOM     36  H48 LEU d   1     -10.694   7.593  11.635  0.00  0.00     0.163 HD
BRANCH  34  37
ATOM     37  CA  GLU d   1      -8.246   8.217  11.228  0.00  0.00     0.090 C 
ATOM     38  H43 GLU d   1      -7.239   8.168  10.787  0.00  0.00     0.087 H 
BRANCH  37  39
ATOM     39  N   GLU d   1      -9.033   9.203  10.506  0.00  0.00    -0.346 N 
ATOM     40  C   ARG d   1      -9.243   9.153   9.188  0.00  0.00     0.241 C 
ATOM     41  O   ARG d   1      -8.815   8.241   8.481  0.00  0.00    -0.271 OA
ATOM     42  H42 GLU d   1      -9.438   9.957  11.023  0.00  0.00     0.163 HD
BRANCH  40  43
ATOM     43  CA  ARG d   1     -10.094  10.282   8.589  0.00  0.00     0.089 C 
ATOM     44  H30 ARG d   1     -10.268  10.051   7.528  0.00  0.00     0.087 H 
BRANCH  43  45
ATOM     45  N   ARG d   1     -11.384  10.386   9.264  0.00  0.00    -0.346 N 
ATOM     46  C   LYS d   1     -12.149   9.334   9.569  0.00  0.00     0.241 C 
ATOM     47  O   LYS d   1     -11.845   8.187   9.266  0.00  0.00    -0.271 OA
ATOM     48  H29 ARG d   1     -11.714  11.297   9.512  0.00  0.00     0.163 HD
BRANCH  46  49
ATOM     49  CA  LYS d   1     -13.421   9.591  10.376  0.00  0.00     0.089 C 
ATOM     50  H17 LYS d   1     -13.775   8.620  10.752  0.00  0.00     0.087 H 
BRANCH  49  51
ATOM     51  N   LYS d   1     -13.163  10.441  11.534  0.00  0.00    -0.346 N 
ATOM     52  C   LYS d   1     -12.155  10.226  12.388  0.00  0.00     0.248 C 
ATOM     53  O   LYS d   1     -11.317   9.341  12.217  0.00  0.00    -0.271 OA
ATOM     54  H16 LYS d   1     -13.768  11.221  11.697  0.00  0.00     0.163 HD
BRANCH  52  55
ATOM     55  CA  LYS d   1     -12.082  11.127  13.624  0.00  0.00     0.176 C 
ATOM     56  H4  LYS d   1     -12.635  12.053  13.409  0.00  0.00     0.099 H 
BRANCH  55  57
ATOM     57  N   LYS d   1     -12.725  10.461  14.772  0.00  0.00    -0.067 N 
ATOM     58  H1  LYS d   1     -12.673  11.060  15.581  0.00  0.00     0.275 HD
ATOM     59  H2  LYS d   1     -12.251   9.593  14.966  0.00  0.00     0.275 HD
ATOM     60  H3  LYS d   1     -13.691  10.274  14.554  0.00  0.00     0.275 HD
ENDBRANCH  55  57
BRANCH  55  61
ATOM     61  CB  LYS d   1     -10.628  11.505  13.946  0.00  0.00    -0.030 C 
ATOM     62  H5  LYS d   1     -10.196  12.023  13.077  0.00  0.00     0.036 H 
ATOM     63  H6  LYS d   1     -10.059  10.585  14.145  0.00  0.00     0.036 H 
BRANCH  61  64
ATOM     64  CG  LYS d   1     -10.524  12.425  15.171  0.00  0.00    -0.061 C 
ATOM     65  H7  LYS d   1     -10.754  11.840  16.074  0.00  0.00     0.033 H 
ATOM     66  H8  LYS d   1     -11.256  13.239  15.065  0.00  0.00     0.033 H 
BRANCH  64  67
ATOM     67  CD  LYS d   1      -9.122  13.036  15.322  0.00  0.00    -0.043 C 
ATOM     68  H9  LYS d   1      -9.101  13.629  16.248  0.00  0.00     0.035 H 
ATOM     69  H10 LYS d   1      -8.937  13.694  14.460  0.00  0.00     0.035 H 
BRANCH  67  70
ATOM     70  CE  LYS d   1      -7.991  12.000  15.388  0.00  0.00     0.080 C 
ATOM     71  H11 LYS d   1      -7.040  12.526  15.556  0.00  0.00     0.075 H 
ATOM     72  H12 LYS d   1      -7.948  11.462  14.430  0.00  0.00     0.075 H 
BRANCH  70  73
ATOM     73  NZ  LYS d   1      -8.189  11.021  16.472  0.00  0.00    -0.079 N 
ATOM     74  H13 LYS d   1      -7.424  10.364  16.475  0.00  0.00     0.274 HD
ATOM     75  H14 LYS d   1      -9.055  10.527  16.325  0.00  0.00     0.274 HD
ATOM     76  H15 LYS d   1      -8.223  11.502  17.357  0.00  0.00     0.274 HD
ENDBRANCH  70  73
ENDBRANCH  67  70
ENDBRANCH  64  67
ENDBRANCH  61  64
ENDBRANCH  55  61
ENDBRANCH  52  55
ENDBRANCH  49  51
BRANCH  49  77
ATOM     77  CB  LYS d   1     -14.530  10.177   9.494  0.00  0.00    -0.038 C 
ATOM     78  H18 LYS d   1     -14.604   9.583   8.571  0.00  0.00     0.036 H 
ATOM     79  H19 LYS d   1     -14.274  11.217   9.242  0.00  0.00     0.036 H 
BRANCH  77  80
ATOM     80  CG  LYS d   1     -15.888  10.157  10.211  0.00  0.00    -0.061 C 
ATOM     81  H20 LYS d   1     -15.862  10.882  11.038  0.00  0.00     0.033 H 
ATOM     82  H21 LYS d   1     -16.060   9.148  10.614  0.00  0.00     0.033 H 
BRANCH  80  83
ATOM     83  CD  LYS d   1     -17.050  10.519   9.274  0.00  0.00    -0.043 C 
ATOM     84  H22 LYS d   1     -16.797  11.446   8.739  0.00  0.00     0.035 H 
ATOM     85  H23 LYS d   1     -17.954  10.681   9.879  0.00  0.00     0.035 H 
BRANCH  83  86
ATOM     86  CE  LYS d   1     -17.337   9.416   8.242  0.00  0.00     0.080 C 
ATOM     87  H24 LYS d   1     -17.459   8.457   8.767  0.00  0.00     0.075 H 
ATOM     88  H25 LYS d   1     -16.488   9.348   7.545  0.00  0.00     0.075 H 
BRANCH  86  89
ATOM     89  NZ  LYS d   1     -18.563   9.704   7.478  0.00  0.00    -0.079 N 
ATOM     90  H26 LYS d   1     -18.725   8.966   6.811  0.00  0.00     0.274 HD
ATOM     91  H27 LYS d   1     -18.457  10.580   6.990  0.00  0.00     0.274 HD
ATOM     92  H28 LYS d   1     -19.346   9.764   8.110  0.00  0.00     0.274 HD
ENDBRANCH  86  89
ENDBRANCH  83  86
ENDBRANCH  80  83
ENDBRANCH  77  80
ENDBRANCH  49  77
ENDBRANCH  46  49
ENDBRANCH  43  45
BRANCH  43  93
ATOM     93  CB  ARG d   1      -9.389  11.644   8.686  0.00  0.00    -0.036 C 
ATOM     94  H31 ARG d   1      -9.279  11.897   9.751  0.00  0.00     0.036 H 
ATOM     95  H32 ARG d   1     -10.026  12.394   8.195  0.00  0.00     0.036 H 
BRANCH  93  96
ATOM     96  CG  ARG d   1      -8.000  11.701   8.037  0.00  0.00    -0.048 C 
ATOM     97  H33 ARG d   1      -7.353  10.959   8.527  0.00  0.00     0.035 H 
ATOM     98  H34 ARG d   1      -7.583  12.708   8.189  0.00  0.00     0.035 H 
BRANCH  96  99
ATOM     99  CD  ARG d   1      -8.029  11.406   6.534  0.00  0.00     0.009 C 
ATOM    100  H35 ARG d   1      -8.869  11.946   6.073  0.00  0.00     0.064 H 
ATOM    101  H36 ARG d   1      -8.158  10.325   6.377  0.00  0.00     0.064 H 
BRANCH  99 102
ATOM    102  NE  ARG d   1      -6.769  11.842   5.913  0.00  0.00    -0.227 N 
ATOM    103  CZ  ARG d   1      -6.656  12.599   4.810  0.00  0.00     0.665 C 
ATOM    104  NH1 ARG d   1      -7.675  12.739   3.957  0.00  0.00    -0.235 N 
ATOM    105  NH2 ARG d   1      -5.500  13.225   4.562  0.00  0.00    -0.235 N 
ATOM    106  H38 ARG d   1      -7.566  13.325   3.117  0.00  0.00     0.174 HD
ATOM    107  H39 ARG d   1      -8.569  12.261   4.140  0.00  0.00     0.174 HD
ATOM    108  H40 ARG d   1      -4.709  13.123   5.214  0.00  0.00     0.174 HD
ATOM    109  H41 ARG d   1      -5.401  13.809   3.719  0.00  0.00     0.174 HD
ATOM    110  H37 ARG d   1      -5.894  11.539   6.365  0.00  0.00     0.177 HD
ENDBRANCH  99 102
ENDBRANCH  96  99
ENDBRANCH  93  96
ENDBRANCH  43  93
ENDBRANCH  40  43
ENDBRANCH  37  39
BRANCH  37 111
ATOM    111  CB  GLU d   1      -8.117   8.652  12.694  0.00  0.00    -0.029 C 
ATOM    112  H44 GLU d   1      -9.111   8.603  13.163  0.00  0.00     0.037 H 
ATOM    113  H45 GLU d   1      -7.749   9.688  12.721  0.00  0.00     0.037 H 
BRANCH 111 114
ATOM    114  CG  GLU d   1      -7.154   7.770  13.496  0.00  0.00     0.018 C 
ATOM    115  H46 GLU d   1      -6.151   7.825  13.047  0.00  0.00     0.049 H 
ATOM    116  H47 GLU d   1      -7.509   6.729  13.472  0.00  0.00     0.049 H 
BRANCH 114 117
ATOM    117  CD  GLU d   1      -7.085   8.246  14.944  0.00  0.00     0.172 C 
ATOM    118  OE1 GLU d   1      -7.947   7.800  15.732  0.00  0.00    -0.648 OA
ATOM    119  OE2 GLU d   1      -6.199   9.080  15.230  0.00  0.00    -0.648 OA
ENDBRANCH 114 117
ENDBRANCH 111 114
ENDBRANCH  37 111
ENDBRANCH  34  37
ENDBRANCH  31  33
BRANCH  31 120
ATOM    120  CB  LEU d   1     -12.398   5.708  11.747  0.00  0.00    -0.035 C 
ATOM    121  H50 LEU d   1     -12.923   4.746  11.656  0.00  0.00     0.037 H 
ATOM    122  H51 LEU d   1     -12.848   6.438  11.058  0.00  0.00     0.037 H 
BRANCH 120 123
ATOM    123  CG  LEU d   1     -12.580   6.225  13.185  0.00  0.00    -0.059 C 
ATOM    124  H52 LEU d   1     -11.992   7.147  13.303  0.00  0.00     0.038 H 
BRANCH 123 125
ATOM    125  CD1 LEU d   1     -14.061   6.537  13.426  0.00  0.00    -0.073 C 
ATOM    126  H53 LEU d   1     -14.195   6.907  14.453  0.00  0.00     0.028 H 
ATOM    127  H54 LEU d   1     -14.656   5.623  13.285  0.00  0.00     0.028 H 
ATOM    128  H55 LEU d   1     -14.395   7.305  12.713  0.00  0.00     0.028 H 
ENDBRANCH 123 125
BRANCH 123 129
ATOM    129  CD2 LEU d   1     -12.107   5.206  14.229  0.00  0.00    -0.073 C 
ATOM    130  H56 LEU d   1     -11.044   4.977  14.062  0.00  0.00     0.028 H 
ATOM    131  H57 LEU d   1     -12.700   4.284  14.136  0.00  0.00     0.028 H 
ATOM    132  H58 LEU d   1     -12.238   5.626  15.237  0.00  0.00     0.028 H 
ENDBRANCH 123 129
ENDBRANCH 120 123
ENDBRANCH  31 120
ENDBRANCH  28  31
ENDBRANCH  25  27
BRANCH  25 133
ATOM    133  CB  ILE d   1     -11.304   6.226   6.550  0.00  0.00    -0.030 C 
ATOM    134  H61 ILE d   1     -10.745   7.159   6.715  0.00  0.00     0.043 H 
BRANCH 133 135
ATOM    135  CG1 ILE d   1     -12.802   6.484   6.801  0.00  0.00    -0.063 C 
ATOM    136  H62 ILE d   1     -12.989   6.466   7.885  0.00  0.00     0.033 H 
ATOM    137  H63 ILE d   1     -13.386   5.688   6.315  0.00  0.00     0.033 H 
BRANCH 135 138
ATOM    138  CD1 ILE d   1     -13.254   7.840   6.244  0.00  0.00    -0.076 C 
ATOM    139  H67 ILE d   1     -14.326   7.980   6.446  0.00  0.00     0.027 H 
ATOM    140  H68 ILE d   1     -13.079   7.867   5.159  0.00  0.00     0.027 H 
ATOM    141  H69 ILE d   1     -12.681   8.645   6.729  0.00  0.00     0.027 H 
ENDBRANCH 135 138
ENDBRANCH 133 135
BRANCH 133 142
ATOM    142  CG2 ILE d   1     -11.107   5.770   5.098  0.00  0.00    -0.071 C 
ATOM    143  H64 ILE d   1     -10.039   5.584   4.914  0.00  0.00     0.028 H 
ATOM    144  H65 ILE d   1     -11.466   6.554   4.415  0.00  0.00     0.028 H 
ATOM    145  H66 ILE d   1     -11.675   4.844   4.924  0.00  0.00     0.028 H 
ENDBRANCH 133 142
ENDBRANCH  25 133
ENDBRANCH  22  25
ENDBRANCH  19  21
BRANCH  19 146
ATOM    146  CB  GLU d   1      -6.094   6.396   7.868  0.00  0.00    -0.029 C 
ATOM    147  H72 GLU d   1      -5.055   6.054   7.985  0.00  0.00     0.037 H 
ATOM    148  H73 GLU d   1      -6.487   6.714   8.845  0.00  0.00     0.037 H 
BRANCH 146 149
ATOM    149  CG  GLU d   1      -6.123   7.592   6.901  0.00  0.00     0.018 C 
ATOM    150  H74 GLU d   1      -7.171   7.825   6.660  0.00  0.00     0.049 H 
ATOM    151  H75 GLU d   1      -5.588   7.314   5.981  0.00  0.00     0.049 H 
BRANCH 149 152
ATOM    152  CD  GLU d   1      -5.467   8.841   7.490  0.00  0.00     0.172 C 
ATOM    153  OE1 GLU d   1      -5.579   9.028   8.722  0.00  0.00    -0.648 OA
ATOM    154  OE2 GLU d   1      -4.871   9.600   6.696  0.00  0.00    -0.648 OA
ENDBRANCH 149 152
ENDBRANCH 146 149
ENDBRANCH  19 146
ENDBRANCH  16  19
ENDBRANCH  13  15
BRANCH  13 155
ATOM    155  CB  SER d   1      -7.844   2.576  11.333  0.00  0.00     0.044 C 
ATOM    156  H78 SER d   1      -7.716   1.637  11.891  0.00  0.00     0.077 H 
ATOM    157  H79 SER d   1      -8.909   2.723  11.102  0.00  0.00     0.077 H 
BRANCH 155 158
ATOM    158  OG  SER d   1      -7.384   3.654  12.122  0.00  0.00    -0.398 OA
ATOM    159  H80 SER d   1      -7.495   4.466  11.642  0.00  0.00     0.209 HD
ENDBRANCH 155 158
ENDBRANCH  13 155
ENDBRANCH  10  13
ENDBRANCH   7   9
BRANCH   7 160
ATOM    160  CB  LYS d   1     -10.070   0.511   6.718  0.00  0.00    -0.038 C 
ATOM    161  H83 LYS d   1     -10.369  -0.384   6.153  0.00  0.00     0.036 H 
ATOM    162  H84 LYS d   1      -9.930   1.353   6.024  0.00  0.00     0.036 H 
BRANCH 160 163
ATOM    163  CG  LYS d   1     -11.182   0.866   7.714  0.00  0.00    -0.061 C 
ATOM    164  H85 LYS d   1     -10.871   1.741   8.303  0.00  0.00     0.033 H 
ATOM    165  H86 LYS d   1     -11.349   0.012   8.386  0.00  0.00     0.033 H 
BRANCH 163 166
ATOM    166  CD  LYS d   1     -12.490   1.192   6.984  0.00  0.00    -0.043 C 
ATOM    167  H87 LYS d   1     -12.784   0.325   6.374  0.00  0.00     0.035 H 
ATOM    168  H88 LYS d   1     -12.327   2.062   6.330  0.00  0.00     0.035 H 
BRANCH 166 169
ATOM    169  CE  LYS d   1     -13.621   1.515   7.970  0.00  0.00     0.080 C 
ATOM    170  H89 LYS d   1     -13.729   0.675   8.671  0.00  0.00     0.075 H 
ATOM    171  H90 LYS d   1     -14.556   1.644   7.405  0.00  0.00     0.075 H 
BRANCH 169 172
ATOM    172  NZ  LYS d   1     -13.359   2.745   8.741  0.00  0.00    -0.079 N 
ATOM    173  H91 LYS d   1     -14.126   2.916   9.373  0.00  0.00     0.274 HD
ATOM    174  H92 LYS d   1     -13.265   3.524   8.109  0.00  0.00     0.274 HD
ATOM    175  H93 LYS d   1     -12.507   2.636   9.269  0.00  0.00     0.274 HD
ENDBRANCH 169 172
ENDBRANCH 166 169
ENDBRANCH 163 166
ENDBRANCH 160 163
ENDBRANCH   7 160
ENDBRANCH   4   7
ENDBRANCH   1   3
BRANCH   1 176
ATOM    176  C   TRP d   1      -4.777  -0.006   5.746  0.00  0.00     0.241 C 
ATOM    177  O   TRP d   1      -4.177  -1.011   5.363  0.00  0.00    -0.271 OA
ATOM    178  N   HIS d   1      -4.546   0.585   6.923  0.00  0.00    -0.346 N 
ATOM    179 4H10 HIS d   1      -5.026   1.437   7.132  0.00  0.00     0.163 HD
BRANCH 178 180
ATOM    180  CA  HIS d   1      -3.626   0.044   7.915  0.00  0.00     0.094 C 
ATOM    181 5H10 HIS d   1      -2.618   0.064   7.474  0.00  0.00     0.088 H 
BRANCH 180 182
ATOM    182  C   HIS d   1      -3.943  -1.430   8.181  0.00  0.00     0.241 C 
ATOM    183  O   HIS d   1      -3.081  -2.294   8.039  0.00  0.00    -0.271 OA
ATOM    184  N   ARG d   1      -5.195  -1.735   8.517  0.00  0.00    -0.346 N 
ATOM    185 1H11 ARG d   1      -5.885  -1.012   8.496  0.00  0.00     0.163 HD
BRANCH 184 186
ATOM    186  CA  ARG d   1      -5.601  -3.070   8.912  0.00  0.00     0.089 C 
ATOM    187 2H11 ARG d   1      -4.935  -3.388   9.727  0.00  0.00     0.087 H 
BRANCH 186 188
ATOM    188  C   ARG d   1      -5.437  -4.084   7.781  0.00  0.00     0.241 C 
ATOM    189  O   ARG d   1      -5.015  -5.202   8.055  0.00  0.00    -0.271 OA
ATOM    190  N   LEU d   1      -5.783  -3.734   6.534  0.00  0.00    -0.346 N 
ATOM    191 4H12 LEU d   1      -6.081  -2.797   6.350  0.00  0.00     0.163 HD
BRANCH 190 192
ATOM    192  CA  LEU d   1      -5.731  -4.703   5.437  0.00  0.00     0.089 C 
ATOM    193 5H12 LEU d   1      -6.446  -5.508   5.665  0.00  0.00     0.087 H 
BRANCH 192 194
ATOM    194  C   LEU d   1      -4.332  -5.311   5.321  0.00  0.00     0.241 C 
ATOM    195  O   LEU d   1      -4.175  -6.528   5.266  0.00  0.00    -0.271 OA
ATOM    196  N   LEU d   1      -3.309  -4.458   5.246  0.00  0.00    -0.346 N 
ATOM    197 5H13 LEU d   1      -3.489  -3.475   5.292  0.00  0.00     0.163 HD
BRANCH 196 198
ATOM    198  CA  LEU d   1      -1.937  -4.922   5.099  0.00  0.00     0.089 C 
ATOM    199 6H13 LEU d   1      -1.935  -5.794   4.428  0.00  0.00     0.087 H 
BRANCH 198 200
ATOM    200  C   LEU d   1      -1.393  -5.376   6.450  0.00  0.00     0.241 C 
ATOM    201  O   LEU d   1      -0.845  -6.471   6.549  0.00  0.00    -0.271 OA
ATOM    202  N   PHE d   1      -1.586  -4.593   7.516  0.00  0.00    -0.346 N 
ATOM    203 6H14 PHE d   1      -2.065  -3.723   7.397  0.00  0.00     0.163 HD
BRANCH 202 204
ATOM    204  CA  PHE d   1      -1.119  -4.967   8.852  0.00  0.00     0.093 C 
ATOM    205 7H14 PHE d   1      -0.117  -5.410   8.750  0.00  0.00     0.088 H 
BRANCH 204 206
ATOM    206  C   PHE d   1      -2.053  -6.011   9.493  0.00  0.00     0.241 C 
ATOM    207  O   PHE d   1      -2.285  -5.969  10.702  0.00  0.00    -0.271 OA
ATOM    208  N   HIS d   1      -2.588  -6.969   8.729  0.00  0.00    -0.346 N 
ATOM    209 5H15 HIS d   1      -2.347  -7.004   7.759  0.00  0.00     0.163 HD
BRANCH 208 210
ATOM    210  CA  HIS d   1      -3.510  -7.964   9.260  0.00  0.00     0.094 C 
ATOM    211 6H15 HIS d   1      -4.118  -7.497  10.049  0.00  0.00     0.088 H 
BRANCH 210 212
ATOM    212  C   HIS d   1      -2.699  -9.097   9.888  0.00  0.00     0.241 C 
ATOM    213  O   HIS d   1      -2.751 -10.242   9.437  0.00  0.00    -0.271 OA
ATOM    214  N   ASP d   1      -1.905  -8.752  10.906  0.00  0.00    -0.345 N 
ATOM    215 2H16 ASP d   1      -1.995  -7.825  11.270  0.00  0.00     0.163 HD
BRANCH 214 216
ATOM    216  CA  ASP d   1      -0.918  -9.626  11.525  0.00  0.00     0.098 C 
ATOM    217 3H16 ASP d   1      -0.297 -10.066  10.731  0.00  0.00     0.088 H 
BRANCH 216 218
ATOM    218  C   ASP d   1      -1.610 -10.767  12.270  0.00  0.00     0.241 C 
ATOM    219  O   ASP d   1      -1.753 -10.727  13.491  0.00  0.00    -0.271 OA
ATOM    220  N   LYS d   1      -2.045 -11.778  11.511  0.00  0.00    -0.346 N 
ATOM    221 6H16 LYS d   1      -1.764 -11.769  10.551  0.00  0.00     0.163 HD
BRANCH 220 222
ATOM    222  CA  LYS d   1      -2.883 -12.889  11.933  0.00  0.00     0.089 C 
ATOM    223 7H16 LYS d   1      -3.007 -13.557  11.068  0.00  0.00     0.087 H 
BRANCH 222 224
ATOM    224  C   LYS d   1      -4.263 -12.343  12.299  0.00  0.00     0.241 C 
ATOM    225  O   LYS d   1      -5.225 -12.542  11.561  0.00  0.00    -0.271 OA
ATOM    226  N   LYS d   1      -4.346 -11.617  13.413  0.00  0.00    -0.345 N 
ATOM    227 9H17 LYS d   1      -3.540 -11.556  14.002  0.00  0.00     0.163 HD
BRANCH 226 228
ATOM    228  CA  LYS d   1      -5.551 -10.910  13.814  0.00  0.00     0.096 C 
ATOM    229 0H18 LYS d   1      -6.393 -11.618  13.813  0.00  0.00     0.089 H 
BRANCH 228 230
ATOM    230  C   LYS d   1      -5.863  -9.783  12.824  0.00  0.00     0.196 C 
ATOM    231  O   LYS d   1      -4.915  -9.289  12.173  0.00  0.00    -0.646 OA
ATOM    232  OXT LYS d   1      -7.053  -9.403  12.757  0.00  0.00    -0.646 OA
ENDBRANCH 228 230
BRANCH 228 233
ATOM    233  CB  LYS d   1      -5.375 -10.358  15.236  0.00  0.00    -0.037 C 
ATOM    234 1H18 LYS d   1      -6.270  -9.780  15.508  0.00  0.00     0.036 H 
ATOM    235 2H18 LYS d   1      -4.493  -9.701  15.258  0.00  0.00     0.036 H 
BRANCH 233 236
ATOM    236  CG  LYS d   1      -5.181 -11.487  16.258  0.00  0.00    -0.061 C 
ATOM    237 3H18 LYS d   1      -4.338 -12.115  15.934  0.00  0.00     0.033 H 
ATOM    238 4H18 LYS d   1      -6.098 -12.094  16.292  0.00  0.00     0.033 H 
BRANCH 236 239
ATOM    239  CD  LYS d   1      -4.888 -10.958  17.670  0.00  0.00    -0.043 C 
ATOM    240 5H18 LYS d   1      -4.009 -10.299  17.624  0.00  0.00     0.035 H 
ATOM    241 6H18 LYS d   1      -4.672 -11.812  18.329  0.00  0.00     0.035 H 
BRANCH 239 242
ATOM    242  CE  LYS d   1      -6.064 -10.169  18.258  0.00  0.00     0.080 C 
ATOM    243 7H18 LYS d   1      -6.973 -10.786  18.204  0.00  0.00     0.075 H 
ATOM    244 8H18 LYS d   1      -6.209  -9.250  17.671  0.00  0.00     0.075 H 
BRANCH 242 245
ATOM    245  NZ  LYS d   1      -5.813  -9.806  19.663  0.00  0.00    -0.079 N 
ATOM    246 9H18 LYS d   1      -6.601  -9.290  20.022  0.00  0.00     0.274 HD
ATOM    247 0H19 LYS d   1      -4.983  -9.236  19.720  0.00  0.00     0.274 HD
ATOM    248 1H19 LYS d   1      -5.683 -10.644  20.209  0.00  0.00     0.274 HD
ENDBRANCH 242 245
ENDBRANCH 239 242
ENDBRANCH 236 239
ENDBRANCH 233 236
ENDBRANCH 228 233
ENDBRANCH 226 228
ENDBRANCH 222 224
BRANCH 222 249
ATOM    249  CB  LYS d   1      -2.259 -13.736  13.059  0.00  0.00    -0.038 C 
ATOM    250 8H16 LYS d   1      -3.016 -14.455  13.405  0.00  0.00     0.036 H 
ATOM    251 9H16 LYS d   1      -1.990 -13.061  13.885  0.00  0.00     0.036 H 
BRANCH 249 252
ATOM    252  CG  LYS d   1      -1.000 -14.524  12.658  0.00  0.00    -0.061 C 
ATOM    253 0H17 LYS d   1      -1.200 -15.038  11.706  0.00  0.00     0.033 H 
ATOM    254 1H17 LYS d   1      -0.792 -15.269  13.440  0.00  0.00     0.033 H 
BRANCH 252 255
ATOM    255  CD  LYS d   1       0.247 -13.643  12.482  0.00  0.00    -0.043 C 
ATOM    256 2H17 LYS d   1       0.346 -12.989  13.361  0.00  0.00     0.035 H 
ATOM    257 3H17 LYS d   1       0.122 -13.027  11.579  0.00  0.00     0.035 H 
BRANCH 255 258
ATOM    258  CE  LYS d   1       1.528 -14.478  12.339  0.00  0.00     0.080 C 
ATOM    259 4H17 LYS d   1       2.359 -13.808  12.072  0.00  0.00     0.075 H 
ATOM    260 5H17 LYS d   1       1.381 -15.217  11.538  0.00  0.00     0.075 H 
BRANCH 258 261
ATOM    261  NZ  LYS d   1       1.873 -15.189  13.582  0.00  0.00    -0.079 N 
ATOM    262 6H17 LYS d   1       2.717 -15.722  13.441  0.00  0.00     0.274 HD
ATOM    263 7H17 LYS d   1       1.121 -15.812  13.833  0.00  0.00     0.274 HD
ATOM    264 8H17 LYS d   1       2.017 -14.521  14.323  0.00  0.00     0.274 HD
ENDBRANCH 258 261
ENDBRANCH 255 258
ENDBRANCH 252 255
ENDBRANCH 249 252
ENDBRANCH 222 249
ENDBRANCH 220 222
ENDBRANCH 216 218
BRANCH 216 265
ATOM    265  CB  ASP d   1      -0.004  -8.808  12.448  0.00  0.00     0.043 C 
ATOM    266 4H16 ASP d   1       0.652  -9.496  13.002  0.00  0.00     0.052 H 
ATOM    267 5H16 ASP d   1      -0.627  -8.244  13.158  0.00  0.00     0.052 H 
BRANCH 265 268
ATOM    268  CG  ASP d   1       0.859  -7.829  11.661  0.00  0.00     0.175 C 
ATOM    269  OD1 ASP d   1       1.858  -8.300  11.075  0.00  0.00    -0.648 OA
ATOM    270  OD2 ASP d   1       0.503  -6.631  11.650  0.00  0.00    -0.648 OA
ENDBRANCH 265 268
ENDBRANCH 216 265
ENDBRANCH 214 216
ENDBRANCH 210 212
BRANCH 210 271
ATOM    271  CB  HIS d   1      -4.460  -8.455   8.162  0.00  0.00     0.002 C 
ATOM    272 7H15 HIS d   1      -3.915  -9.153   7.510  0.00  0.00     0.046 H 
ATOM    273 8H15 HIS d   1      -4.796  -7.589   7.573  0.00  0.00     0.046 H 
BRANCH 271 274
ATOM    274  CG  HIS d   1      -5.670  -9.159   8.720  0.00  0.00     0.030 A 
ATOM    275  ND1 HIS d   1      -5.697 -10.431   9.247  0.00  0.00    -0.353 N 
ATOM    276  CE1 HIS d   1      -6.959 -10.670   9.648  0.00  0.00     0.063 A 
ATOM    277 9H15 HIS d   1      -4.900 -11.079   9.320  0.00  0.00     0.166 HD
ATOM    278  NE2 HIS d   1      -7.743  -9.601   9.427  0.00  0.00    -0.254 NA
ATOM    279 1H16 HIS d   1      -7.299 -11.604  10.092  0.00  0.00     0.143 H 
ATOM    280  CD2 HIS d   1      -6.926  -8.628   8.845  0.00  0.00     0.025 A 
ATOM    281 0H16 HIS d   1      -7.233  -7.627   8.545  0.00  0.00     0.117 H 
ENDBRANCH 271 274
ENDBRANCH 210 271
ENDBRANCH 208 210
ENDBRANCH 204 206
BRANCH 204 282
ATOM    282  CB  PHE d   1      -1.018  -3.744   9.786  0.00  0.00    -0.014 C 
ATOM    283 8H14 PHE d   1      -0.538  -4.096  10.711  0.00  0.00     0.043 H 
ATOM    284 9H14 PHE d   1      -2.050  -3.432  10.004  0.00  0.00     0.043 H 
BRANCH 282 285
ATOM    285  CG  PHE d   1      -0.267  -2.488   9.361  0.00  0.00    -0.056 A 
ATOM    286  CD1 PHE d   1       0.492  -2.400   8.177  0.00  0.00    -0.077 A 
ATOM    287  CE1 PHE d   1       1.074  -1.173   7.802  0.00  0.00    -0.082 A 
ATOM    288 0H15 PHE d   1       0.628  -3.277   7.554  0.00  0.00     0.084 H 
ATOM    289  CZ  PHE d   1       0.911  -0.035   8.613  0.00  0.00    -0.083 A 
ATOM    290 2H15 PHE d   1       1.649  -1.105   6.886  0.00  0.00     0.083 H 
ATOM    291  CE2 PHE d   1       0.239  -0.145   9.836  0.00  0.00    -0.082 A 
ATOM    292 4H15 PHE d   1       1.304   0.923   8.292  0.00  0.00     0.083 H 
ATOM    293  CD2 PHE d   1      -0.355  -1.363  10.204  0.00  0.00    -0.077 A 
ATOM    294 3H15 PHE d   1       0.177   0.710  10.499  0.00  0.00     0.083 H 
ATOM    295 1H15 PHE d   1      -0.886  -1.438  11.146  0.00  0.00     0.084 H 
ENDBRANCH 282 285
ENDBRANCH 204 282
ENDBRANCH 202 204
ENDBRANCH 198 200
BRANCH 198 296
ATOM    296  CB  LEU d   1      -1.095  -3.825   4.442  0.00  0.00    -0.035 C 
ATOM    297 7H13 LEU d   1      -0.026  -4.035   4.593  0.00  0.00     0.037 H 
ATOM    298 8H13 LEU d   1      -1.343  -2.849   4.885  0.00  0.00     0.037 H 
BRANCH 296 299
ATOM    299  CG  LEU d   1      -1.416  -3.812   2.938  0.00  0.00    -0.059 C 
ATOM    300 9H13 LEU d   1      -2.429  -4.222   2.811  0.00  0.00     0.038 H 
BRANCH 299 301
ATOM    301  CD1 LEU d   1      -1.413  -2.399   2.354  0.00  0.00    -0.073 C 
ATOM    302 0H14 LEU d   1      -1.647  -2.446   1.280  0.00  0.00     0.028 H 
ATOM    303 1H14 LEU d   1      -0.420  -1.947   2.493  0.00  0.00     0.028 H 
ATOM    304 2H14 LEU d   1      -2.170  -1.788   2.868  0.00  0.00     0.028 H 
ENDBRANCH 299 301
BRANCH 299 305
ATOM    305  CD2 LEU d   1      -0.443  -4.712   2.169  0.00  0.00    -0.073 C 
ATOM    306 3H14 LEU d   1      -0.458  -5.723   2.602  0.00  0.00     0.028 H 
ATOM    307 4H14 LEU d   1       0.574  -4.298   2.240  0.00  0.00     0.028 H 
ATOM    308 5H14 LEU d   1      -0.746  -4.761   1.113  0.00  0.00     0.028 H 
ENDBRANCH 299 305
ENDBRANCH 296 299
ENDBRANCH 198 296
ENDBRANCH 196 198
ENDBRANCH 192 194
BRANCH 192 309
ATOM    309  CB  LEU d   1      -6.117  -4.088   4.080  0.00  0.00    -0.035 C 
ATOM    310 6H12 LEU d   1      -5.867  -4.824   3.302  0.00  0.00     0.037 H 
ATOM    311 7H12 LEU d   1      -5.504  -3.185   3.941  0.00  0.00     0.037 H 
BRANCH 309 312
ATOM    312  CG  LEU d   1      -7.586  -3.683   3.875  0.00  0.00    -0.059 C 
ATOM    313 8H12 LEU d   1      -7.785  -2.807   4.510  0.00  0.00     0.038 H 
BRANCH 312 314
ATOM    314  CD1 LEU d   1      -7.780  -3.283   2.405  0.00  0.00    -0.073 C 
ATOM    315 9H12 LEU d   1      -8.827  -2.990   2.240  0.00  0.00     0.028 H 
ATOM    316 0H13 LEU d   1      -7.532  -4.136   1.757  0.00  0.00     0.028 H 
ATOM    317 1H13 LEU d   1      -7.120  -2.436   2.165  0.00  0.00     0.028 H 
ENDBRANCH 312 314
BRANCH 312 318
ATOM    318  CD2 LEU d   1      -8.603  -4.765   4.248  0.00  0.00    -0.073 C 
ATOM    319 2H13 LEU d   1      -8.464  -5.051   5.301  0.00  0.00     0.028 H 
ATOM    320 3H13 LEU d   1      -8.454  -5.646   3.606  0.00  0.00     0.028 H 
ATOM    321 4H13 LEU d   1      -9.622  -4.375   4.106  0.00  0.00     0.028 H 
ENDBRANCH 312 318
ENDBRANCH 309 312
ENDBRANCH 192 309
ENDBRANCH 190 192
ENDBRANCH 186 188
BRANCH 186 322
ATOM    322  CB  ARG d   1      -7.029  -3.046   9.471  0.00  0.00    -0.036 C 
ATOM    323 3H11 ARG d   1      -7.713  -2.663   8.699  0.00  0.00     0.036 H 
ATOM    324 4H11 ARG d   1      -7.061  -2.385  10.350  0.00  0.00     0.036 H 
BRANCH 322 325
ATOM    325  CG  ARG d   1      -7.474  -4.453   9.883  0.00  0.00    -0.048 C 
ATOM    326 5H11 ARG d   1      -6.626  -4.976  10.349  0.00  0.00     0.035 H 
ATOM    327 6H11 ARG d   1      -7.797  -5.004   8.988  0.00  0.00     0.035 H 
BRANCH 325 328
ATOM    328  CD  ARG d   1      -8.636  -4.395  10.881  0.00  0.00     0.009 C 
ATOM    329 7H11 ARG d   1      -9.410  -3.717  10.491  0.00  0.00     0.064 H 
ATOM    330 8H11 ARG d   1      -8.264  -4.012  11.843  0.00  0.00     0.064 H 
BRANCH 328 331
ATOM    331  NE  ARG d   1      -9.225  -5.724  11.091  0.00  0.00    -0.227 N 
ATOM    332  CZ  ARG d   1      -8.607  -6.773  11.652  0.00  0.00     0.665 C 
ATOM    333  NH1 ARG d   1      -7.398  -6.647  12.206  0.00  0.00    -0.235 N 
ATOM    334  NH2 ARG d   1      -9.187  -7.975  11.653  0.00  0.00    -0.235 N 
ATOM    335 0H12 ARG d   1      -6.939  -7.465  12.632  0.00  0.00     0.174 HD
ATOM    336 1H12 ARG d   1      -6.925  -5.732  12.207  0.00  0.00     0.174 HD
ATOM    337 2H12 ARG d   1     -10.119  -8.098  11.232  0.00  0.00     0.174 HD
ATOM    338 3H12 ARG d   1      -8.703  -8.780  12.075  0.00  0.00     0.174 HD
ATOM    339 9H11 ARG d   1     -10.197  -5.862  10.780  0.00  0.00     0.177 HD
ENDBRANCH 328 331
ENDBRANCH 325 328
ENDBRANCH 322 325
ENDBRANCH 186 322
ENDBRANCH 184 186
ENDBRANCH 180 182
BRANCH 180 340
ATOM    340  CB  HIS d   1      -3.573   0.973   9.148  0.00  0.00     0.002 C 
ATOM    341 6H10 HIS d   1      -4.420   1.671   9.068  0.00  0.00     0.046 H 
ATOM    342 7H10 HIS d   1      -2.629   1.534   9.093  0.00  0.00     0.046 H 
BRANCH 340 343
ATOM    343  CG  HIS d   1      -3.641   0.341  10.522  0.00  0.00     0.030 A 
ATOM    344  ND1 HIS d   1      -4.720  -0.325  11.058  0.00  0.00    -0.353 N 
ATOM    345  CE1 HIS d   1      -4.454  -0.574  12.350  0.00  0.00     0.063 A 
ATOM    346 8H10 HIS d   1      -5.580  -0.586  10.556  0.00  0.00     0.166 HD
ATOM    347  NE2 HIS d   1      -3.266  -0.056  12.695  0.00  0.00    -0.254 NA
ATOM    348 0H11 HIS d   1      -5.112  -1.121  13.024  0.00  0.00     0.143 H 
ATOM    349  CD2 HIS d   1      -2.756   0.552  11.546  0.00  0.00     0.025 A 
ATOM    350 9H10 HIS d   1      -1.817   1.099  11.476  0.00  0.00     0.117 H 
ENDBRANCH 340 343
ENDBRANCH 180 340
ENDBRANCH 178 180
ENDBRANCH   1 176
BRANCH   1 351
ATOM    351  CB  TRP d   1      -5.430   1.904   4.213  0.00  0.00    -0.012 C 
ATOM    352  H96 TRP d   1      -4.462   1.707   3.729  0.00  0.00     0.044 H 
ATOM    353  H97 TRP d   1      -5.298   2.659   5.002  0.00  0.00     0.044 H 
BRANCH 351 354
ATOM    354  CG  TRP d   1      -6.345   2.486   3.177  0.00  0.00    -0.028 A 
ATOM    355  CD1 TRP d   1      -6.923   3.706   3.238  0.00  0.00    -0.015 A 
ATOM    356  NE1 TRP d   1      -7.655   3.938   2.092  0.00  0.00    -0.365 N 
ATOM    357  H98 TRP d   1      -6.825   4.403   4.069  0.00  0.00     0.112 H 
ATOM    358  CE2 TRP d   1      -7.486   2.925   1.176  0.00  0.00     0.042 A 
ATOM    359  H99 TRP d   1      -8.252   4.764   1.941  0.00  0.00     0.165 HD
ATOM    360  CD2 TRP d   1      -6.660   1.974   1.847  0.00  0.00    -0.002 A 
ATOM    361  CZ2 TRP d   1      -7.936   2.739  -0.137  0.00  0.00    -0.056 A 
ATOM    362  CE3 TRP d   1      -6.289   0.824   1.120  0.00  0.00    -0.070 A 
ATOM    363  CZ3 TRP d   1      -6.690   0.657  -0.220  0.00  0.00    -0.082 A 
ATOM    364 0H10 TRP d   1      -5.688   0.059   1.598  0.00  0.00     0.084 H 
ATOM    365  CH2 TRP d   1      -7.538   1.592  -0.835  0.00  0.00    -0.081 A 
ATOM    366 2H10 TRP d   1      -6.340  -0.202  -0.782  0.00  0.00     0.083 H 
ATOM    367 3H10 TRP d   1      -7.884   1.426  -1.849  0.00  0.00     0.083 H 
ATOM    368 1H10 TRP d   1      -8.583   3.472  -0.606  0.00  0.00     0.086 H 
ENDBRANCH 351 354
ENDBRANCH   1 351
TORSDOF 105
