REMARK  6 active torsions:
REMARK  status: ('A' for Active; 'I' for Inactive)
REMARK    1  A    between atoms: CA_2  and  N_1 
REMARK    2  A    between atoms: CA_2  and  CB_3 
REMARK    3  A    between atoms: C_11  and  CA_2 
REMARK    4  A    between atoms: CB_3  and  CG_4 
REMARK       I    between atoms: N_16  and  C_11 
REMARK    5  A    between atoms: C_14  and  NA_13 
REMARK    6  A    between atoms: CA_15  and  C_14 
ROOT
ATOM      1  C   PHI d   1      -6.333  18.924   4.790  0.00  0.00     0.251 C 
ATOM      2  O   PHI d   1      -5.253  18.771   4.210  0.00  0.00    -0.271 OA
ATOM      3  H16 PHI d   1      -6.802  16.525   3.448  0.00  0.00     0.075 H 
ATOM      4  H17 PHI d   1      -8.932  19.454   5.395  0.00  0.00     0.064 H 
ATOM      5  H18 PHI d   1      -8.811  17.752   5.957  0.00  0.00     0.064 H 
ATOM      6  H19 PHI d   1      -9.795  18.765   3.220  0.00  0.00     0.035 H 
ATOM      7  H20 PHI d   1     -10.672  17.716   4.385  0.00  0.00     0.035 H 
ATOM      8  H21 PHI d   1      -8.957  15.951   4.188  0.00  0.00     0.036 H 
ATOM      9  H22 PHI d   1      -9.346  16.442   2.504  0.00  0.00     0.036 H 
ATOM     10  CA  P2Y d   1      -7.543  17.325   3.303  0.00  0.00     0.037 C 
ATOM     11  N   P2Y d   1      -7.443  18.284   4.402  0.00  0.00    -0.344 N 
ATOM     12  CD  P2Y d   1      -8.743  18.416   5.083  0.00  0.00    -0.002 C 
ATOM     13  CG  P2Y d   1      -9.682  17.988   3.990  0.00  0.00    -0.048 C 
ATOM     14  CB  P2Y d   1      -8.934  16.781   3.466  0.00  0.00    -0.043 C 
ENDROOT
BRANCH   1  15
ATOM     15  CA  PHI d   1      -6.496  19.885   5.974  0.00  0.00     0.179 C 
ATOM     16  H4  PHI d   1      -7.496  20.339   5.912  0.00  0.00     0.099 H 
BRANCH  15  17
ATOM     17  N   PHI d   1      -6.408  19.179   7.257  0.00  0.00    -0.066 N 
ATOM     18  H1  PHI d   1      -6.519  19.838   8.011  0.00  0.00     0.275 HD
ATOM     19  H2  PHI d   1      -5.509  18.730   7.333  0.00  0.00     0.275 HD
ATOM     20  H3  PHI d   1      -7.136  18.484   7.309  0.00  0.00     0.275 HD
ENDBRANCH  15  17
BRANCH  15  21
ATOM     21  CB  PHI d   1      -5.463  21.001   5.859  0.00  0.00    -0.006 C 
ATOM     22  H5  PHI d   1      -5.501  21.390   4.831  0.00  0.00     0.043 H 
ATOM     23  H6  PHI d   1      -4.472  20.563   6.049  0.00  0.00     0.043 H 
BRANCH  21  24
ATOM     24  CG  PHI d   1      -5.643  22.188   6.817  0.00  0.00    -0.056 A 
ATOM     25  CD1 PHI d   1      -6.730  23.067   6.695  0.00  0.00    -0.076 A 
ATOM     26  CE1 PHI d   1      -6.901  24.140   7.589  0.00  0.00    -0.067 A 
ATOM     27  H7  PHI d   1      -7.450  22.917   5.899  0.00  0.00     0.084 H 
ATOM     28  CZ  PHI d   1      -5.970  24.331   8.612  0.00  0.00     0.006 A 
ATOM     29  H9  PHI d   1      -7.746  24.811   7.485  0.00  0.00     0.085 H 
ATOM     30  CE2 PHI d   1      -4.898  23.480   8.743  0.00  0.00    -0.067 A 
ATOM     31  I   PHI d   1      -6.197  25.918   9.951  0.00  0.00    -0.045 I 
ATOM     32  CD2 PHI d   1      -4.734  22.418   7.855  0.00  0.00    -0.076 A 
ATOM     33  H10 PHI d   1      -4.178  23.635   9.539  0.00  0.00     0.085 H 
ATOM     34  H8  PHI d   1      -3.884  21.756   7.971  0.00  0.00     0.084 H 
ENDBRANCH  21  24
ENDBRANCH  15  21
ENDBRANCH   1  15
BRANCH  10  35
ATOM     35  C   P2Y d   1      -7.336  17.901   1.914  0.00  0.00     0.098 C 
ATOM     36  H14 PHI d   1      -6.250  17.903   1.738  0.00  0.00     0.078 H 
ATOM     37  H15 PHI d   1      -7.820  17.204   1.214  0.00  0.00     0.078 H 
BRANCH  35  38
ATOM     38  NA  P2Y d   1      -7.777  19.134   1.589  0.00  0.00    -0.077 N 
ATOM     39  H11 PHI d   1      -7.544  19.332   0.628  0.00  0.00     0.274 HD
ATOM     40  H12 PHI d   1      -7.339  19.816   2.188  0.00  0.00     0.274 HD
ATOM     41  H13 PHI d   1      -8.777  19.175   1.708  0.00  0.00     0.274 HD
ENDBRANCH  35  38
ENDBRANCH  10  35
TORSDOF 6
