REMARK WARNING: 32 MAX_TORS EXCEEDED!!!
REMARK  61 active torsions:
REMARK  status: ('A' for Active; 'I' for Inactive)
REMARK    1  A    between atoms: N_1  and  CA_2 
REMARK    2  A    between atoms: CA_2  and  C_3 
REMARK    3  A    between atoms: CA_2  and  CB_5 
REMARK       I    between atoms: C_3  and  N_10 
REMARK    4  A    between atoms: CB_5  and  CG_6 
REMARK    5  A    between atoms: CG_6  and  CD_7 
REMARK    6  A    between atoms: N_10  and  CA_11 
REMARK    7  A    between atoms: CA_11  and  C_12 
REMARK    8  A    between atoms: CA_11  and  CB_14 
REMARK       I    between atoms: C_12  and  N_18 
REMARK    9  A    between atoms: CB_14  and  CG_15 
REMARK       I    between atoms: CG_15  and  ND2_17 
REMARK   10  A    between atoms: N_18  and  CA_19 
REMARK   11  A    between atoms: CA_19  and  C_20 
REMARK   12  A    between atoms: CA_19  and  CB_22 
REMARK       I    between atoms: C_20  and  N_23 
REMARK   13  A    between atoms: N_23  and  CA_24 
REMARK   14  A    between atoms: CA_24  and  C_25 
REMARK   15  A    between atoms: CA_24  and  CB_27 
REMARK       I    between atoms: C_25  and  N_31 
REMARK   16  A    between atoms: CB_27  and  CG_28 
REMARK   17  A    between atoms: CG_28  and  CD1_29 
REMARK   18  A    between atoms: CG_28  and  CD2_30 
REMARK   19  A    between atoms: N_31  and  CA_32 
REMARK   20  A    between atoms: CA_32  and  C_33 
REMARK   21  A    between atoms: CA_32  and  CB_35 
REMARK       I    between atoms: C_33  and  N_39 
REMARK   22  A    between atoms: CB_35  and  CG_36 
REMARK   23  A    between atoms: CG_36  and  CD1_37 
REMARK   24  A    between atoms: CG_36  and  CD2_38 
REMARK   25  A    between atoms: N_39  and  CA_40 
REMARK   26  A    between atoms: CA_40  and  C_41 
REMARK   27  A    between atoms: CA_40  and  CB_43 
REMARK       I    between atoms: C_41  and  N_50 
REMARK   28  A    between atoms: CB_43  and  CG_44 
REMARK   29  A    between atoms: CG_44  and  CD_45 
REMARK   30  A    between atoms: CD_45  and  NE_46 
REMARK       I    between atoms: NE_46  and  CZ_47 
REMARK       I    between atoms: CZ_47  and  NH1_48 
REMARK   31  A    between atoms: N_50  and  CA_51 
REMARK   32  A    between atoms: CA_51  and  C_52 
REMARK   33  A    between atoms: CA_51  and  CB_54 
REMARK       I    between atoms: C_52  and  N_62 
REMARK   34  A    between atoms: CB_54  and  CG_55 
REMARK   35  A    between atoms: CZ_60  and  OH_61 
REMARK   36  A    between atoms: N_62  and  CA_63 
REMARK   37  A    between atoms: CA_63  and  C_64 
REMARK   38  A    between atoms: CA_63  and  CB_66 
REMARK       I    between atoms: C_64  and  N_70 
REMARK   39  A    between atoms: CB_66  and  CG_67 
REMARK   40  A    between atoms: CG_67  and  CD1_68 
REMARK   41  A    between atoms: CG_67  and  CD2_69 
REMARK   42  A    between atoms: N_70  and  CA_71 
REMARK   43  A    between atoms: CA_71  and  C_72 
REMARK   44  A    between atoms: CA_71  and  CB_74 
REMARK       I    between atoms: C_72  and  N_78 
REMARK   45  A    between atoms: CB_74  and  CG_75 
REMARK   46  A    between atoms: CG_75  and  CD1_76 
REMARK   47  A    between atoms: CG_75  and  CD2_77 
REMARK   48  A    between atoms: N_78  and  CA_79 
REMARK   49  A    between atoms: CA_79  and  C_80 
REMARK   50  A    between atoms: CA_79  and  CB_82 
REMARK       I    between atoms: C_80  and  N_86 
REMARK   51  A    between atoms: CB_82  and  CG_83 
REMARK   52  A    between atoms: N_86  and  CA_87 
REMARK   53  A    between atoms: CA_87  and  C_88 
REMARK   54  A    between atoms: CA_87  and  CB_90 
REMARK       I    between atoms: C_88  and  N_95 
REMARK   55  A    between atoms: CB_90  and  CG_91 
REMARK   56  A    between atoms: CG_91  and  CD_92 
REMARK   57  A    between atoms: CD_92  and  CE_93 
REMARK   58  A    between atoms: CE_93  and  NZ_94 
REMARK   59  A    between atoms: N_95  and  CA_96 
REMARK   60  A    between atoms: CA_96  and  C_97 
REMARK   61  A    between atoms: CA_96  and  CB_99 
ROOT
ATOM      1  C   GLU d   1      21.322  16.859  11.307  0.00  0.00     0.241 C 
ATOM      2  O   GLU d   1      22.502  17.013  11.619  0.00  0.00    -0.271 OA
ATOM      3  N   GLU d   1      20.868  17.042  10.075  0.00  0.00    -0.346 N 
ATOM      4  H55 GLU d   1      19.892  16.919   9.896  0.00  0.00     0.163 HD
ENDROOT
BRANCH   3   5
ATOM      5  CA  GLU d   1      21.740  17.415   8.980  0.00  0.00     0.093 C 
ATOM      6  H56 GLU d   1      22.440  16.584   8.812  0.00  0.00     0.088 H 
BRANCH   5   7
ATOM      7  C   GLU d   1      22.571  18.664   9.262  0.00  0.00     0.241 C 
ATOM      8  O   GLU d   1      23.704  18.766   8.800  0.00  0.00    -0.271 OA
ATOM      9  N   GLU d   1      22.017  19.608  10.013  0.00  0.00    -0.346 N 
ATOM     10  H64 GLU d   1      21.092  19.475  10.370  0.00  0.00     0.163 HD
BRANCH   9  11
ATOM     11  CA  GLU d   1      22.742  20.843  10.327  0.00  0.00     0.089 C 
ATOM     12  H65 GLU d   1      23.269  21.164   9.417  0.00  0.00     0.087 H 
BRANCH  11  13
ATOM     13  C   GLU d   1      23.776  20.651  11.440  0.00  0.00     0.241 C 
ATOM     14  O   GLU d   1      24.684  21.473  11.600  0.00  0.00    -0.271 OA
ATOM     15  N   GLU d   1      23.626  19.568  12.200  0.00  0.00    -0.346 N 
ATOM     16  H75 GLU d   1      22.876  18.939  11.994  0.00  0.00     0.163 HD
BRANCH  15  17
ATOM     17  CA  GLU d   1      24.504  19.261  13.315  0.00  0.00     0.089 C 
ATOM     18  H76 GLU d   1      24.835  20.198  13.787  0.00  0.00     0.087 H 
BRANCH  17  19
ATOM     19  C   GLU d   1      25.717  18.496  12.814  0.00  0.00     0.241 C 
ATOM     20  O   GLU d   1      26.844  18.737  13.263  0.00  0.00    -0.271 OA
ATOM     21  N   GLU d   1      25.476  17.547  11.911  0.00  0.00    -0.346 N 
ATOM     22  H86 GLU d   1      24.532  17.353  11.642  0.00  0.00     0.163 HD
BRANCH  21  23
ATOM     23  CA  GLU d   1      26.560  16.788  11.309  0.00  0.00     0.098 C 
ATOM     24  H87 GLU d   1      27.362  16.551  12.023  0.00  0.00     0.088 H 
BRANCH  23  25
ATOM     25  C   GLU d   1      27.005  17.810  10.268  0.00  0.00     0.241 C 
ATOM     26  O   GLU d   1      26.382  18.867  10.193  0.00  0.00    -0.271 OA
ATOM     27  N   GLU d   1      28.049  17.555   9.487  0.00  0.00    -0.346 N 
ATOM     28  H90 GLU d   1      28.526  16.678   9.553  0.00  0.00     0.163 HD
BRANCH  27  29
ATOM     29  CA  GLU d   1      28.498  18.573   8.525  0.00  0.00     0.089 C 
ATOM     30  H91 GLU d   1      29.321  19.128   8.999  0.00  0.00     0.087 H 
BRANCH  29  31
ATOM     31  C   GLU d   1      27.405  19.583   8.177  0.00  0.00     0.241 C 
ATOM     32  O   GLU d   1      26.369  19.228   7.612  0.00  0.00    -0.271 OA
ATOM     33  N   GLU d   1      27.648  20.841   8.542  0.00  0.00    -0.345 N 
ATOM     34 3H10 GLU d   1      28.518  21.044   8.991  0.00  0.00     0.163 HD
BRANCH  33  35
ATOM     35  CA  GLU d   1      26.707  21.942   8.320  0.00  0.00     0.093 C 
ATOM     36 4H10 GLU d   1      25.759  21.653   8.798  0.00  0.00     0.089 H 
BRANCH  35  37
ATOM     37  C   GLU d   1      26.387  22.249   6.853  0.00  0.00     0.196 C 
ATOM     38  O   GLU d   1      25.283  22.779   6.594  0.00  0.00    -0.646 OA
ATOM     39  OXT GLU d   1      27.245  21.984   5.982  0.00  0.00    -0.646 OA
ENDBRANCH  35  37
BRANCH  35  40
ATOM     40  CB  GLU d   1      27.221  23.204   9.017  0.00  0.00    -0.048 C 
ATOM     41 5H10 GLU d   1      26.514  24.029   8.849  0.00  0.00     0.030 H 
ATOM     42 6H10 GLU d   1      28.205  23.475   8.606  0.00  0.00     0.030 H 
ATOM     43 7H10 GLU d   1      27.314  23.015  10.097  0.00  0.00     0.030 H 
ENDBRANCH  35  40
ENDBRANCH  33  35
ENDBRANCH  29  31
BRANCH  29  44
ATOM     44  CB  GLU d   1      29.045  17.926   7.248  0.00  0.00    -0.038 C 
ATOM     45  H92 GLU d   1      28.815  18.585   6.398  0.00  0.00     0.036 H 
ATOM     46  H93 GLU d   1      28.544  16.957   7.106  0.00  0.00     0.036 H 
BRANCH  44  47
ATOM     47  CG  GLU d   1      30.553  17.690   7.283  0.00  0.00    -0.061 C 
ATOM     48  H94 GLU d   1      30.873  17.263   6.321  0.00  0.00     0.033 H 
ATOM     49  H95 GLU d   1      30.788  16.984   8.093  0.00  0.00     0.033 H 
BRANCH  47  50
ATOM     50  CD  GLU d   1      31.308  18.998   7.525  0.00  0.00    -0.043 C 
ATOM     51  H96 GLU d   1      31.074  19.363   8.536  0.00  0.00     0.035 H 
ATOM     52  H97 GLU d   1      30.982  19.741   6.782  0.00  0.00     0.035 H 
BRANCH  50  53
ATOM     53  CE  GLU d   1      32.815  18.809   7.405  0.00  0.00     0.080 C 
ATOM     54  H98 GLU d   1      33.038  18.349   6.431  0.00  0.00     0.075 H 
ATOM     55  H99 GLU d   1      33.154  18.142   8.211  0.00  0.00     0.075 H 
BRANCH  53  56
ATOM     56  NZ  GLU d   1      33.556  20.100   7.507  0.00  0.00    -0.079 N 
ATOM     57 0H10 GLU d   1      34.545  19.927   7.423  0.00  0.00     0.274 HD
ATOM     58 1H10 GLU d   1      33.365  20.528   8.399  0.00  0.00     0.274 HD
ATOM     59 2H10 GLU d   1      33.259  20.718   6.768  0.00  0.00     0.274 HD
ENDBRANCH  53  56
ENDBRANCH  50  53
ENDBRANCH  47  50
ENDBRANCH  44  47
ENDBRANCH  29  44
ENDBRANCH  27  29
ENDBRANCH  23  25
BRANCH  23  60
ATOM     60  CB  GLU d   1      26.013  15.501  10.698  0.00  0.00     0.043 C 
ATOM     61  H88 GLU d   1      26.848  14.931  10.264  0.00  0.00     0.052 H 
ATOM     62  H89 GLU d   1      25.295  15.761   9.906  0.00  0.00     0.052 H 
BRANCH  60  63
ATOM     63  CG  GLU d   1      25.307  14.628  11.737  0.00  0.00     0.175 C 
ATOM     64  OD1 GLU d   1      25.690  14.697  12.925  0.00  0.00    -0.648 OA
ATOM     65  OD2 GLU d   1      24.384  13.868  11.377  0.00  0.00    -0.648 OA
ENDBRANCH  60  63
ENDBRANCH  23  60
ENDBRANCH  21  23
ENDBRANCH  17  19
BRANCH  17  66
ATOM     66  CB  GLU d   1      23.749  18.423  14.334  0.00  0.00    -0.035 C 
ATOM     67  H77 GLU d   1      23.381  17.522  13.821  0.00  0.00     0.037 H 
ATOM     68  H78 GLU d   1      22.895  19.017  14.690  0.00  0.00     0.037 H 
BRANCH  66  69
ATOM     69  CG  GLU d   1      24.541  17.973  15.551  0.00  0.00    -0.059 C 
ATOM     70  H79 GLU d   1      25.446  17.441  15.221  0.00  0.00     0.038 H 
BRANCH  69  71
ATOM     71  CD1 GLU d   1      24.957  19.195  16.367  0.00  0.00    -0.073 C 
ATOM     72  H80 GLU d   1      25.530  18.870  17.248  0.00  0.00     0.028 H 
ATOM     73  H81 GLU d   1      24.059  19.740  16.694  0.00  0.00     0.028 H 
ATOM     74  H82 GLU d   1      25.581  19.855  15.747  0.00  0.00     0.028 H 
ENDBRANCH  69  71
BRANCH  69  75
ATOM     75  CD2 GLU d   1      23.679  17.021  16.374  0.00  0.00    -0.073 C 
ATOM     76  H83 GLU d   1      23.398  16.155  15.757  0.00  0.00     0.028 H 
ATOM     77  H84 GLU d   1      22.770  17.544  16.707  0.00  0.00     0.028 H 
ATOM     78  H85 GLU d   1      24.247  16.678  17.251  0.00  0.00     0.028 H 
ENDBRANCH  69  75
ENDBRANCH  66  69
ENDBRANCH  17  66
ENDBRANCH  15  17
ENDBRANCH  11  13
BRANCH  11  79
ATOM     79  CB  GLU d   1      21.774  21.958  10.753  0.00  0.00    -0.035 C 
ATOM     80  H66 GLU d   1      22.377  22.709  11.285  0.00  0.00     0.037 H 
ATOM     81  H67 GLU d   1      21.059  21.500  11.452  0.00  0.00     0.037 H 
BRANCH  79  82
ATOM     82  CG  GLU d   1      20.941  22.723   9.716  0.00  0.00    -0.059 C 
ATOM     83  H68 GLU d   1      20.325  22.008   9.151  0.00  0.00     0.038 H 
BRANCH  82  84
ATOM     84  CD1 GLU d   1      20.033  23.708  10.439  0.00  0.00    -0.073 C 
ATOM     85  H69 GLU d   1      19.432  24.261   9.702  0.00  0.00     0.028 H 
ATOM     86  H70 GLU d   1      20.646  24.415  11.017  0.00  0.00     0.028 H 
ATOM     87  H71 GLU d   1      19.365  23.160  11.120  0.00  0.00     0.028 H 
ENDBRANCH  82  84
BRANCH  82  88
ATOM     88  CD2 GLU d   1      21.841  23.474   8.745  0.00  0.00    -0.073 C 
ATOM     89  H72 GLU d   1      22.496  22.759   8.224  0.00  0.00     0.028 H 
ATOM     90  H73 GLU d   1      22.456  24.198   9.300  0.00  0.00     0.028 H 
ATOM     91  H74 GLU d   1      21.222  24.008   8.009  0.00  0.00     0.028 H 
ENDBRANCH  82  88
ENDBRANCH  79  82
ENDBRANCH  11  79
ENDBRANCH   9  11
ENDBRANCH   5   7
BRANCH   5  92
ATOM     92  CB  GLU d   1      20.903  17.603   7.713  0.00  0.00    -0.014 C 
ATOM     93  H57 GLU d   1      20.018  18.202   7.973  0.00  0.00     0.043 H 
ATOM     94  H58 GLU d   1      20.584  16.610   7.363  0.00  0.00     0.043 H 
BRANCH  92  95
ATOM     95  CG  GLU d   1      21.619  18.292   6.579  0.00  0.00    -0.056 A 
ATOM     96  CD1 GLU d   1      22.608  17.635   5.835  0.00  0.00    -0.074 A 
ATOM     97  CE1 GLU d   1      23.267  18.287   4.784  0.00  0.00    -0.051 A 
ATOM     98  H59 GLU d   1      22.866  16.610   6.075  0.00  0.00     0.084 H 
ATOM     99  CZ  GLU d   1      22.933  19.600   4.477  0.00  0.00     0.065 A 
ATOM    100  H61 GLU d   1      24.032  17.771   4.215  0.00  0.00     0.087 H 
ATOM    101  CE2 GLU d   1      21.958  20.264   5.205  0.00  0.00    -0.051 A 
ATOM    102  CD2 GLU d   1      21.309  19.613   6.246  0.00  0.00    -0.074 A 
ATOM    103  H62 GLU d   1      21.703  21.289   4.962  0.00  0.00     0.087 H 
ATOM    104  H60 GLU d   1      20.548  20.139   6.811  0.00  0.00     0.084 H 
BRANCH  99 105
ATOM    105  OH  GLU d   1      23.562  20.263   3.441  0.00  0.00    -0.361 OA
ATOM    106  H63 GLU d   1      24.200  19.686   3.038  0.00  0.00     0.217 HD
ENDBRANCH  99 105
ENDBRANCH  92  95
ENDBRANCH   5  92
ENDBRANCH   3   5
BRANCH   1 107
ATOM    107  CA  GLU d   1      20.277  16.457  12.343  0.00  0.00     0.089 C 
ATOM    108  H43 GLU d   1      20.741  16.433  13.340  0.00  0.00     0.087 H 
BRANCH 107 109
ATOM    109  N   GLU d   1      19.197  17.423  12.336  0.00  0.00    -0.346 N 
ATOM    110  C   GLU d   1      19.436  18.726  12.427  0.00  0.00     0.241 C 
ATOM    111  O   GLU d   1      20.574  19.198  12.543  0.00  0.00    -0.271 OA
ATOM    112  H42 GLU d   1      18.253  17.102  12.261  0.00  0.00     0.163 HD
BRANCH 110 113
ATOM    113  CA  GLU d   1      18.206  19.628  12.385  0.00  0.00     0.089 C 
ATOM    114  H32 GLU d   1      18.529  20.673  12.269  0.00  0.00     0.087 H 
BRANCH 113 115
ATOM    115  N   GLU d   1      17.367  19.257  11.254  0.00  0.00    -0.346 N 
ATOM    116  C   GLU d   1      17.819  19.257  10.001  0.00  0.00     0.241 C 
ATOM    117  O   GLU d   1      18.978  19.572   9.699  0.00  0.00    -0.271 OA
ATOM    118  H31 GLU d   1      16.418  18.993  11.424  0.00  0.00     0.163 HD
BRANCH 116 119
ATOM    119  CA  GLU d   1      16.811  18.845   8.926  0.00  0.00     0.089 C 
ATOM    120  H21 GLU d   1      17.365  18.642   7.998  0.00  0.00     0.087 H 
BRANCH 119 121
ATOM    121  N   GLU d   1      16.087  17.635   9.293  0.00  0.00    -0.346 N 
ATOM    122  C   GLU d   1      16.705  16.465   9.324  0.00  0.00     0.240 C 
ATOM    123  O   GLU d   1      17.897  16.340   9.054  0.00  0.00    -0.271 OA
ATOM    124  H20 GLU d   1      15.115  17.689   9.523  0.00  0.00     0.163 HD
BRANCH 122 125
ATOM    125  CA  GLU d   1      15.879  15.256   9.720  0.00  0.00     0.086 C 
ATOM    126  H16 GLU d   1      16.573  14.503  10.120  0.00  0.00     0.086 H 
BRANCH 125 127
ATOM    127  N   GLU d   1      14.894  15.531  10.762  0.00  0.00    -0.346 N 
ATOM    128  C   GLU d   1      15.276  15.933  11.974  0.00  0.00     0.241 C 
ATOM    129  O   GLU d   1      16.464  16.139  12.259  0.00  0.00    -0.271 OA
ATOM    130  H15 GLU d   1      13.921  15.416  10.564  0.00  0.00     0.163 HD
BRANCH 128 131
ATOM    131  CA  GLU d   1      14.175  16.159  13.032  0.00  0.00     0.097 C 
ATOM    132  H10 GLU d   1      13.608  17.058  12.749  0.00  0.00     0.088 H 
BRANCH 131 133
ATOM    133  N   GLU d   1      13.222  15.047  13.144  0.00  0.00    -0.346 N 
ATOM    134  C   GLU d   1      13.629  13.778  13.172  0.00  0.00     0.249 C 
ATOM    135  O   GLU d   1      14.813  13.463  13.109  0.00  0.00    -0.271 OA
ATOM    136  H9  GLU d   1      12.244  15.247  13.201  0.00  0.00     0.163 HD
BRANCH 134 137
ATOM    137  CA  GLU d   1      12.559  12.695  13.290  0.00  0.00     0.176 C 
ATOM    138  H4  GLU d   1      13.034  11.781  13.675  0.00  0.00     0.099 H 
BRANCH 137 139
ATOM    139  N   GLU d   1      11.492  13.072  14.214  0.00  0.00    -0.066 N 
ATOM    140  H1  GLU d   1      10.810  12.331  14.261  0.00  0.00     0.275 HD
ATOM    141  H2  GLU d   1      11.048  13.916  13.888  0.00  0.00     0.275 HD
ATOM    142  H3  GLU d   1      11.881  13.229  15.131  0.00  0.00     0.275 HD
ENDBRANCH 137 139
BRANCH 137 143
ATOM    143  CB  GLU d   1      11.988  12.401  11.898  0.00  0.00    -0.021 C 
ATOM    144  H5  GLU d   1      11.608  13.342  11.474  0.00  0.00     0.037 H 
ATOM    145  H6  GLU d   1      11.158  11.687  12.008  0.00  0.00     0.037 H 
BRANCH 143 146
ATOM    146  CG  GLU d   1      12.998  11.813  10.926  0.00  0.00     0.018 C 
ATOM    147  H7  GLU d   1      13.851  12.503  10.843  0.00  0.00     0.049 H 
ATOM    148  H8  GLU d   1      12.518  11.703   9.942  0.00  0.00     0.049 H 
BRANCH 146 149
ATOM    149  CD  GLU d   1      13.511  10.456  11.372  0.00  0.00     0.172 C 
ATOM    150  OE1 GLU d   1      14.036  10.355  12.503  0.00  0.00    -0.648 OA
ATOM    151  OE2 GLU d   1      13.389   9.490  10.589  0.00  0.00    -0.648 OA
ENDBRANCH 146 149
ENDBRANCH 143 146
ENDBRANCH 137 143
ENDBRANCH 134 137
ENDBRANCH 131 133
BRANCH 131 152
ATOM    152  CB  GLU d   1      14.854  16.407  14.382  0.00  0.00     0.036 C 
ATOM    153  H11 GLU d   1      15.761  17.006  14.213  0.00  0.00     0.051 H 
ATOM    154  H12 GLU d   1      15.131  15.436  14.818  0.00  0.00     0.051 H 
BRANCH 152 155
ATOM    155  CG  GLU d   1      13.971  17.139  15.361  0.00  0.00     0.217 C 
ATOM    156  OD1 GLU d   1      13.414  16.540  16.281  0.00  0.00    -0.274 OA
ATOM    157  ND2 GLU d   1      13.839  18.450  15.170  0.00  0.00    -0.370 N 
ATOM    158  H13 GLU d   1      13.266  18.990  15.787  0.00  0.00     0.159 HD
ATOM    159  H14 GLU d   1      14.313  18.895  14.410  0.00  0.00     0.159 HD
ENDBRANCH 152 155
ENDBRANCH 131 152
ENDBRANCH 128 131
ENDBRANCH 125 127
BRANCH 125 160
ATOM    160  CB  GLU d   1      15.206  14.667   8.497  0.00  0.00    -0.049 C 
ATOM    161  H17 GLU d   1      15.962  14.466   7.723  0.00  0.00     0.030 H 
ATOM    162  H18 GLU d   1      14.464  15.379   8.108  0.00  0.00     0.030 H 
ATOM    163  H19 GLU d   1      14.704  13.727   8.771  0.00  0.00     0.030 H 
ENDBRANCH 125 160
ENDBRANCH 122 125
ENDBRANCH 119 121
BRANCH 119 164
ATOM    164  CB  GLU d   1      15.830  19.995   8.663  0.00  0.00    -0.035 C 
ATOM    165  H22 GLU d   1      16.414  20.888   8.395  0.00  0.00     0.037 H 
ATOM    166  H23 GLU d   1      15.272  20.187   9.591  0.00  0.00     0.037 H 
BRANCH 164 167
ATOM    167  CG  GLU d   1      14.814  19.735   7.541  0.00  0.00    -0.059 C 
ATOM    168  H24 GLU d   1      14.111  18.955   7.869  0.00  0.00     0.038 H 
BRANCH 167 169
ATOM    169  CD1 GLU d   1      14.034  21.012   7.240  0.00  0.00    -0.073 C 
ATOM    170  H25 GLU d   1      13.309  20.818   6.436  0.00  0.00     0.028 H 
ATOM    171  H26 GLU d   1      14.731  21.801   6.922  0.00  0.00     0.028 H 
ATOM    172  H27 GLU d   1      13.500  21.337   8.145  0.00  0.00     0.028 H 
ENDBRANCH 167 169
BRANCH 167 173
ATOM    173  CD2 GLU d   1      15.537  19.254   6.280  0.00  0.00    -0.073 C 
ATOM    174  H28 GLU d   1      16.096  18.334   6.506  0.00  0.00     0.028 H 
ATOM    175  H29 GLU d   1      16.235  20.032   5.938  0.00  0.00     0.028 H 
ATOM    176  H30 GLU d   1      14.800  19.050   5.490  0.00  0.00     0.028 H 
ENDBRANCH 167 173
ENDBRANCH 164 167
ENDBRANCH 119 164
ENDBRANCH 116 119
ENDBRANCH 113 115
BRANCH 113 177
ATOM    177  CB  GLU d   1      17.409  19.491  13.681  0.00  0.00    -0.035 C 
ATOM    178  H33 GLU d   1      17.102  18.438  13.765  0.00  0.00     0.037 H 
ATOM    179  H34 GLU d   1      16.516  20.126  13.583  0.00  0.00     0.037 H 
BRANCH 177 180
ATOM    180  CG  GLU d   1      18.092  19.870  14.998  0.00  0.00    -0.059 C 
ATOM    181  H35 GLU d   1      18.937  19.188  15.174  0.00  0.00     0.038 H 
BRANCH 180 182
ATOM    182  CD1 GLU d   1      18.622  21.297  14.942  0.00  0.00    -0.073 C 
ATOM    183  H36 GLU d   1      19.107  21.546  15.897  0.00  0.00     0.028 H 
ATOM    184  H37 GLU d   1      17.788  21.991  14.763  0.00  0.00     0.028 H 
ATOM    185  H38 GLU d   1      19.354  21.385  14.125  0.00  0.00     0.028 H 
ENDBRANCH 180 182
BRANCH 180 186
ATOM    186  CD2 GLU d   1      17.087  19.717  16.126  0.00  0.00    -0.073 C 
ATOM    187  H39 GLU d   1      16.717  18.681  16.149  0.00  0.00     0.028 H 
ATOM    188  H40 GLU d   1      16.244  20.404  15.962  0.00  0.00     0.028 H 
ATOM    189  H41 GLU d   1      17.572  19.955  17.084  0.00  0.00     0.028 H 
ENDBRANCH 180 186
ENDBRANCH 177 180
ENDBRANCH 113 177
ENDBRANCH 110 113
ENDBRANCH 107 109
BRANCH 107 190
ATOM    190  CB  GLU d   1      19.725  15.080  12.010  0.00  0.00    -0.036 C 
ATOM    191  H44 GLU d   1      19.196  15.145  11.047  0.00  0.00     0.036 H 
ATOM    192  H45 GLU d   1      19.015  14.794  12.800  0.00  0.00     0.036 H 
BRANCH 190 193
ATOM    193  CG  GLU d   1      20.771  14.000  11.902  0.00  0.00    -0.048 C 
ATOM    194  H46 GLU d   1      21.508  14.117  12.710  0.00  0.00     0.035 H 
ATOM    195  H47 GLU d   1      21.279  14.074  10.929  0.00  0.00     0.035 H 
BRANCH 193 196
ATOM    196  CD  GLU d   1      20.099  12.658  12.021  0.00  0.00     0.009 C 
ATOM    197  H48 GLU d   1      20.842  11.899  12.308  0.00  0.00     0.064 H 
ATOM    198  H49 GLU d   1      19.651  12.385  11.054  0.00  0.00     0.064 H 
BRANCH 196 199
ATOM    199  NE  GLU d   1      19.056  12.728  13.039  0.00  0.00    -0.227 N 
ATOM    200  CZ  GLU d   1      18.379  11.681  13.490  0.00  0.00     0.665 C 
ATOM    201  NH1 GLU d   1      18.631  10.470  13.008  0.00  0.00    -0.235 N 
ATOM    202  NH2 GLU d   1      17.470  11.843  14.443  0.00  0.00    -0.235 N 
ATOM    203  H51 GLU d   1      18.105   9.657  13.358  0.00  0.00     0.174 HD
ATOM    204  H52 GLU d   1      19.352  10.344  12.284  0.00  0.00     0.174 HD
ATOM    205  H53 GLU d   1      17.276  12.784  14.815  0.00  0.00     0.174 HD
ATOM    206  H54 GLU d   1      16.958  11.028  14.810  0.00  0.00     0.174 HD
ATOM    207  H50 GLU d   1      18.831  13.652  13.434  0.00  0.00     0.177 HD
ENDBRANCH 196 199
ENDBRANCH 193 196
ENDBRANCH 190 193
ENDBRANCH 107 190
ENDBRANCH   1 107
TORSDOF 61
