REMARK  8 active torsions:
REMARK  status: ('A' for Active; 'I' for Inactive)
REMARK    1  A    between atoms: N_1  and  CA_2 
REMARK    2  A    between atoms: CA_2  and  CB_3 
REMARK    3  A    between atoms: CA_2  and  C_7 
REMARK    4  A    between atoms: CB_3  and  CG_4 
REMARK    5  A    between atoms: CG_4  and  CD_5 
REMARK    6  A    between atoms: CD_5  and  NE_6 
REMARK       I    between atoms: NE_6  and  C1_10 
REMARK    7  A    between atoms: C1_10  and  C1P_12 
REMARK    8  A    between atoms: C1P_12  and  P_13 
ROOT
ATOM      1  CG  PAO d   1       1.642   2.982 -22.812  0.00  0.00    -0.048 C 
ATOM      2  H7  PAO d   1       1.111   3.945 -22.780  0.00  0.00     0.035 H 
ATOM      3  H8  PAO d   1       1.780   2.605 -21.788  0.00  0.00     0.035 H 
ENDROOT
BRANCH   1   4
ATOM      4  CB  PAO d   1       3.014   3.188 -23.458  0.00  0.00    -0.028 C 
ATOM      5  H5  PAO d   1       3.502   2.205 -23.539  0.00  0.00     0.036 H 
ATOM      6  H6  PAO d   1       2.856   3.603 -24.465  0.00  0.00     0.036 H 
BRANCH   4   7
ATOM      7  CA  PAO d   1       3.964   4.126 -22.705  0.00  0.00     0.182 C 
ATOM      8  H4  PAO d   1       3.445   5.071 -22.484  0.00  0.00     0.101 H 
BRANCH   7   9
ATOM      9  N   PAO d   1       5.124   4.377 -23.540  0.00  0.00    -0.065 N 
ATOM     10  H1  PAO d   1       4.829   4.794 -24.409  0.00  0.00     0.275 HD
ATOM     11  H2  PAO d   1       5.597   3.507 -23.728  0.00  0.00     0.275 HD
ATOM     12  H3  PAO d   1       5.752   5.005 -23.063  0.00  0.00     0.275 HD
ENDBRANCH   7   9
BRANCH   7  13
ATOM     13  C   PAO d   1       4.453   3.498 -21.406  0.00  0.00     0.204 C 
ATOM     14  O   PAO d   1       4.035   3.945 -20.341  0.00  0.00    -0.646 OA
ATOM     15  OXT PAO d   1       5.271   2.584 -21.469  0.00  0.00    -0.646 OA
ENDBRANCH   7  13
ENDBRANCH   4   7
ENDBRANCH   1   4
BRANCH   1  16
ATOM     16  CD  PAO d   1       0.804   1.974 -23.608  0.00  0.00    -0.005 C 
ATOM     17  H9  PAO d   1       1.148   0.955 -23.378  0.00  0.00     0.064 H 
ATOM     18  H10 PAO d   1       0.927   2.169 -24.683  0.00  0.00     0.064 H 
BRANCH  16  19
ATOM     19  NE  PAO d   1      -0.603   2.095 -23.257  0.00  0.00    -0.361 N 
ATOM     20  C1  PAO d   1      -1.460   1.069 -23.284  0.00  0.00     0.230 C 
ATOM     21  O1  PAO d   1      -1.148  -0.084 -23.582  0.00  0.00    -0.273 OA
ATOM     22  H11 PAO d   1      -0.947   2.993 -22.981  0.00  0.00     0.162 HD
BRANCH  20  23
ATOM     23  C1P PAO d   1      -2.864   1.436 -22.843  0.00  0.00     0.112 C 
ATOM     24  H12 PAO d   1      -3.598   0.956 -23.506  0.00  0.00     0.068 H 
ATOM     25  H13 PAO d   1      -2.992   2.528 -22.884  0.00  0.00     0.068 H 
BRANCH  23  26
ATOM     26  P   PAO d   1      -3.106   0.857 -21.145  0.00  0.00     0.268 P 
ATOM     27  O1P PAO d   1      -1.848   1.259 -20.243  0.00  0.00    -0.639 OA
ATOM     28  O2P PAO d   1      -3.263  -0.722 -21.132  0.00  0.00    -0.639 OA
ATOM     29  O3P PAO d   1      -4.417   1.534 -20.541  0.00  0.00    -0.639 OA
ENDBRANCH  23  26
ENDBRANCH  20  23
ENDBRANCH  16  19
ENDBRANCH   1  16
TORSDOF 8
