REMARK  9 active torsions:
REMARK  status: ('A' for Active; 'I' for Inactive)
REMARK    1  A    between atoms: C50_1  and  C49_2 
REMARK    2  A    between atoms: C49_2  and  N48_3 
REMARK    3  A    between atoms: C49_2  and  C54_32 
REMARK    4  A    between atoms: N48_3  and  C40_4 
REMARK    5  A    between atoms: C12_8  and  C1_10 
REMARK    6  A    between atoms: C5_11  and  C11_22 
REMARK    7  A    between atoms: C3_13  and  C10_14 
REMARK    8  A    between atoms: N2_20  and  C6_21 
REMARK    9  A    between atoms: C29_24  and  C44_28 
ROOT
ATOM      1  C1  084 d   1      44.946  33.466  31.869  0.00  0.00     0.095 A 
ATOM      2  C5  084 d   1      43.764  32.632  31.623  0.00  0.00     0.098 A 
ATOM      3  N4  084 d   1      44.147  31.330  31.638  0.00  0.00    -0.232 NA
ATOM      4  C3  084 d   1      45.483  31.367  31.875  0.00  0.00     0.111 A 
ATOM      5  N2  084 d   1      46.034  32.616  32.019  0.00  0.00    -0.335 N 
ENDROOT
BRANCH   1   6
ATOM      6  C12 084 d   1      45.027  34.976  31.961  0.00  0.00     0.106 A 
ATOM      7  C37 084 d   1      44.173  35.718  32.829  0.00  0.00    -0.035 A 
ATOM      8  C38 084 d   1      44.360  37.126  32.839  0.00  0.00     0.023 A 
ATOM      9  H7  084 d   1      43.424  35.235  33.446  0.00  0.00     0.089 H 
ATOM     10  N39 084 d   1      45.300  37.798  32.079  0.00  0.00    -0.075 NA
ATOM     11  H6  084 d   1      43.721  37.715  33.487  0.00  0.00     0.115 H 
ATOM     12  C40 084 d   1      46.084  37.021  31.270  0.00  0.00     0.723 A 
ATOM     13  N41 084 d   1      45.962  35.663  31.203  0.00  0.00    -0.061 NA
BRANCH  12  14
ATOM     14  N48 084 d   1      47.072  37.594  30.450  0.00  0.00    -0.214 N 
ATOM     15  H5  084 d   1      47.017  38.619  30.361  0.00  0.00     0.178 HD
BRANCH  14  16
ATOM     16  C49 084 d   1      48.205  36.951  29.676  0.00  0.00     0.048 C 
ATOM     17  H4  084 d   1      47.760  36.264  28.941  0.00  0.00     0.080 H 
BRANCH  16  18
ATOM     18  C50 084 d   1      48.866  37.881  28.994  0.00  0.00    -0.053 C 
ATOM     19  H1  084 d   1      49.687  37.410  28.434  0.00  0.00     0.030 H 
ATOM     20  H2  084 d   1      49.278  38.625  29.692  0.00  0.00     0.030 H 
ATOM     21  H3  084 d   1      48.180  38.377  28.292  0.00  0.00     0.030 H 
ENDBRANCH  16  18
BRANCH  16  22
ATOM     22  C54 084 d   1      49.127  36.078  30.623  0.00  0.00    -0.035 A 
ATOM     23  C60 084 d   1      49.352  36.439  32.027  0.00  0.00    -0.075 A 
ATOM     24  C59 084 d   1      50.188  35.649  32.885  0.00  0.00    -0.082 A 
ATOM     25  H26 084 d   1      48.874  37.326  32.427  0.00  0.00     0.084 H 
ATOM     26  C58 084 d   1      50.830  34.478  32.366  0.00  0.00    -0.083 A 
ATOM     27  H27 084 d   1      50.333  35.937  33.920  0.00  0.00     0.083 H 
ATOM     28  C57 084 d   1      50.637  34.092  30.996  0.00  0.00    -0.082 A 
ATOM     29  H28 084 d   1      51.465  33.880  33.010  0.00  0.00     0.083 H 
ATOM     30  C56 084 d   1      49.794  34.883  30.134  0.00  0.00    -0.075 A 
ATOM     31  H29 084 d   1      51.126  33.205  30.610  0.00  0.00     0.083 H 
ATOM     32  H30 084 d   1      49.655  34.581  29.102  0.00  0.00     0.084 H 
ENDBRANCH  16  22
ENDBRANCH  14  16
ENDBRANCH  12  14
ENDBRANCH   1   6
BRANCH   2  33
ATOM     33  C11 084 d   1      42.356  33.067  31.388  0.00  0.00    -0.004 A 
ATOM     34  C28 084 d   1      41.331  32.607  32.254  0.00  0.00    -0.056 A 
ATOM     35  C29 084 d   1      39.960  33.011  32.059  0.00  0.00     0.048 A 
ATOM     36  H22 084 d   1      41.581  31.943  33.073  0.00  0.00     0.086 H 
ATOM     37  C30 084 d   1      39.645  33.910  30.937  0.00  0.00    -0.068 A 
ATOM     38  C31 084 d   1      40.670  34.374  30.062  0.00  0.00    -0.081 A 
ATOM     39  H23 084 d   1      38.620  34.223  30.774  0.00  0.00     0.084 H 
ATOM     40  C32 084 d   1      42.004  33.957  30.287  0.00  0.00    -0.071 A 
ATOM     41  H24 084 d   1      40.432  35.036  29.237  0.00  0.00     0.083 H 
ATOM     42  H25 084 d   1      42.785  34.309  29.623  0.00  0.00     0.084 H 
BRANCH  35  43
ATOM     43  C44 084 d   1      38.866  32.500  33.008  0.00  0.00     0.417 C 
ATOM     44  F45 084 d   1      38.589  31.276  32.664  0.00  0.00    -0.166 F 
ATOM     45  F46 084 d   1      37.814  33.257  32.865  0.00  0.00    -0.166 F 
ATOM     46  F47 084 d   1      39.228  32.531  34.278  0.00  0.00    -0.166 F 
ENDBRANCH  35  43
ENDBRANCH   2  33
BRANCH   5  47
ATOM     47  C6  084 d   1      47.442  33.002  32.286  0.00  0.00    -0.012 C 
ATOM     48  H19 084 d   1      47.518  34.098  32.339  0.00  0.00     0.057 H 
ATOM     49  H20 084 d   1      48.085  32.629  31.475  0.00  0.00     0.057 H 
ATOM     50  H21 084 d   1      47.767  32.565  33.242  0.00  0.00     0.057 H 
ENDBRANCH   5  47
BRANCH   4  51
ATOM     51  C10 084 d   1      46.347  30.017  31.990  0.00  0.00     0.007 C 
ATOM     52  C13 084 d   1      46.795  29.536  33.431  0.00  0.00    -0.033 C 
ATOM     53  C14 084 d   1      47.595  28.199  33.422  0.00  0.00     0.082 C 
ATOM     54  H9  084 d   1      45.894  29.398  34.047  0.00  0.00     0.036 H 
ATOM     55  H10 084 d   1      47.428  30.317  33.877  0.00  0.00     0.036 H 
ATOM     56  N15 084 d   1      46.865  27.112  32.676  0.00  0.00    -0.075 N 
ATOM     57  H11 084 d   1      47.754  27.873  34.460  0.00  0.00     0.075 H 
ATOM     58  H12 084 d   1      48.568  28.370  32.939  0.00  0.00     0.075 H 
ATOM     59  C16 084 d   1      46.421  27.516  31.287  0.00  0.00     0.082 C 
ATOM     60  H13 084 d   1      46.049  26.855  33.208  0.00  0.00     0.277 HD
ATOM     61  H14 084 d   1      47.478  26.316  32.595  0.00  0.00     0.277 HD
ATOM     62  C17 084 d   1      45.585  28.831  31.294  0.00  0.00    -0.033 C 
ATOM     63  H15 084 d   1      45.807  26.708  30.863  0.00  0.00     0.075 H 
ATOM     64  H16 084 d   1      47.312  27.667  30.660  0.00  0.00     0.075 H 
ATOM     65  H17 084 d   1      45.362  29.114  30.255  0.00  0.00     0.036 H 
ATOM     66  H18 084 d   1      44.644  28.649  31.834  0.00  0.00     0.036 H 
ATOM     67  H8  084 d   1      47.273  30.202  31.425  0.00  0.00     0.052 H 
ENDBRANCH   4  51
TORSDOF 9
