REMARK  4 active torsions:
REMARK  status: ('A' for Active; 'I' for Inactive)
REMARK    1  A    between atoms: C4_5  and  S1_6 
REMARK    2  A    between atoms: S1_6  and  C5_7 
REMARK    3  A    between atoms: C6_8  and  C18_26 
REMARK    4  A    between atoms: N1_11  and  C12_18 
ROOT
ATOM      1  C5  094 d   1      43.454  31.538  31.792  0.00  0.00     0.106 A 
ATOM      2  C6  094 d   1      44.803  31.304  31.408  0.00  0.00    -0.009 A 
ATOM      3  C7  094 d   1      45.743  32.349  31.629  0.00  0.00    -0.044 A 
ATOM      4  C8  094 d   1      45.347  33.586  32.245  0.00  0.00     0.075 A 
ATOM      5  N1  094 d   1      46.221  34.687  32.477  0.00  0.00    -0.257 N 
ATOM      6  C9  094 d   1      45.784  35.888  33.066  0.00  0.00     0.353 A 
ATOM      7  O1  094 d   1      46.515  36.842  33.272  0.00  0.00    -0.244 OA
ATOM      8  N2  094 d   1      44.482  35.991  33.417  0.00  0.00    -0.204 NA
ATOM      9  C10 094 d   1      43.475  34.951  33.235  0.00  0.00     0.037 A 
ATOM     10  C11 094 d   1      43.976  33.694  32.588  0.00  0.00     0.103 A 
ATOM     11  N3  094 d   1      43.075  32.705  32.387  0.00  0.00    -0.237 NA
ATOM     12  H3  094 d   1      46.775  32.210  31.328  0.00  0.00     0.088 H 
ATOM     13  H4  094 d   1      42.439  35.078  33.545  0.00  0.00     0.118 H 
ENDROOT
BRANCH   1  14
ATOM     14  S1  094 d   1      42.161  30.336  31.545  0.00  0.00    -0.067 SA
BRANCH  14  15
ATOM     15  C4  094 d   1      40.638  31.238  31.767  0.00  0.00     0.045 A 
ATOM     16  C3  094 d   1      39.758  30.853  32.808  0.00  0.00    -0.060 A 
ATOM     17  C2  094 d   1      38.543  31.549  33.014  0.00  0.00    -0.044 A 
ATOM     18  H2  094 d   1      40.017  30.020  33.451  0.00  0.00     0.085 H 
ATOM     19  C1  094 d   1      38.218  32.625  32.157  0.00  0.00     0.119 A 
ATOM     20  H1  094 d   1      37.873  31.262  33.816  0.00  0.00     0.088 H 
ATOM     21  F1  094 d   1      37.073  33.276  32.353  0.00  0.00    -0.206 F 
ATOM     22  C24 094 d   1      39.067  33.037  31.108  0.00  0.00    -0.007 A 
ATOM     23  C23 094 d   1      40.273  32.330  30.920  0.00  0.00     0.136 A 
ATOM     24  H14 094 d   1      38.801  33.870  30.467  0.00  0.00     0.093 H 
ATOM     25  F2  094 d   1      41.089  32.710  29.925  0.00  0.00    -0.205 F 
ENDBRANCH  14  15
ENDBRANCH   1  14
BRANCH   2  26
ATOM     26  C18 094 d   1      45.245  30.049  30.775  0.00  0.00     0.009 C 
ATOM     27  C19 094 d   1      45.279  28.745  31.596  0.00  0.00    -0.076 C 
ATOM     28  C20 094 d   1      45.737  27.500  30.787  0.00  0.00    -0.026 C 
ATOM     29  H9  094 d   1      45.006  28.700  32.649  0.00  0.00     0.080 H 
ATOM     30  N4  094 d   1      46.650  27.844  29.665  0.00  0.00    -0.376 N 
ATOM     31  H10 094 d   1      45.423  26.483  31.017  0.00  0.00     0.110 H 
ATOM     32  C21 094 d   1      46.082  28.824  28.709  0.00  0.00    -0.026 C 
ATOM     33  H11 094 d   1      47.591  27.438  29.561  0.00  0.00     0.164 HD
ATOM     34  C22 094 d   1      45.611  30.069  29.460  0.00  0.00    -0.076 C 
ATOM     35  H12 094 d   1      46.011  28.679  27.632  0.00  0.00     0.110 H 
ATOM     36  H13 094 d   1      45.565  31.015  28.922  0.00  0.00     0.080 H 
ATOM     37  H8  094 d   1      46.284  30.258  31.069  0.00  0.00     0.060 H 
ENDBRANCH   2  26
BRANCH   5  38
ATOM     38  C12 094 d   1      47.578  34.636  32.133  0.00  0.00     0.088 A 
ATOM     39  C13 094 d   1      48.599  34.177  33.044  0.00  0.00     0.063 A 
ATOM     40 CL1  094 d   1      48.220  33.657  34.648  0.00  0.00    -0.082 Cl
ATOM     41  C14 094 d   1      49.961  34.147  32.657  0.00  0.00    -0.060 A 
ATOM     42  C15 094 d   1      50.352  34.553  31.365  0.00  0.00    -0.080 A 
ATOM     43  H5  094 d   1      50.711  33.808  33.362  0.00  0.00     0.086 H 
ATOM     44  C16 094 d   1      49.371  35.007  30.435  0.00  0.00    -0.060 A 
ATOM     45  H6  094 d   1      51.397  34.520  31.079  0.00  0.00     0.083 H 
ATOM     46  C17 094 d   1      48.003  35.042  30.811  0.00  0.00     0.063 A 
ATOM     47  H7  094 d   1      49.670  35.325  29.443  0.00  0.00     0.086 H 
ATOM     48 CL2  094 d   1      46.853  35.608  29.616  0.00  0.00    -0.082 Cl
ENDBRANCH   5  38
TORSDOF 4
