REMARK  24 active torsions:
REMARK  status: ('A' for Active; 'I' for Inactive)
REMARK    1  A    between atoms: N_1  and  CA_2 
REMARK    2  A    between atoms: CA_2  and  C_3 
REMARK    3  A    between atoms: CA_2  and  CB_5 
REMARK       I    between atoms: C_3  and  N_6 
REMARK    4  A    between atoms: CA_7  and  C_8 
REMARK       I    between atoms: C_8  and  N_13 
REMARK    5  A    between atoms: CA_14  and  C_15 
REMARK       I    between atoms: C_15  and  N_20 
REMARK    6  A    between atoms: N_20  and  CA_21 
REMARK    7  A    between atoms: CA_21  and  C_22 
REMARK    8  A    between atoms: CA_21  and  CB_24 
REMARK       I    between atoms: C_22  and  N_26 
REMARK    9  A    between atoms: CB_24  and  OG_25 
REMARK   10  A    between atoms: N_26  and  CA_27 
REMARK   11  A    between atoms: CA_27  and  C_28 
REMARK   12  A    between atoms: CA_27  and  CB_30 
REMARK       I    between atoms: C_28  and  N_34 
REMARK   13  A    between atoms: CB_30  and  CG_31 
REMARK       I    between atoms: CG_31  and  ND2_33 
REMARK   14  A    between atoms: CA_35  and  C_36 
REMARK       I    between atoms: C_36  and  N_41 
REMARK   15  A    between atoms: CA_42  and  C_43 
REMARK       I    between atoms: C_43  and  N_48 
REMARK   16  A    between atoms: CA_49  and  C_50 
REMARK       I    between atoms: C_50  and  N_55 
REMARK   17  A    between atoms: N_55  and  CA_56 
REMARK   18  A    between atoms: CA_56  and  C_57 
REMARK   19  A    between atoms: CA_56  and  CB_59 
REMARK       I    between atoms: C_57  and  N_66 
REMARK   20  A    between atoms: CB_59  and  CG_60 
REMARK   21  A    between atoms: CG_60  and  CD_61 
REMARK   22  A    between atoms: CD_61  and  NE_62 
REMARK       I    between atoms: NE_62  and  CZ_63 
REMARK       I    between atoms: CZ_63  and  NH1_64 
REMARK   23  A    between atoms: CA_67  and  C_68 
REMARK       I    between atoms: C_68  and  N_73 
REMARK   24  A    between atoms: CA_74  and  C_75 
ROOT
ATOM      1  C   PRO d   1      56.736  40.832  24.586  0.00  0.00     0.243 C 
ATOM      2  O   PRO d   1      57.422  39.811  24.657  0.00  0.00    -0.271 OA
ATOM      3  N   PRO d   1      56.136  41.368  25.639  0.00  0.00    -0.337 N 
ATOM      4  CA  PRO d   1      56.113  40.683  26.923  0.00  0.00     0.092 C 
ATOM      5  CB  PRO d   1      55.345  41.657  27.827  0.00  0.00    -0.036 C 
ATOM      6  CG  PRO d   1      54.536  42.478  26.873  0.00  0.00    -0.048 C 
ATOM      7  CD  PRO d   1      55.446  42.672  25.686  0.00  0.00    -0.001 C 
ATOM      8  H40 PRO d   1      57.120  40.462  27.308  0.00  0.00     0.087 H 
ATOM      9  H41 PRO d   1      56.040  42.292  28.397  0.00  0.00     0.036 H 
ATOM     10  H42 PRO d   1      54.692  41.111  28.524  0.00  0.00     0.036 H 
ATOM     11  H43 PRO d   1      54.269  43.446  27.322  0.00  0.00     0.035 H 
ATOM     12  H44 PRO d   1      53.620  41.944  26.579  0.00  0.00     0.035 H 
ATOM     13  H45 PRO d   1      54.874  42.859  24.765  0.00  0.00     0.064 H 
ATOM     14  H46 PRO d   1      56.154  43.497  25.851  0.00  0.00     0.064 H 
ENDROOT
BRANCH   1  15
ATOM     15  CA  PRO d   1      56.558  41.568  23.261  0.00  0.00     0.092 C 
ATOM     16  N   PRO d   1      57.709  41.370  22.377  0.00  0.00    -0.337 N 
ATOM     17  C   ASN d   1      58.905  41.830  22.718  0.00  0.00     0.243 C 
ATOM     18  CD  PRO d   1      57.347  40.652  21.143  0.00  0.00    -0.001 C 
ATOM     19  O   ASN d   1      59.100  42.460  23.758  0.00  0.00    -0.271 OA
ATOM     20  CG  PRO d   1      55.884  40.934  21.030  0.00  0.00    -0.048 C 
ATOM     21  H38 PRO d   1      57.539  39.573  21.239  0.00  0.00     0.064 H 
ATOM     22  H39 PRO d   1      57.897  41.047  20.276  0.00  0.00     0.064 H 
ATOM     23  CB  PRO d   1      55.400  40.959  22.470  0.00  0.00    -0.036 C 
ATOM     24  H36 PRO d   1      55.710  41.904  20.542  0.00  0.00     0.035 H 
ATOM     25  H37 PRO d   1      55.376  40.141  20.461  0.00  0.00     0.035 H 
ATOM     26  H34 PRO d   1      54.497  41.580  22.564  0.00  0.00     0.036 H 
ATOM     27  H35 PRO d   1      55.183  39.940  22.823  0.00  0.00     0.036 H 
ATOM     28  H33 PRO d   1      56.389  42.638  23.453  0.00  0.00     0.087 H 
BRANCH  17  29
ATOM     29  CA  ASN d   1      60.058  41.566  21.765  0.00  0.00     0.097 C 
ATOM     30  H28 ASN d   1      59.701  41.648  20.728  0.00  0.00     0.088 H 
BRANCH  29  31
ATOM     31  N   ASN d   1      61.073  42.562  22.009  0.00  0.00    -0.345 N 
ATOM     32  C   SER d   1      61.734  43.172  21.039  0.00  0.00     0.243 C 
ATOM     33  O   SER d   1      61.594  42.899  19.842  0.00  0.00    -0.271 OA
ATOM     34  H27 ASN d   1      61.287  42.803  22.956  0.00  0.00     0.163 HD
BRANCH  32  35
ATOM     35  CA  SER d   1      62.705  44.244  21.476  0.00  0.00     0.109 C 
ATOM     36  H23 SER d   1      62.183  45.203  21.345  0.00  0.00     0.090 H 
BRANCH  35  37
ATOM     37  N   SER d   1      63.158  44.212  22.857  0.00  0.00    -0.344 N 
ATOM     38  C   PRO d   1      62.481  44.784  23.849  0.00  0.00     0.241 C 
ATOM     39  O   PRO d   1      61.365  45.292  23.720  0.00  0.00    -0.271 OA
ATOM     40  H22 SER d   1      64.014  43.741  23.070  0.00  0.00     0.163 HD
BRANCH  38  41
ATOM     41  CA  PRO d   1      63.126  44.719  25.216  0.00  0.00     0.091 C 
ATOM     42  N   PRO d   1      62.706  45.836  26.067  0.00  0.00    -0.337 N 
ATOM     43  C   PRO d   1      62.833  47.104  25.690  0.00  0.00     0.243 C 
ATOM     44  CD  PRO d   1      62.156  45.379  27.355  0.00  0.00    -0.001 C 
ATOM     45  O   PRO d   1      63.369  47.448  24.627  0.00  0.00    -0.271 OA
ATOM     46  CG  PRO d   1      62.476  43.906  27.370  0.00  0.00    -0.048 C 
ATOM     47  H20 PRO d   1      61.070  45.546  27.400  0.00  0.00     0.064 H 
ATOM     48  H21 PRO d   1      62.642  45.896  28.196  0.00  0.00     0.064 H 
ATOM     49  CB  PRO d   1      62.578  43.490  25.954  0.00  0.00    -0.036 C 
ATOM     50  H18 PRO d   1      63.429  43.728  27.889  0.00  0.00     0.035 H 
ATOM     51  H19 PRO d   1      61.674  43.347  27.875  0.00  0.00     0.035 H 
ATOM     52  H16 PRO d   1      63.266  42.638  25.850  0.00  0.00     0.036 H 
ATOM     53  H17 PRO d   1      61.589  43.212  25.561  0.00  0.00     0.036 H 
ATOM     54  H15 PRO d   1      64.221  44.684  25.118  0.00  0.00     0.087 H 
BRANCH  43  55
ATOM     55  CA  PRO d   1      62.300  48.155  26.661  0.00  0.00     0.092 C 
ATOM     56  N   PRO d   1      62.780  49.491  26.303  0.00  0.00    -0.337 N 
ATOM     57  C   GLN d   1      64.055  49.820  26.448  0.00  0.00     0.250 C 
ATOM     58  CD  PRO d   1      61.715  50.368  25.785  0.00  0.00    -0.001 C 
ATOM     59  O   GLN d   1      64.886  49.044  26.925  0.00  0.00    -0.271 OA
ATOM     60  CG  PRO d   1      60.537  49.427  25.651  0.00  0.00    -0.048 C 
ATOM     61  H13 PRO d   1      61.993  50.795  24.810  0.00  0.00     0.064 H 
ATOM     62  H14 PRO d   1      61.493  51.181  26.492  0.00  0.00     0.064 H 
ATOM     63  CB  PRO d   1      60.776  48.278  26.538  0.00  0.00    -0.036 C 
ATOM     64  H11 PRO d   1      59.611  49.942  25.947  0.00  0.00     0.035 H 
ATOM     65  H12 PRO d   1      60.449  49.084  24.610  0.00  0.00     0.035 H 
ATOM     66  H9  PRO d   1      60.325  48.456  27.525  0.00  0.00     0.036 H 
ATOM     67  H10 PRO d   1      60.352  47.362  26.101  0.00  0.00     0.036 H 
ATOM     68  H8  PRO d   1      62.594  47.892  27.688  0.00  0.00     0.087 H 
BRANCH  57  69
ATOM     69  CA  GLN d   1      64.439  51.243  26.020  0.00  0.00     0.172 C 
ATOM     70  H4  GLN d   1      63.564  51.687  25.522  0.00  0.00     0.098 H 
BRANCH  69  71
ATOM     71  N   GLN d   1      64.778  52.107  27.196  0.00  0.00    -0.067 N 
ATOM     72  H1  GLN d   1      65.024  53.030  26.875  0.00  0.00     0.275 HD
ATOM     73  H2  GLN d   1      65.557  51.706  27.694  0.00  0.00     0.275 HD
ATOM     74  H3  GLN d   1      63.981  52.166  27.810  0.00  0.00     0.275 HD
ENDBRANCH  69  71
BRANCH  69  75
ATOM     75  CB  GLN d   1      65.594  51.222  25.007  0.00  0.00    -0.042 C 
ATOM     76  H5  GLN d   1      65.322  50.583  24.154  0.00  0.00     0.030 H 
ATOM     77  H6  GLN d   1      66.498  50.824  25.490  0.00  0.00     0.030 H 
ATOM     78  H7  GLN d   1      65.788  52.245  24.651  0.00  0.00     0.030 H 
ENDBRANCH  69  75
ENDBRANCH  57  69
ENDBRANCH  43  55
ENDBRANCH  38  41
ENDBRANCH  35  37
BRANCH  35  79
ATOM     79  CB  SER d   1      63.915  44.242  20.551  0.00  0.00     0.044 C 
ATOM     80  H24 SER d   1      63.630  43.844  19.566  0.00  0.00     0.077 H 
ATOM     81  H25 SER d   1      64.713  43.619  20.982  0.00  0.00     0.077 H 
BRANCH  79  82
ATOM     82  OG  SER d   1      64.365  45.566  20.417  0.00  0.00    -0.398 OA
ATOM     83  H26 SER d   1      64.606  45.905  21.271  0.00  0.00     0.209 HD
ENDBRANCH  79  82
ENDBRANCH  35  79
ENDBRANCH  32  35
ENDBRANCH  29  31
BRANCH  29  84
ATOM     84  CB  ASN d   1      60.639  40.169  21.983  0.00  0.00     0.036 C 
ATOM     85  H29 ASN d   1      59.817  39.438  21.969  0.00  0.00     0.051 H 
ATOM     86  H30 ASN d   1      61.137  40.142  22.963  0.00  0.00     0.051 H 
BRANCH  84  87
ATOM     87  CG  ASN d   1      61.647  39.791  20.913  0.00  0.00     0.217 C 
ATOM     88  OD1 ASN d   1      61.272  39.405  19.802  0.00  0.00    -0.274 OA
ATOM     89  ND2 ASN d   1      62.925  39.902  21.237  0.00  0.00    -0.370 N 
ATOM     90  H31 ASN d   1      63.632  39.666  20.570  0.00  0.00     0.159 HD
ATOM     91  H32 ASN d   1      63.184  40.222  22.148  0.00  0.00     0.159 HD
ENDBRANCH  84  87
ENDBRANCH  29  84
ENDBRANCH  17  29
ENDBRANCH   1  15
BRANCH   4  92
ATOM     92  C   PRO d   1      55.294  39.410  26.730  0.00  0.00     0.243 C 
ATOM     93  O   PRO d   1      54.509  39.308  25.781  0.00  0.00    -0.271 OA
ATOM     94  N   PRO d   1      55.501  38.435  27.596  0.00  0.00    -0.337 N 
ATOM     95  CA  PRO d   1      54.685  37.220  27.580  0.00  0.00     0.091 C 
ATOM     96  CD  PRO d   1      56.513  38.406  28.660  0.00  0.00    -0.001 C 
ATOM     97  CB  PRO d   1      55.207  36.453  28.790  0.00  0.00    -0.036 C 
ATOM     98  H47 PRO d   1      54.784  36.652  26.643  0.00  0.00     0.087 H 
ATOM     99  CG  PRO d   1      55.822  37.541  29.662  0.00  0.00    -0.048 C 
ATOM    100  H48 PRO d   1      55.965  35.714  28.490  0.00  0.00     0.036 H 
ATOM    101  H49 PRO d   1      54.386  35.944  29.317  0.00  0.00     0.036 H 
ATOM    102  H50 PRO d   1      56.538  37.117  30.381  0.00  0.00     0.035 H 
ATOM    103  H51 PRO d   1      55.046  38.102  30.204  0.00  0.00     0.035 H 
ATOM    104  H52 PRO d   1      56.713  39.411  29.059  0.00  0.00     0.064 H 
ATOM    105  H53 PRO d   1      57.455  37.955  28.314  0.00  0.00     0.064 H 
BRANCH  95 106
ATOM    106  C   PRO d   1      53.249  37.620  27.839  0.00  0.00     0.241 C 
ATOM    107  O   PRO d   1      53.019  38.715  28.374  0.00  0.00    -0.271 OA
ATOM    108  N   ARG d   1      52.304  36.762  27.472  0.00  0.00    -0.346 N 
ATOM    109  H54 ARG d   1      52.564  35.935  26.973  0.00  0.00     0.163 HD
BRANCH 108 110
ATOM    110  CA  ARG d   1      50.899  36.994  27.778  0.00  0.00     0.089 C 
ATOM    111  H55 ARG d   1      50.584  37.976  27.395  0.00  0.00     0.087 H 
BRANCH 110 112
ATOM    112  C   ARG d   1      50.781  36.953  29.296  0.00  0.00     0.243 C 
ATOM    113  O   ARG d   1      51.628  36.353  29.969  0.00  0.00    -0.271 OA
ATOM    114  N   PRO d   1      49.748  37.589  29.845  0.00  0.00    -0.337 N 
ATOM    115  CA  PRO d   1      49.515  37.548  31.286  0.00  0.00     0.092 C 
ATOM    116  CD  PRO d   1      48.736  38.390  29.139  0.00  0.00    -0.001 C 
ATOM    117  CB  PRO d   1      48.136  38.192  31.434  0.00  0.00    -0.036 C 
ATOM    118  H67 PRO d   1      50.287  38.097  31.846  0.00  0.00     0.087 H 
ATOM    119  CG  PRO d   1      47.989  39.069  30.239  0.00  0.00    -0.048 C 
ATOM    120  H68 PRO d   1      48.084  38.786  32.358  0.00  0.00     0.036 H 
ATOM    121  H69 PRO d   1      47.350  37.423  31.448  0.00  0.00     0.036 H 
ATOM    122  H70 PRO d   1      48.419  40.062  30.438  0.00  0.00     0.035 H 
ATOM    123  H71 PRO d   1      46.928  39.176  29.971  0.00  0.00     0.035 H 
ATOM    124  H72 PRO d   1      48.067  37.745  28.550  0.00  0.00     0.064 H 
ATOM    125  H73 PRO d   1      49.212  39.127  28.476  0.00  0.00     0.064 H 
BRANCH 115 126
ATOM    126  C   PRO d   1      49.453  36.096  31.735  0.00  0.00     0.243 C 
ATOM    127  O   PRO d   1      48.942  35.250  30.999  0.00  0.00    -0.271 OA
ATOM    128  N   PRO d   1      49.945  35.813  32.931  0.00  0.00    -0.346 N 
ATOM    129  CA  PRO d   1      49.929  34.452  33.468  0.00  0.00     0.011 C 
ATOM    130  CD  PRO d   1      50.539  36.780  33.863  0.00  0.00    -0.002 C 
ATOM    131  CB  PRO d   1      50.519  34.616  34.872  0.00  0.00    -0.045 C 
ATOM    132  H74 PRO d   1      50.535  33.772  32.851  0.00  0.00     0.072 H 
ATOM    133  CG  PRO d   1      51.257  35.900  34.836  0.00  0.00    -0.048 C 
ATOM    134  H78 PRO d   1      51.202  33.785  35.103  0.00  0.00     0.036 H 
ATOM    135  H79 PRO d   1      49.718  34.653  35.625  0.00  0.00     0.036 H 
ATOM    136  H80 PRO d   1      52.292  35.733  34.504  0.00  0.00     0.035 H 
ATOM    137  H81 PRO d   1      51.262  36.363  35.834  0.00  0.00     0.035 H 
ATOM    138  H82 PRO d   1      49.762  37.376  34.365  0.00  0.00     0.064 H 
ATOM    139  H83 PRO d   1      51.239  37.452  33.345  0.00  0.00     0.064 H 
BRANCH 129 140
ATOM    140  C   PRO d   1      48.499  33.928  33.577  0.00  0.00    -0.057 C 
ATOM    141  H75 PRO d   1      48.513  32.906  33.982  0.00  0.00     0.030 H 
ATOM    142  H76 PRO d   1      48.034  33.921  32.580  0.00  0.00     0.030 H 
ATOM    143  H77 PRO d   1      47.920  34.580  34.247  0.00  0.00     0.030 H 
ENDBRANCH 129 140
ENDBRANCH 115 126
ENDBRANCH 110 112
BRANCH 110 144
ATOM    144  CB  ARG d   1      50.023  35.902  27.163  0.00  0.00    -0.036 C 
ATOM    145  H56 ARG d   1      49.009  36.004  27.577  0.00  0.00     0.036 H 
ATOM    146  H57 ARG d   1      50.441  34.926  27.452  0.00  0.00     0.036 H 
BRANCH 144 147
ATOM    147  CG  ARG d   1      49.919  35.940  25.646  0.00  0.00    -0.048 C 
ATOM    148  H58 ARG d   1      49.448  35.003  25.313  0.00  0.00     0.035 H 
ATOM    149  H59 ARG d   1      50.938  36.004  25.236  0.00  0.00     0.035 H 
BRANCH 147 150
ATOM    150  CD  ARG d   1      49.111  37.099  25.082  0.00  0.00     0.009 C 
ATOM    151  H60 ARG d   1      49.096  37.008  23.986  0.00  0.00     0.064 H 
ATOM    152  H61 ARG d   1      49.610  38.038  25.365  0.00  0.00     0.064 H 
BRANCH 150 153
ATOM    153  NE  ARG d   1      47.729  37.152  25.557  0.00  0.00    -0.227 N 
ATOM    154  CZ  ARG d   1      46.754  36.339  25.163  0.00  0.00     0.665 C 
ATOM    155  NH1 ARG d   1      47.000  35.391  24.274  0.00  0.00    -0.235 N 
ATOM    156  NH2 ARG d   1      45.525  36.485  25.644  0.00  0.00    -0.235 N 
ATOM    157  H63 ARG d   1      46.244  34.762  23.970  0.00  0.00     0.174 HD
ATOM    158  H64 ARG d   1      47.948  35.282  23.886  0.00  0.00     0.174 HD
ATOM    159  H65 ARG d   1      45.327  37.221  26.337  0.00  0.00     0.174 HD
ATOM    160  H66 ARG d   1      44.770  35.862  25.325  0.00  0.00     0.174 HD
ATOM    161  H62 ARG d   1      47.493  37.876  26.251  0.00  0.00     0.177 HD
ENDBRANCH 150 153
ENDBRANCH 147 150
ENDBRANCH 144 147
ENDBRANCH 110 144
ENDBRANCH 108 110
ENDBRANCH  95 106
ENDBRANCH   4  92
TORSDOF 24
