REMARK  3 active torsions:
REMARK  status: ('A' for Active; 'I' for Inactive)
REMARK    1  A    between atoms: C6_8  and  N1_9 
REMARK    2  A    between atoms: C13_17  and  C22_28 
REMARK    3  A    between atoms: C15_19  and  C16_20 
ROOT
ATOM      1  N1  358 d   1      23.054  10.421  30.955  0.00  0.00    -0.279 N 
ATOM      2  C7  358 d   1      22.567   9.305  30.265  0.00  0.00     0.229 C 
ATOM      3  O1  358 d   1      23.146   8.247  30.161  0.00  0.00    -0.273 OA
ATOM      4  C8  358 d   1      21.157   9.463  29.599  0.00  0.00     0.014 C 
ATOM      5  C9  358 d   1      20.158  10.256  30.512  0.00  0.00    -0.030 C 
ATOM      6  C10 358 d   1      20.936  11.660  30.895  0.00  0.00    -0.019 A 
ATOM      7  C11 358 d   1      22.330  11.646  31.072  0.00  0.00     0.050 A 
ATOM      8  C12 358 d   1      22.969  12.941  31.404  0.00  0.00    -0.049 A 
ATOM      9  C13 358 d   1      22.247  14.161  31.546  0.00  0.00    -0.044 A 
ATOM     10  C14 358 d   1      20.803  14.082  31.360  0.00  0.00    -0.064 A 
ATOM     11  C15 358 d   1      20.106  12.854  31.033  0.00  0.00    -0.014 A 
ATOM     12  H4  358 d   1      20.742   8.463  29.405  0.00  0.00     0.047 H 
ATOM     13  H5  358 d   1      21.273  10.003  28.648  0.00  0.00     0.047 H 
ATOM     14  H6  358 d   1      19.929   9.682  31.422  0.00  0.00     0.041 H 
ATOM     15  H7  358 d   1      19.226  10.469  29.969  0.00  0.00     0.041 H 
ATOM     16  H8  358 d   1      24.043  12.961  31.547  0.00  0.00     0.087 H 
ATOM     17  H9  358 d   1      20.220  14.989  31.472  0.00  0.00     0.085 H 
ENDROOT
BRANCH   9  18
ATOM     18  C22 358 d   1      22.991  15.502  31.905  0.00  0.00     0.007 C 
ATOM     19  C23 358 d   1      22.162  16.836  32.269  0.00  0.00    -0.077 C 
ATOM     20  C24 358 d   1      22.449  18.146  31.438  0.00  0.00    -0.026 C 
ATOM     21  H14 358 d   1      21.422  16.833  33.068  0.00  0.00     0.080 H 
ATOM     22  N2  358 d   1      23.796  18.186  30.862  0.00  0.00    -0.376 N 
ATOM     23  H15 358 d   1      21.718  18.942  31.305  0.00  0.00     0.110 H 
ATOM     24  C25 358 d   1      24.015  17.057  29.962  0.00  0.00    -0.026 C 
ATOM     25  H16 358 d   1      24.496  18.914  31.065  0.00  0.00     0.164 HD
ATOM     26  C26 358 d   1      24.086  15.750  30.763  0.00  0.00    -0.077 C 
ATOM     27  H17 358 d   1      24.114  17.132  28.880  0.00  0.00     0.110 H 
ATOM     28  H18 358 d   1      24.860  15.011  30.560  0.00  0.00     0.080 H 
ATOM     29  H13 358 d   1      23.546  15.278  32.828  0.00  0.00     0.059 H 
ENDBRANCH   9  18
BRANCH  11  30
ATOM     30  C16 358 d   1      18.607  12.901  30.886  0.00  0.00     0.013 A 
ATOM     31  C17 358 d   1      17.929  13.575  29.804  0.00  0.00    -0.066 A 
ATOM     32  C18 358 d   1      16.487  13.551  29.750  0.00  0.00    -0.045 A 
ATOM     33  H10 358 d   1      18.497  14.094  29.040  0.00  0.00     0.085 H 
ATOM     34  C19 358 d   1      15.756  12.857  30.771  0.00  0.00     0.119 A 
ATOM     35  H11 358 d   1      15.961  14.053  28.946  0.00  0.00     0.088 H 
ATOM     36  F1  358 d   1      14.426  12.828  30.719  0.00  0.00    -0.206 F 
ATOM     37  C20 358 d   1      16.402  12.195  31.843  0.00  0.00    -0.008 A 
ATOM     38  C21 358 d   1      17.797  12.218  31.896  0.00  0.00     0.130 A 
ATOM     39  H12 358 d   1      15.827  11.682  32.605  0.00  0.00     0.093 H 
ATOM     40  F2  358 d   1      18.324  11.557  32.950  0.00  0.00    -0.205 F 
ENDBRANCH  11  30
BRANCH   1  41
ATOM     41  C6  358 d   1      24.323  10.319  31.596  0.00  0.00     0.086 A 
ATOM     42  C1  358 d   1      25.545  10.650  30.929  0.00  0.00     0.063 A 
ATOM     43 CL1  358 d   1      25.461  11.192  29.327  0.00  0.00    -0.082 Cl
ATOM     44  C2  358 d   1      26.812  10.551  31.565  0.00  0.00    -0.060 A 
ATOM     45  C3  358 d   1      26.867  10.104  32.929  0.00  0.00    -0.080 A 
ATOM     46  H1  358 d   1      27.720  10.808  31.031  0.00  0.00     0.086 H 
ATOM     47  C4  358 d   1      25.663   9.764  33.641  0.00  0.00    -0.060 A 
ATOM     48  H2  358 d   1      27.826  10.022  33.428  0.00  0.00     0.083 H 
ATOM     49  C5  358 d   1      24.411   9.878  32.957  0.00  0.00     0.063 A 
ATOM     50  H3  358 d   1      25.704   9.429  34.671  0.00  0.00     0.086 H 
ATOM     51 CL2  358 d   1      22.937   9.491  33.773  0.00  0.00    -0.082 Cl
ENDBRANCH   1  41
TORSDOF 3
