REMARK  3 active torsions:
REMARK  status: ('A' for Active; 'I' for Inactive)
REMARK    1  A    between atoms: C1_1  and  N_9 
REMARK    2  A    between atoms: N_9  and  C11_13 
REMARK    3  A    between atoms: C9_11  and  S_10 
ROOT
ATOM      1  C1  NON d   1       0.926  -7.428   6.155  0.00  0.00     0.045 A 
ATOM      2  C2  NON d   1       2.218  -7.036   5.881  0.00  0.00    -0.056 A 
ATOM      3  C3  NON d   1       2.499  -6.062   4.933  0.00  0.00    -0.080 A 
ATOM      4  C4  NON d   1       1.475  -5.425   4.251  0.00  0.00    -0.072 A 
ATOM      5  C5  NON d   1       0.179  -5.779   4.511  0.00  0.00    -0.022 A 
ATOM      6  C6  NON d   1      -0.807  -5.087   3.809  0.00  0.00    -0.072 A 
ATOM      7  C7  NON d   1      -2.129  -5.372   4.000  0.00  0.00    -0.081 A 
ATOM      8  C8  NON d   1      -2.497  -6.335   4.916  0.00  0.00    -0.058 A 
ATOM      9  C9  NON d   1      -1.529  -7.015   5.637  0.00  0.00     0.094 A 
ATOM     10  C10 NON d   1      -0.143  -6.758   5.458  0.00  0.00     0.025 A 
ATOM     11  H1  NON d   1       3.036  -7.500   6.420  0.00  0.00     0.086 H 
ATOM     12  H2  NON d   1       3.529  -5.797   4.724  0.00  0.00     0.083 H 
ATOM     13  H3  NON d   1       1.698  -4.656   3.521  0.00  0.00     0.084 H 
ATOM     14  H4  NON d   1      -0.521  -4.315   3.104  0.00  0.00     0.084 H 
ATOM     15  H5  NON d   1      -2.887  -4.843   3.433  0.00  0.00     0.083 H 
ATOM     16  H6  NON d   1      -3.546  -6.560   5.072  0.00  0.00     0.086 H 
ENDROOT
BRANCH   1  17
ATOM     17  N   NON d   1       0.651  -8.448   7.033  0.00  0.00    -0.355 N 
ATOM     18  H7  NON d   1      -0.360  -8.451   7.230  0.00  0.00     0.166 HD
BRANCH  17  19
ATOM     19  C11 NON d   1       1.224  -9.434   7.720  0.00  0.00     0.032 A 
ATOM     20  C12 NON d   1       0.499  -9.766   8.894  0.00  0.00    -0.057 A 
ATOM     21  C13 NON d   1       0.937 -10.707   9.820  0.00  0.00    -0.081 A 
ATOM     22  H8  NON d   1      -0.443  -9.261   9.078  0.00  0.00     0.086 H 
ATOM     23  C14 NON d   1       2.125 -11.381   9.548  0.00  0.00    -0.083 A 
ATOM     24  H9  NON d   1       0.372 -10.909  10.723  0.00  0.00     0.083 H 
ATOM     25  C15 NON d   1       2.858 -11.100   8.404  0.00  0.00    -0.081 A 
ATOM     26  H10 NON d   1       2.482 -12.136  10.240  0.00  0.00     0.083 H 
ATOM     27  C16 NON d   1       2.421 -10.098   7.490  0.00  0.00    -0.057 A 
ATOM     28  H11 NON d   1       3.772 -11.648   8.204  0.00  0.00     0.083 H 
ATOM     29  H12 NON d   1       3.020  -9.856   6.620  0.00  0.00     0.086 H 
ENDBRANCH  17  19
ENDBRANCH   1  17
BRANCH   9  30
ATOM     30  S   NON d   1      -2.210  -8.299   6.731  0.00  0.00     0.138 S 
ATOM     31  O3  NON d   1      -3.612  -8.654   6.308  0.00  0.00    -0.591 OA
ATOM     32  O2  NON d   1      -2.109  -7.911   8.164  0.00  0.00    -0.591 OA
ATOM     33  O1  NON d   1      -1.481  -9.590   6.454  0.00  0.00    -0.591 OA
ENDBRANCH   9  30
TORSDOF 3
