REMARK WARNING: 32 MAX_TORS EXCEEDED!!!
REMARK  60 active torsions:
REMARK  status: ('A' for Active; 'I' for Inactive)
REMARK    1  A    between atoms: N_1  and  CA_2 
REMARK    2  A    between atoms: CA_2  and  C_3 
REMARK    3  A    between atoms: CA_2  and  CB_5 
REMARK       I    between atoms: C_3  and  N_8 
REMARK    4  A    between atoms: CB_5  and  OG1_6 
REMARK    5  A    between atoms: CB_5  and  CG2_7 
REMARK    6  A    between atoms: N_8  and  CA_9 
REMARK    7  A    between atoms: CA_9  and  C_10 
REMARK    8  A    between atoms: CA_9  and  CB_12 
REMARK       I    between atoms: C_10  and  N_19 
REMARK    9  A    between atoms: CB_12  and  CG_13 
REMARK   10  A    between atoms: CG_13  and  CD_14 
REMARK   11  A    between atoms: CD_14  and  NE_15 
REMARK       I    between atoms: NE_15  and  CZ_16 
REMARK       I    between atoms: CZ_16  and  NH1_17 
REMARK   12  A    between atoms: N_19  and  CA_20 
REMARK   13  A    between atoms: CA_20  and  C_21 
REMARK   14  A    between atoms: CA_20  and  CB_23 
REMARK       I    between atoms: C_21  and  N_28 
REMARK   15  A    between atoms: CB_23  and  CG_24 
REMARK   16  A    between atoms: CG_24  and  CD_25 
REMARK   17  A    between atoms: N_28  and  CA_29 
REMARK   18  A    between atoms: CA_29  and  C_30 
REMARK   19  A    between atoms: CA_29  and  CB_32 
REMARK       I    between atoms: C_30  and  N_36 
REMARK   20  A    between atoms: CB_32  and  CG_33 
REMARK   21  A    between atoms: CG_33  and  CD1_34 
REMARK   22  A    between atoms: CG_33  and  CD2_35 
REMARK   23  A    between atoms: N_36  and  CA_37 
REMARK   24  A    between atoms: CA_37  and  C_38 
REMARK   25  A    between atoms: CA_37  and  CB_40 
REMARK       I    between atoms: C_38  and  N_44 
REMARK   26  A    between atoms: CB_40  and  CG_41 
REMARK   27  A    between atoms: N_44  and  CA_45 
REMARK   28  A    between atoms: CA_45  and  C_46 
REMARK   29  A    between atoms: CA_45  and  CB_48 
REMARK       I    between atoms: C_46  and  N_53 
REMARK   30  A    between atoms: CB_48  and  CG_49 
REMARK   31  A    between atoms: CG_49  and  CD_50 
REMARK   32  A    between atoms: N_53  and  CA_54 
REMARK   33  A    between atoms: CA_54  and  C_55 
REMARK   34  A    between atoms: CA_54  and  CB_57 
REMARK       I    between atoms: C_55  and  N_61 
REMARK   35  A    between atoms: CB_57  and  CG_58 
REMARK   36  A    between atoms: CG_58  and  CD1_59 
REMARK   37  A    between atoms: CG_58  and  CD2_60 
REMARK   38  A    between atoms: N_61  and  CA_62 
REMARK   39  A    between atoms: CA_62  and  C_63 
REMARK   40  A    between atoms: CA_62  and  CB_65 
REMARK       I    between atoms: C_63  and  N_69 
REMARK   41  A    between atoms: CB_65  and  CG_66 
REMARK   42  A    between atoms: CG_66  and  SD_67 
REMARK   43  A    between atoms: SD_67  and  CE_68 
REMARK   44  A    between atoms: N_69  and  CA_70 
REMARK   45  A    between atoms: CA_70  and  C_71 
REMARK   46  A    between atoms: CA_70  and  CB_73 
REMARK       I    between atoms: C_71  and  N_74 
REMARK   47  A    between atoms: N_74  and  CA_75 
REMARK   48  A    between atoms: CA_75  and  C_76 
REMARK   49  A    between atoms: CA_75  and  CB_78 
REMARK       I    between atoms: C_76  and  N_80 
REMARK   50  A    between atoms: CB_78  and  OG_79 
REMARK   51  A    between atoms: N_80  and  CA_81 
REMARK   52  A    between atoms: CA_81  and  C_82 
REMARK   53  A    between atoms: CA_81  and  CB_84 
REMARK       I    between atoms: C_82  and  N_88 
REMARK   54  A    between atoms: CB_84  and  CG_85 
REMARK   55  A    between atoms: CG_85  and  CD1_86 
REMARK   56  A    between atoms: CG_85  and  CD2_87 
REMARK   57  A    between atoms: N_88  and  CA_89 
REMARK   58  A    between atoms: CA_89  and  C_90 
REMARK   59  A    between atoms: CA_89  and  CB_92 
REMARK   60  A    between atoms: CB_92  and  OG_93 
ROOT
ATOM      1  CA  GLU d   1      29.840  28.746  17.224  0.00  0.00     0.090 C 
ATOM      2  H45 GLU d   1      29.533  28.104  16.386  0.00  0.00     0.087 H 
ENDROOT
BRANCH   1   3
ATOM      3  N   GLU d   1      28.648  29.385  17.807  0.00  0.00    -0.346 N 
ATOM      4  C   ASP d   1      27.664  28.661  18.330  0.00  0.00     0.241 C 
ATOM      5  O   ASP d   1      27.607  27.438  18.198  0.00  0.00    -0.271 OA
ATOM      6  H44 GLU d   1      28.578  30.383  17.809  0.00  0.00     0.163 HD
BRANCH   4   7
ATOM      7  CA  ASP d   1      26.629  29.410  19.176  0.00  0.00     0.098 C 
ATOM      8  H41 ASP d   1      26.378  28.758  20.026  0.00  0.00     0.088 H 
BRANCH   7   9
ATOM      9  N   ASP d   1      27.112  30.673  19.736  0.00  0.00    -0.346 N 
ATOM     10  C   LEU d   1      27.823  30.751  20.856  0.00  0.00     0.241 C 
ATOM     11  O   LEU d   1      28.096  29.775  21.558  0.00  0.00    -0.271 OA
ATOM     12  H40 ASP d   1      26.896  31.520  19.251  0.00  0.00     0.163 HD
BRANCH  10  13
ATOM     13  CA  LEU d   1      28.304  32.148  21.238  0.00  0.00     0.089 C 
ATOM     14  H30 LEU d   1      29.265  32.061  21.766  0.00  0.00     0.087 H 
BRANCH  13  15
ATOM     15  N   LEU d   1      28.499  32.993  20.055  0.00  0.00    -0.346 N 
ATOM     16  C   GLU d   1      29.457  32.819  19.143  0.00  0.00     0.241 C 
ATOM     17  O   GLU d   1      30.337  31.962  19.257  0.00  0.00    -0.271 OA
ATOM     18  H29 LEU d   1      27.867  33.756  19.922  0.00  0.00     0.163 HD
BRANCH  16  19
ATOM     19  CA  GLU d   1      29.422  33.716  17.893  0.00  0.00     0.090 C 
ATOM     20  H24 GLU d   1      29.884  33.136  17.081  0.00  0.00     0.087 H 
BRANCH  19  21
ATOM     21  N   GLU d   1      28.063  34.059  17.429  0.00  0.00    -0.346 N 
ATOM     22  C   ARG d   1      27.213  33.161  16.921  0.00  0.00     0.241 C 
ATOM     23  O   ARG d   1      27.527  31.991  16.688  0.00  0.00    -0.271 OA
ATOM     24  H23 GLU d   1      27.763  35.011  17.498  0.00  0.00     0.163 HD
BRANCH  22  25
ATOM     25  CA  ARG d   1      25.768  33.595  16.645  0.00  0.00     0.089 C 
ATOM     26  H11 ARG d   1      25.142  32.691  16.613  0.00  0.00     0.087 H 
BRANCH  25  27
ATOM     27  N   ARG d   1      25.287  34.440  17.743  0.00  0.00    -0.346 N 
ATOM     28  C   THR d   1      24.933  33.902  18.908  0.00  0.00     0.251 C 
ATOM     29  O   THR d   1      24.873  32.685  19.083  0.00  0.00    -0.271 OA
ATOM     30  H10 ARG d   1      25.224  35.430  17.615  0.00  0.00     0.163 HD
BRANCH  28  31
ATOM     31  CA  THR d   1      24.620  34.856  20.055  0.00  0.00     0.199 C 
ATOM     32  H4  THR d   1      25.290  34.608  20.892  0.00  0.00     0.103 H 
BRANCH  31  33
ATOM     33  N   THR d   1      24.871  36.274  19.669  0.00  0.00    -0.064 N 
ATOM     34  H1  THR d   1      25.824  36.373  19.356  0.00  0.00     0.275 HD
ATOM     35  H2  THR d   1      24.715  36.872  20.466  0.00  0.00     0.275 HD
ATOM     36  H3  THR d   1      24.244  36.536  18.925  0.00  0.00     0.275 HD
ENDBRANCH  31  33
BRANCH  31  37
ATOM     37  CB  THR d   1      23.163  34.682  20.539  0.00  0.00     0.068 C 
ATOM     38  H5  THR d   1      22.479  35.119  19.797  0.00  0.00     0.086 H 
BRANCH  37  39
ATOM     39  OG1 THR d   1      23.034  35.327  21.818  0.00  0.00    -0.393 OA
ATOM     40  H6  THR d   1      22.143  35.230  22.132  0.00  0.00     0.210 HD
ENDBRANCH  37  39
BRANCH  37  41
ATOM     41  CG2 THR d   1      22.766  33.226  20.835  0.00  0.00    -0.050 C 
ATOM     42  H7  THR d   1      21.719  33.193  21.172  0.00  0.00     0.031 H 
ATOM     43  H8  THR d   1      23.418  32.821  21.623  0.00  0.00     0.031 H 
ATOM     44  H9  THR d   1      22.877  32.623  19.922  0.00  0.00     0.031 H 
ENDBRANCH  37  41
ENDBRANCH  31  37
ENDBRANCH  28  31
ENDBRANCH  25  27
BRANCH  25  45
ATOM     45  CB  ARG d   1      25.636  34.300  15.287  0.00  0.00    -0.036 C 
ATOM     46  H12 ARG d   1      26.642  34.385  14.851  0.00  0.00     0.036 H 
ATOM     47  H13 ARG d   1      25.228  35.306  15.467  0.00  0.00     0.036 H 
BRANCH  45  48
ATOM     48  CG  ARG d   1      24.737  33.604  14.262  0.00  0.00    -0.048 C 
ATOM     49  H14 ARG d   1      23.771  33.381  14.739  0.00  0.00     0.035 H 
ATOM     50  H15 ARG d   1      25.220  32.665  13.955  0.00  0.00     0.035 H 
BRANCH  48  51
ATOM     51  CD  ARG d   1      24.476  34.452  13.006  0.00  0.00     0.009 C 
ATOM     52  H16 ARG d   1      24.468  33.781  12.135  0.00  0.00     0.064 H 
ATOM     53  H17 ARG d   1      25.298  35.176  12.904  0.00  0.00     0.064 H 
BRANCH  51  54
ATOM     54  NE  ARG d   1      23.211  35.196  13.022  0.00  0.00    -0.227 N 
ATOM     55  CZ  ARG d   1      22.869  36.196  12.204  0.00  0.00     0.665 C 
ATOM     56  NH1 ARG d   1      23.697  36.634  11.262  0.00  0.00    -0.235 N 
ATOM     57  NH2 ARG d   1      21.677  36.776  12.321  0.00  0.00    -0.235 N 
ATOM     58  H19 ARG d   1      23.411  37.406  10.643  0.00  0.00     0.174 HD
ATOM     59  H20 ARG d   1      24.625  36.201  11.150  0.00  0.00     0.174 HD
ATOM     60  H21 ARG d   1      21.017  36.455  13.043  0.00  0.00     0.174 HD
ATOM     61  H22 ARG d   1      21.415  37.546  11.689  0.00  0.00     0.174 HD
ATOM     62  H18 ARG d   1      22.519  34.920  13.733  0.00  0.00     0.177 HD
ENDBRANCH  51  54
ENDBRANCH  48  51
ENDBRANCH  45  48
ENDBRANCH  25  45
ENDBRANCH  22  25
ENDBRANCH  19  21
BRANCH  19  63
ATOM     63  CB  GLU d   1      30.300  34.967  18.104  0.00  0.00    -0.029 C 
ATOM     64  H25 GLU d   1      31.355  34.657  18.079  0.00  0.00     0.037 H 
ATOM     65  H26 GLU d   1      30.066  35.391  19.091  0.00  0.00     0.037 H 
BRANCH  63  66
ATOM     66  CG  GLU d   1      30.095  36.056  17.053  0.00  0.00     0.018 C 
ATOM     67  H27 GLU d   1      29.142  36.560  17.272  0.00  0.00     0.049 H 
ATOM     68  H28 GLU d   1      30.034  35.567  16.070  0.00  0.00     0.049 H 
BRANCH  66  69
ATOM     69  CD  GLU d   1      31.179  37.124  16.975  0.00  0.00     0.172 C 
ATOM     70  OE1 GLU d   1      31.349  37.925  17.919  0.00  0.00    -0.648 OA
ATOM     71  OE2 GLU d   1      31.854  37.204  15.927  0.00  0.00    -0.648 OA
ENDBRANCH  66  69
ENDBRANCH  63  66
ENDBRANCH  19  63
ENDBRANCH  16  19
ENDBRANCH  13  15
BRANCH  13  72
ATOM     72  CB  LEU d   1      27.271  32.776  22.178  0.00  0.00    -0.035 C 
ATOM     73  H31 LEU d   1      26.368  32.973  21.582  0.00  0.00     0.037 H 
ATOM     74  H32 LEU d   1      27.692  33.729  22.532  0.00  0.00     0.037 H 
BRANCH  72  75
ATOM     75  CG  LEU d   1      26.833  31.988  23.415  0.00  0.00    -0.059 C 
ATOM     76  H33 LEU d   1      26.502  30.993  23.082  0.00  0.00     0.038 H 
BRANCH  75  77
ATOM     77  CD1 LEU d   1      28.002  31.811  24.362  0.00  0.00    -0.073 C 
ATOM     78  H34 LEU d   1      27.675  31.244  25.246  0.00  0.00     0.028 H 
ATOM     79  H35 LEU d   1      28.372  32.798  24.676  0.00  0.00     0.028 H 
ATOM     80  H36 LEU d   1      28.807  31.262  23.852  0.00  0.00     0.028 H 
ENDBRANCH  75  77
BRANCH  75  81
ATOM     81  CD2 LEU d   1      25.676  32.648  24.141  0.00  0.00    -0.073 C 
ATOM     82  H37 LEU d   1      24.831  32.773  23.447  0.00  0.00     0.028 H 
ATOM     83  H38 LEU d   1      25.992  33.633  24.515  0.00  0.00     0.028 H 
ATOM     84  H39 LEU d   1      25.366  32.017  24.986  0.00  0.00     0.028 H 
ENDBRANCH  75  81
ENDBRANCH  72  75
ENDBRANCH  13  72
ENDBRANCH  10  13
ENDBRANCH   7   9
BRANCH   7  85
ATOM     85  CB  ASP d   1      25.345  29.642  18.372  0.00  0.00     0.043 C 
ATOM     86  H42 ASP d   1      25.125  28.736  17.789  0.00  0.00     0.052 H 
ATOM     87  H43 ASP d   1      25.505  30.488  17.688  0.00  0.00     0.052 H 
BRANCH  85  88
ATOM     88  CG  ASP d   1      24.150  29.952  19.262  0.00  0.00     0.175 C 
ATOM     89  OD1 ASP d   1      24.142  29.496  20.429  0.00  0.00    -0.648 OA
ATOM     90  OD2 ASP d   1      23.183  30.658  18.887  0.00  0.00    -0.648 OA
ENDBRANCH  85  88
ENDBRANCH   7  85
ENDBRANCH   4   7
ENDBRANCH   1   3
BRANCH   1  91
ATOM     91  C   GLU d   1      30.530  27.906  18.301  0.00  0.00     0.241 C 
ATOM     92  O   GLU d   1      31.001  26.802  18.020  0.00  0.00    -0.271 OA
ATOM     93  N   LEU d   1      30.546  28.466  19.514  0.00  0.00    -0.346 N 
ATOM     94  H50 LEU d   1      30.219  29.409  19.573  0.00  0.00     0.163 HD
BRANCH  93  95
ATOM     95  CA  LEU d   1      30.991  27.848  20.771  0.00  0.00     0.089 C 
ATOM     96  H51 LEU d   1      31.978  27.401  20.580  0.00  0.00     0.087 H 
BRANCH  95  97
ATOM     97  C   LEU d   1      30.094  26.772  21.373  0.00  0.00     0.241 C 
ATOM     98  O   LEU d   1      30.563  25.701  21.753  0.00  0.00    -0.271 OA
ATOM     99  N   MET d   1      28.806  27.052  21.510  0.00  0.00    -0.346 N 
ATOM    100  H61 MET d   1      28.450  27.960  21.290  0.00  0.00     0.163 HD
BRANCH  99 101
ATOM    101  CA  MET d   1      27.925  25.998  21.990  0.00  0.00     0.090 C 
ATOM    102  H62 MET d   1      28.281  25.671  22.978  0.00  0.00     0.087 H 
BRANCH 101 103
ATOM    103  C   MET d   1      27.925  24.784  21.061  0.00  0.00     0.241 C 
ATOM    104  O   MET d   1      27.808  23.642  21.523  0.00  0.00    -0.271 OA
ATOM    105  N   ALA d   1      28.097  25.027  19.762  0.00  0.00    -0.346 N 
ATOM    106  H70 ALA d   1      28.148  25.978  19.456  0.00  0.00     0.163 HD
BRANCH 105 107
ATOM    107  CA  ALA d   1      28.215  23.963  18.765  0.00  0.00     0.086 C 
ATOM    108  H71 ALA d   1      27.449  23.208  18.994  0.00  0.00     0.086 H 
BRANCH 107 109
ATOM    109  C   ALA d   1      29.575  23.252  18.767  0.00  0.00     0.240 C 
ATOM    110  O   ALA d   1      29.688  22.156  18.219  0.00  0.00    -0.271 OA
ATOM    111  N   SER d   1      30.596  23.865  19.362  0.00  0.00    -0.344 N 
ATOM    112  H75 SER d   1      30.446  24.795  19.697  0.00  0.00     0.163 HD
BRANCH 111 113
ATOM    113  CA  SER d   1      31.926  23.275  19.562  0.00  0.00     0.109 C 
ATOM    114  H76 SER d   1      32.266  22.881  18.593  0.00  0.00     0.090 H 
BRANCH 113 115
ATOM    115  C   SER d   1      31.968  22.151  20.594  0.00  0.00     0.243 C 
ATOM    116  O   SER d   1      32.914  21.357  20.621  0.00  0.00    -0.271 OA
ATOM    117  N   LEU d   1      30.964  22.118  21.468  0.00  0.00    -0.346 N 
ATOM    118  H80 LEU d   1      30.273  22.840  21.437  0.00  0.00     0.163 HD
BRANCH 117 119
ATOM    119  CA  LEU d   1      30.837  21.060  22.473  0.00  0.00     0.089 C 
ATOM    120  H81 LEU d   1      31.827  20.602  22.615  0.00  0.00     0.087 H 
BRANCH 119 121
ATOM    121  C   LEU d   1      29.885  19.960  21.979  0.00  0.00     0.241 C 
ATOM    122  O   LEU d   1      29.698  18.928  22.639  0.00  0.00    -0.271 OA
ATOM    123  N   SER d   1      29.309  20.216  20.803  0.00  0.00    -0.343 N 
ATOM    124  H91 SER d   1      29.476  21.113  20.394  0.00  0.00     0.163 HD
BRANCH 123 125
ATOM    125  CA  SER d   1      28.454  19.289  20.067  0.00  0.00     0.116 C 
ATOM    126  H92 SER d   1      28.264  19.733  19.078  0.00  0.00     0.093 H 
BRANCH 125 127
ATOM    127  C   SER d   1      27.095  19.107  20.744  0.00  0.00     0.198 C 
ATOM    128  O   SER d   1      26.441  20.073  21.140  0.00  0.00    -0.646 OA
ATOM    129  OXT SER d   1      26.574  17.994  20.920  0.00  0.00    -0.646 OA
ENDBRANCH 125 127
BRANCH 125 130
ATOM    130  CB  SER d   1      29.175  17.956  19.836  0.00  0.00     0.045 C 
ATOM    131  H93 SER d   1      28.587  17.340  19.140  0.00  0.00     0.077 H 
ATOM    132  H94 SER d   1      29.278  17.428  20.795  0.00  0.00     0.077 H 
BRANCH 130 133
ATOM    133  OG  SER d   1      30.461  18.184  19.287  0.00  0.00    -0.398 OA
ATOM    134  H95 SER d   1      30.897  17.351  19.149  0.00  0.00     0.209 HD
ENDBRANCH 130 133
ENDBRANCH 125 130
ENDBRANCH 123 125
ENDBRANCH 119 121
BRANCH 119 135
ATOM    135  CB  LEU d   1      30.408  21.669  23.821  0.00  0.00    -0.035 C 
ATOM    136  H82 LEU d   1      30.327  20.847  24.547  0.00  0.00     0.037 H 
ATOM    137  H83 LEU d   1      29.420  22.131  23.678  0.00  0.00     0.037 H 
BRANCH 135 138
ATOM    138  CG  LEU d   1      31.335  22.732  24.425  0.00  0.00    -0.059 C 
ATOM    139  H84 LEU d   1      31.693  23.370  23.603  0.00  0.00     0.038 H 
BRANCH 138 140
ATOM    140  CD1 LEU d   1      30.573  23.605  25.392  0.00  0.00    -0.073 C 
ATOM    141  H85 LEU d   1      31.251  24.361  25.816  0.00  0.00     0.028 H 
ATOM    142  H86 LEU d   1      30.164  22.984  26.202  0.00  0.00     0.028 H 
ATOM    143  H87 LEU d   1      29.750  24.107  24.863  0.00  0.00     0.028 H 
ENDBRANCH 138 140
BRANCH 138 144
ATOM    144  CD2 LEU d   1      32.560  22.114  25.095  0.00  0.00    -0.073 C 
ATOM    145  H88 LEU d   1      33.096  21.484  24.370  0.00  0.00     0.028 H 
ATOM    146  H89 LEU d   1      32.240  21.499  25.949  0.00  0.00     0.028 H 
ATOM    147  H90 LEU d   1      33.227  22.914  25.449  0.00  0.00     0.028 H 
ENDBRANCH 138 144
ENDBRANCH 135 138
ENDBRANCH 119 135
ENDBRANCH 117 119
ENDBRANCH 113 115
BRANCH 113 148
ATOM    148  CB  SER d   1      32.927  24.315  20.070  0.00  0.00     0.044 C 
ATOM    149  H77 SER d   1      33.776  23.791  20.533  0.00  0.00     0.077 H 
ATOM    150  H78 SER d   1      32.430  24.944  20.823  0.00  0.00     0.077 H 
BRANCH 148 151
ATOM    151  OG  SER d   1      33.417  25.147  19.036  0.00  0.00    -0.398 OA
ATOM    152  H79 SER d   1      32.692  25.611  18.634  0.00  0.00     0.209 HD
ENDBRANCH 148 151
ENDBRANCH 113 148
ENDBRANCH 111 113
ENDBRANCH 107 109
BRANCH 107 153
ATOM    153  CB  ALA d   1      27.926  24.533  17.383  0.00  0.00    -0.049 C 
ATOM    154  H72 ALA d   1      28.014  23.735  16.631  0.00  0.00     0.030 H 
ATOM    155  H73 ALA d   1      28.649  25.331  17.157  0.00  0.00     0.030 H 
ATOM    156  H74 ALA d   1      26.906  24.945  17.362  0.00  0.00     0.030 H 
ENDBRANCH 107 153
ENDBRANCH 105 107
ENDBRANCH 101 103
BRANCH 101 157
ATOM    157  CB  MET d   1      26.517  26.564  22.142  0.00  0.00    -0.030 C 
ATOM    158  H63 MET d   1      25.815  25.728  22.277  0.00  0.00     0.037 H 
ATOM    159  H64 MET d   1      26.259  27.116  21.226  0.00  0.00     0.037 H 
BRANCH 157 160
ATOM    160  CG  MET d   1      26.386  27.505  23.329  0.00  0.00    -0.021 C 
ATOM    161  H65 MET d   1      25.318  27.645  23.550  0.00  0.00     0.049 H 
ATOM    162  H66 MET d   1      26.835  28.473  23.061  0.00  0.00     0.049 H 
BRANCH 160 163
ATOM    163  SD  MET d   1      27.208  26.877  24.819  0.00  0.00    -0.173 SA
BRANCH 163 164
ATOM    164  CE  MET d   1      25.976  25.752  25.461  0.00  0.00    -0.035 C 
ATOM    165  H67 MET d   1      26.349  25.288  26.386  0.00  0.00     0.041 H 
ATOM    166  H68 MET d   1      25.770  24.969  24.716  0.00  0.00     0.041 H 
ATOM    167  H69 MET d   1      25.050  26.306  25.676  0.00  0.00     0.041 H 
ENDBRANCH 163 164
ENDBRANCH 160 163
ENDBRANCH 157 160
ENDBRANCH 101 157
ENDBRANCH  99 101
ENDBRANCH  95  97
BRANCH  95 168
ATOM    168  CB  LEU d   1      31.116  28.914  21.860  0.00  0.00    -0.035 C 
ATOM    169  H52 LEU d   1      31.441  28.413  22.784  0.00  0.00     0.037 H 
ATOM    170  H53 LEU d   1      30.120  29.356  22.013  0.00  0.00     0.037 H 
BRANCH 168 171
ATOM    171  CG  LEU d   1      32.095  30.056  21.578  0.00  0.00    -0.059 C 
ATOM    172  H54 LEU d   1      31.874  30.454  20.577  0.00  0.00     0.038 H 
BRANCH 171 173
ATOM    173  CD1 LEU d   1      31.764  31.113  22.612  0.00  0.00    -0.073 C 
ATOM    174  H55 LEU d   1      32.430  31.978  22.478  0.00  0.00     0.028 H 
ATOM    175  H56 LEU d   1      31.903  30.696  23.620  0.00  0.00     0.028 H 
ATOM    176  H57 LEU d   1      30.719  31.432  22.488  0.00  0.00     0.028 H 
ENDBRANCH 171 173
BRANCH 171 177
ATOM    177  CD2 LEU d   1      33.604  29.691  21.588  0.00  0.00    -0.073 C 
ATOM    178  H58 LEU d   1      33.800  28.923  20.825  0.00  0.00     0.028 H 
ATOM    179  H59 LEU d   1      33.881  29.302  22.579  0.00  0.00     0.028 H 
ATOM    180  H60 LEU d   1      34.200  30.589  21.366  0.00  0.00     0.028 H 
ENDBRANCH 171 177
ENDBRANCH 168 171
ENDBRANCH  95 168
ENDBRANCH  93  95
ENDBRANCH   1  91
BRANCH   1 181
ATOM    181  CB  GLU d   1      30.851  29.787  16.726  0.00  0.00    -0.029 C 
ATOM    182  H46 GLU d   1      31.654  29.252  16.197  0.00  0.00     0.037 H 
ATOM    183  H47 GLU d   1      31.269  30.299  17.605  0.00  0.00     0.037 H 
BRANCH 181 184
ATOM    184  CG  GLU d   1      30.297  30.850  15.784  0.00  0.00     0.018 C 
ATOM    185  H48 GLU d   1      30.884  31.771  15.912  0.00  0.00     0.049 H 
ATOM    186  H49 GLU d   1      29.248  31.043  16.053  0.00  0.00     0.049 H 
BRANCH 184 187
ATOM    187  CD  GLU d   1      30.353  30.442  14.326  0.00  0.00     0.172 C 
ATOM    188  OE1 GLU d   1      31.335  30.860  13.678  0.00  0.00    -0.648 OA
ATOM    189  OE2 GLU d   1      29.442  29.715  13.868  0.00  0.00    -0.648 OA
ENDBRANCH 184 187
ENDBRANCH 181 184
ENDBRANCH   1 181
TORSDOF 60
