REMARK WARNING: 32 MAX_TORS EXCEEDED!!!
REMARK  60 active torsions:
REMARK  status: ('A' for Active; 'I' for Inactive)
REMARK    1  A    between atoms: N_1  and  CA_2 
REMARK    2  A    between atoms: CA_2  and  C_3 
REMARK    3  A    between atoms: CA_2  and  CB_5 
REMARK       I    between atoms: C_3  and  N_8 
REMARK    4  A    between atoms: CB_5  and  OG1_6 
REMARK    5  A    between atoms: CB_5  and  CG2_7 
REMARK    6  A    between atoms: N_8  and  CA_9 
REMARK    7  A    between atoms: CA_9  and  C_10 
REMARK    8  A    between atoms: CA_9  and  CB_12 
REMARK       I    between atoms: C_10  and  N_19 
REMARK    9  A    between atoms: CB_12  and  CG_13 
REMARK   10  A    between atoms: CG_13  and  CD_14 
REMARK   11  A    between atoms: CD_14  and  NE_15 
REMARK       I    between atoms: NE_15  and  CZ_16 
REMARK       I    between atoms: CZ_16  and  NH1_17 
REMARK   12  A    between atoms: N_19  and  CA_20 
REMARK   13  A    between atoms: CA_20  and  C_21 
REMARK   14  A    between atoms: CA_20  and  CB_23 
REMARK       I    between atoms: C_21  and  N_28 
REMARK   15  A    between atoms: CB_23  and  CG_24 
REMARK   16  A    between atoms: CG_24  and  CD_25 
REMARK   17  A    between atoms: N_28  and  CA_29 
REMARK   18  A    between atoms: CA_29  and  C_30 
REMARK   19  A    between atoms: CA_29  and  CB_32 
REMARK       I    between atoms: C_30  and  N_36 
REMARK   20  A    between atoms: CB_32  and  CG_33 
REMARK   21  A    between atoms: CG_33  and  CD1_34 
REMARK   22  A    between atoms: CG_33  and  CD2_35 
REMARK   23  A    between atoms: N_36  and  CA_37 
REMARK   24  A    between atoms: CA_37  and  C_38 
REMARK   25  A    between atoms: CA_37  and  CB_40 
REMARK       I    between atoms: C_38  and  N_44 
REMARK   26  A    between atoms: CB_40  and  CG_41 
REMARK   27  A    between atoms: N_44  and  CA_45 
REMARK   28  A    between atoms: CA_45  and  C_46 
REMARK   29  A    between atoms: CA_45  and  CB_48 
REMARK       I    between atoms: C_46  and  N_53 
REMARK   30  A    between atoms: CB_48  and  CG_49 
REMARK   31  A    between atoms: CG_49  and  CD_50 
REMARK   32  A    between atoms: N_53  and  CA_54 
REMARK   33  A    between atoms: CA_54  and  C_55 
REMARK   34  A    between atoms: CA_54  and  CB_57 
REMARK       I    between atoms: C_55  and  N_61 
REMARK   35  A    between atoms: CB_57  and  CG_58 
REMARK   36  A    between atoms: CG_58  and  CD1_59 
REMARK   37  A    between atoms: CG_58  and  CD2_60 
REMARK   38  A    between atoms: N_61  and  CA_62 
REMARK   39  A    between atoms: CA_62  and  C_63 
REMARK   40  A    between atoms: CA_62  and  CB_65 
REMARK       I    between atoms: C_63  and  N_69 
REMARK   41  A    between atoms: CB_65  and  CG_66 
REMARK   42  A    between atoms: CG_66  and  SD_67 
REMARK   43  A    between atoms: SD_67  and  CE_68 
REMARK   44  A    between atoms: N_69  and  CA_70 
REMARK   45  A    between atoms: CA_70  and  C_71 
REMARK   46  A    between atoms: CA_70  and  CB_73 
REMARK       I    between atoms: C_71  and  N_74 
REMARK   47  A    between atoms: N_74  and  CA_75 
REMARK   48  A    between atoms: CA_75  and  C_76 
REMARK   49  A    between atoms: CA_75  and  CB_78 
REMARK       I    between atoms: C_76  and  N_80 
REMARK   50  A    between atoms: CB_78  and  OG_79 
REMARK   51  A    between atoms: N_80  and  CA_81 
REMARK   52  A    between atoms: CA_81  and  C_82 
REMARK   53  A    between atoms: CA_81  and  CB_84 
REMARK       I    between atoms: C_82  and  N_88 
REMARK   54  A    between atoms: CB_84  and  CG_85 
REMARK   55  A    between atoms: CG_85  and  CD1_86 
REMARK   56  A    between atoms: CG_85  and  CD2_87 
REMARK   57  A    between atoms: N_88  and  CA_89 
REMARK   58  A    between atoms: CA_89  and  C_90 
REMARK   59  A    between atoms: CA_89  and  CB_92 
REMARK   60  A    between atoms: CB_92  and  OG_93 
ROOT
ATOM      1  CA  GLU d   1      30.026  28.274  17.228  0.00  0.00     0.090 C 
ATOM      2  H45 GLU d   1      29.689  27.648  16.389  0.00  0.00     0.087 H 
ENDROOT
BRANCH   1   3
ATOM      3  N   GLU d   1      28.913  28.887  17.940  0.00  0.00    -0.346 N 
ATOM      4  C   ASP d   1      27.859  28.179  18.329  0.00  0.00     0.241 C 
ATOM      5  O   ASP d   1      27.704  26.984  18.053  0.00  0.00    -0.271 OA
ATOM      6  H44 GLU d   1      28.943  29.866  18.141  0.00  0.00     0.163 HD
BRANCH   4   7
ATOM      7  CA  ASP d   1      26.816  28.943  19.126  0.00  0.00     0.098 C 
ATOM      8  H41 ASP d   1      26.531  28.318  19.985  0.00  0.00     0.088 H 
BRANCH   7   9
ATOM      9  N   ASP d   1      27.343  30.199  19.648  0.00  0.00    -0.346 N 
ATOM     10  C   LEU d   1      28.022  30.257  20.794  0.00  0.00     0.241 C 
ATOM     11  O   LEU d   1      28.248  29.257  21.479  0.00  0.00    -0.271 OA
ATOM     12  H40 ASP d   1      27.191  31.041  19.131  0.00  0.00     0.163 HD
BRANCH  10  13
ATOM     13  CA  LEU d   1      28.512  31.654  21.236  0.00  0.00     0.089 C 
ATOM     14  H30 LEU d   1      29.512  31.584  21.689  0.00  0.00     0.087 H 
BRANCH  13  15
ATOM     15  N   LEU d   1      28.556  32.484  20.033  0.00  0.00    -0.346 N 
ATOM     16  C   GLU d   1      29.473  32.320  19.079  0.00  0.00     0.241 C 
ATOM     17  O   GLU d   1      30.399  31.507  19.169  0.00  0.00    -0.271 OA
ATOM     18  H29 LEU d   1      27.871  33.204  19.921  0.00  0.00     0.163 HD
BRANCH  16  19
ATOM     19  CA  GLU d   1      29.332  33.226  17.841  0.00  0.00     0.090 C 
ATOM     20  H24 GLU d   1      29.794  32.721  16.980  0.00  0.00     0.087 H 
BRANCH  19  21
ATOM     21  N   GLU d   1      27.910  33.445  17.559  0.00  0.00    -0.346 N 
ATOM     22  C   ARG d   1      27.141  32.556  16.918  0.00  0.00     0.241 C 
ATOM     23  O   ARG d   1      27.556  31.469  16.508  0.00  0.00    -0.271 OA
ATOM     24  H23 GLU d   1      27.493  34.302  17.861  0.00  0.00     0.163 HD
BRANCH  22  25
ATOM     25  CA  ARG d   1      25.665  32.945  16.745  0.00  0.00     0.089 C 
ATOM     26  H11 ARG d   1      25.038  32.041  16.751  0.00  0.00     0.087 H 
BRANCH  25  27
ATOM     27  N   ARG d   1      25.346  33.780  17.902  0.00  0.00    -0.346 N 
ATOM     28  C   THR d   1      25.002  33.203  19.051  0.00  0.00     0.251 C 
ATOM     29  O   THR d   1      24.912  31.986  19.165  0.00  0.00    -0.271 OA
ATOM     30  H10 ARG d   1      25.386  34.777  17.831  0.00  0.00     0.163 HD
BRANCH  28  31
ATOM     31  CA  THR d   1      24.720  34.109  20.244  0.00  0.00     0.199 C 
ATOM     32  H4  THR d   1      25.450  33.869  21.031  0.00  0.00     0.103 H 
BRANCH  31  33
ATOM     33  N   THR d   1      24.896  35.543  19.882  0.00  0.00    -0.064 N 
ATOM     34  H1  THR d   1      25.825  35.686  19.517  0.00  0.00     0.275 HD
ATOM     35  H2  THR d   1      24.766  36.115  20.702  0.00  0.00     0.275 HD
ATOM     36  H3  THR d   1      24.217  35.799  19.182  0.00  0.00     0.275 HD
ENDBRANCH  31  33
BRANCH  31  37
ATOM     37  CB  THR d   1      23.281  33.839  20.820  0.00  0.00     0.068 C 
ATOM     38  H5  THR d   1      22.535  34.275  20.139  0.00  0.00     0.086 H 
BRANCH  37  39
ATOM     39  OG1 THR d   1      23.173  34.449  22.113  0.00  0.00    -0.393 OA
ATOM     40  H6  THR d   1      22.306  34.289  22.466  0.00  0.00     0.210 HD
ENDBRANCH  37  39
BRANCH  37  41
ATOM     41  CG2 THR d   1      23.001  32.345  20.981  0.00  0.00    -0.050 C 
ATOM     42  H7  THR d   1      21.988  32.203  21.385  0.00  0.00     0.031 H 
ATOM     43  H8  THR d   1      23.736  31.907  21.672  0.00  0.00     0.031 H 
ATOM     44  H9  THR d   1      23.078  31.850  20.002  0.00  0.00     0.031 H 
ENDBRANCH  37  41
ENDBRANCH  31  37
ENDBRANCH  28  31
ENDBRANCH  25  27
BRANCH  25  45
ATOM     45  CB  ARG d   1      25.427  33.702  15.421  0.00  0.00    -0.036 C 
ATOM     46  H12 ARG d   1      26.386  34.120  15.081  0.00  0.00     0.036 H 
ATOM     47  H13 ARG d   1      24.717  34.520  15.610  0.00  0.00     0.036 H 
BRANCH  45  48
ATOM     48  CG  ARG d   1      24.860  32.814  14.303  0.00  0.00    -0.048 C 
ATOM     49  H14 ARG d   1      23.911  32.378  14.648  0.00  0.00     0.035 H 
ATOM     50  H15 ARG d   1      25.580  32.009  14.095  0.00  0.00     0.035 H 
BRANCH  48  51
ATOM     51  CD  ARG d   1      24.600  33.588  13.002  0.00  0.00     0.009 C 
ATOM     52  H16 ARG d   1      24.445  32.863  12.189  0.00  0.00     0.064 H 
ATOM     53  H17 ARG d   1      25.484  34.204  12.780  0.00  0.00     0.064 H 
BRANCH  51  54
ATOM     54  NE  ARG d   1      23.428  34.464  13.073  0.00  0.00    -0.227 N 
ATOM     55  CZ  ARG d   1      22.910  35.120  12.032  0.00  0.00     0.665 C 
ATOM     56  NH1 ARG d   1      23.456  35.007  10.827  0.00  0.00    -0.235 N 
ATOM     57  NH2 ARG d   1      21.837  35.887  12.191  0.00  0.00    -0.235 N 
ATOM     58  H19 ARG d   1      23.051  35.516  10.028  0.00  0.00     0.174 HD
ATOM     59  H20 ARG d   1      24.285  34.410  10.691  0.00  0.00     0.174 HD
ATOM     60  H21 ARG d   1      21.405  35.982  13.121  0.00  0.00     0.174 HD
ATOM     61  H22 ARG d   1      21.437  36.387  11.384  0.00  0.00     0.174 HD
ATOM     62  H18 ARG d   1      22.972  34.582  13.989  0.00  0.00     0.177 HD
ENDBRANCH  51  54
ENDBRANCH  48  51
ENDBRANCH  45  48
ENDBRANCH  25  45
ENDBRANCH  22  25
ENDBRANCH  19  21
BRANCH  19  63
ATOM     63  CB  GLU d   1      30.038  34.574  18.056  0.00  0.00    -0.029 C 
ATOM     64  H25 GLU d   1      31.112  34.392  18.207  0.00  0.00     0.037 H 
ATOM     65  H26 GLU d   1      29.618  35.056  18.951  0.00  0.00     0.037 H 
BRANCH  63  66
ATOM     66  CG  GLU d   1      29.859  35.510  16.861  0.00  0.00     0.018 C 
ATOM     67  H27 GLU d   1      28.926  36.075  17.003  0.00  0.00     0.049 H 
ATOM     68  H28 GLU d   1      29.782  34.896  15.951  0.00  0.00     0.049 H 
BRANCH  66  69
ATOM     69  CD  GLU d   1      31.003  36.514  16.667  0.00  0.00     0.172 C 
ATOM     70  OE1 GLU d   1      31.118  37.494  17.442  0.00  0.00    -0.648 OA
ATOM     71  OE2 GLU d   1      31.799  36.314  15.724  0.00  0.00    -0.648 OA
ENDBRANCH  66  69
ENDBRANCH  63  66
ENDBRANCH  19  63
ENDBRANCH  16  19
ENDBRANCH  13  15
BRANCH  13  72
ATOM     72  CB  LEU d   1      27.521  32.251  22.251  0.00  0.00    -0.035 C 
ATOM     73  H31 LEU d   1      26.622  32.555  21.694  0.00  0.00     0.037 H 
ATOM     74  H32 LEU d   1      27.997  33.139  22.692  0.00  0.00     0.037 H 
BRANCH  72  75
ATOM     75  CG  LEU d   1      27.063  31.352  23.408  0.00  0.00    -0.059 C 
ATOM     76  H33 LEU d   1      26.764  30.375  23.002  0.00  0.00     0.038 H 
BRANCH  75  77
ATOM     77  CD1 LEU d   1      28.194  31.161  24.371  0.00  0.00    -0.073 C 
ATOM     78  H34 LEU d   1      27.865  30.517  25.200  0.00  0.00     0.028 H 
ATOM     79  H35 LEU d   1      28.507  32.138  24.768  0.00  0.00     0.028 H 
ATOM     80  H36 LEU d   1      29.041  30.688  23.853  0.00  0.00     0.028 H 
ENDBRANCH  75  77
BRANCH  75  81
ATOM     81  CD2 LEU d   1      25.895  31.956  24.134  0.00  0.00    -0.073 C 
ATOM     82  H37 LEU d   1      25.061  32.099  23.431  0.00  0.00     0.028 H 
ATOM     83  H38 LEU d   1      26.189  32.928  24.557  0.00  0.00     0.028 H 
ATOM     84  H39 LEU d   1      25.580  31.284  24.945  0.00  0.00     0.028 H 
ENDBRANCH  75  81
ENDBRANCH  72  75
ENDBRANCH  13  72
ENDBRANCH  10  13
ENDBRANCH   7   9
BRANCH   7  85
ATOM     85  CB  ASP d   1      25.556  29.192  18.287  0.00  0.00     0.043 C 
ATOM     86  H42 ASP d   1      25.416  28.346  17.598  0.00  0.00     0.052 H 
ATOM     87  H43 ASP d   1      25.693  30.117  17.708  0.00  0.00     0.052 H 
BRANCH  85  88
ATOM     88  CG  ASP d   1      24.306  29.334  19.151  0.00  0.00     0.175 C 
ATOM     89  OD1 ASP d   1      24.196  28.570  20.137  0.00  0.00    -0.648 OA
ATOM     90  OD2 ASP d   1      23.443  30.188  18.845  0.00  0.00    -0.648 OA
ENDBRANCH  85  88
ENDBRANCH   7  85
ENDBRANCH   4   7
ENDBRANCH   1   3
BRANCH   1  91
ATOM     91  C   GLU d   1      30.674  27.446  18.337  0.00  0.00     0.241 C 
ATOM     92  O   GLU d   1      31.094  26.305  18.128  0.00  0.00    -0.271 OA
ATOM     93  N   LEU d   1      30.721  28.047  19.526  0.00  0.00    -0.346 N 
ATOM     94  H50 LEU d   1      30.358  28.976  19.602  0.00  0.00     0.163 HD
BRANCH  93  95
ATOM     95  CA  LEU d   1      31.275  27.420  20.723  0.00  0.00     0.089 C 
ATOM     96  H51 LEU d   1      32.287  27.056  20.492  0.00  0.00     0.087 H 
BRANCH  95  97
ATOM     97  C   LEU d   1      30.413  26.253  21.184  0.00  0.00     0.241 C 
ATOM     98  O   LEU d   1      30.891  25.129  21.320  0.00  0.00    -0.271 OA
ATOM     99  N   MET d   1      29.144  26.527  21.461  0.00  0.00    -0.346 N 
ATOM    100  H61 MET d   1      28.799  27.460  21.358  0.00  0.00     0.163 HD
BRANCH  99 101
ATOM    101  CA  MET d   1      28.260  25.470  21.913  0.00  0.00     0.090 C 
ATOM    102  H62 MET d   1      28.562  25.166  22.926  0.00  0.00     0.087 H 
BRANCH 101 103
ATOM    103  C   MET d   1      28.377  24.262  20.989  0.00  0.00     0.241 C 
ATOM    104  O   MET d   1      28.250  23.113  21.428  0.00  0.00    -0.271 OA
ATOM    105  N   ALA d   1      28.645  24.532  19.713  0.00  0.00    -0.346 N 
ATOM    106  H70 ALA d   1      28.747  25.487  19.434  0.00  0.00     0.163 HD
BRANCH 105 107
ATOM    107  CA  ALA d   1      28.795  23.486  18.707  0.00  0.00     0.086 C 
ATOM    108  H71 ALA d   1      27.965  22.775  18.836  0.00  0.00     0.086 H 
BRANCH 107 109
ATOM    109  C   ALA d   1      30.109  22.702  18.850  0.00  0.00     0.240 C 
ATOM    110  O   ALA d   1      30.152  21.512  18.545  0.00  0.00    -0.271 OA
ATOM    111  N   SER d   1      31.173  23.364  19.310  0.00  0.00    -0.344 N 
ATOM    112  H75 SER d   1      31.072  24.331  19.542  0.00  0.00     0.163 HD
BRANCH 111 113
ATOM    113  CA  SER d   1      32.488  22.728  19.489  0.00  0.00     0.109 C 
ATOM    114  H76 SER d   1      32.828  22.387  18.500  0.00  0.00     0.090 H 
BRANCH 113 115
ATOM    115  C   SER d   1      32.465  21.520  20.427  0.00  0.00     0.243 C 
ATOM    116  O   SER d   1      33.349  20.658  20.362  0.00  0.00    -0.271 OA
ATOM    117  N   LEU d   1      31.470  21.467  21.309  0.00  0.00    -0.346 N 
ATOM    118  H80 LEU d   1      30.788  22.198  21.319  0.00  0.00     0.163 HD
BRANCH 117 119
ATOM    119  CA  LEU d   1      31.350  20.367  22.264  0.00  0.00     0.089 C 
ATOM    120  H81 LEU d   1      32.328  19.877  22.379  0.00  0.00     0.087 H 
BRANCH 119 121
ATOM    121  C   LEU d   1      30.334  19.346  21.747  0.00  0.00     0.241 C 
ATOM    122  O   LEU d   1      30.163  18.268  22.325  0.00  0.00    -0.271 OA
ATOM    123  N   SER d   1      29.669  19.720  20.653  0.00  0.00    -0.343 N 
ATOM    124  H91 SER d   1      29.880  20.618  20.268  0.00  0.00     0.163 HD
BRANCH 123 125
ATOM    125  CA  SER d   1      28.654  18.913  19.975  0.00  0.00     0.116 C 
ATOM    126  H92 SER d   1      28.515  19.349  18.975  0.00  0.00     0.093 H 
BRANCH 125 127
ATOM    127  C   SER d   1      27.276  18.911  20.653  0.00  0.00     0.198 C 
ATOM    128  O   SER d   1      26.585  19.952  20.549  0.00  0.00    -0.646 OA
ATOM    129  OXT SER d   1      26.912  17.883  21.270  0.00  0.00    -0.646 OA
ENDBRANCH 125 127
BRANCH 125 130
ATOM    130  CB  SER d   1      29.164  17.476  19.792  0.00  0.00     0.045 C 
ATOM    131  H93 SER d   1      28.376  16.874  19.317  0.00  0.00     0.077 H 
ATOM    132  H94 SER d   1      29.404  17.053  20.779  0.00  0.00     0.077 H 
BRANCH 130 133
ATOM    133  OG  SER d   1      30.329  17.440  18.977  0.00  0.00    -0.398 OA
ATOM    134  H95 SER d   1      30.620  16.541  18.882  0.00  0.00     0.209 HD
ENDBRANCH 130 133
ENDBRANCH 125 130
ENDBRANCH 123 125
ENDBRANCH 119 121
BRANCH 119 135
ATOM    135  CB  LEU d   1      30.899  20.915  23.619  0.00  0.00    -0.035 C 
ATOM    136  H82 LEU d   1      31.036  20.122  24.369  0.00  0.00     0.037 H 
ATOM    137  H83 LEU d   1      29.831  21.169  23.545  0.00  0.00     0.037 H 
BRANCH 135 138
ATOM    138  CG  LEU d   1      31.647  22.156  24.101  0.00  0.00    -0.059 C 
ATOM    139  H84 LEU d   1      32.051  22.689  23.228  0.00  0.00     0.038 H 
BRANCH 138 140
ATOM    140  CD1 LEU d   1      30.688  23.076  24.823  0.00  0.00    -0.073 C 
ATOM    141  H85 LEU d   1      31.228  23.970  25.170  0.00  0.00     0.028 H 
ATOM    142  H86 LEU d   1      30.256  22.550  25.687  0.00  0.00     0.028 H 
ATOM    143  H87 LEU d   1      29.883  23.378  24.137  0.00  0.00     0.028 H 
ENDBRANCH 138 140
BRANCH 138 144
ATOM    144  CD2 LEU d   1      32.804  21.746  24.991  0.00  0.00    -0.073 C 
ATOM    145  H88 LEU d   1      33.478  21.079  24.433  0.00  0.00     0.028 H 
ATOM    146  H89 LEU d   1      32.417  21.219  25.876  0.00  0.00     0.028 H 
ATOM    147  H90 LEU d   1      33.356  22.642  25.310  0.00  0.00     0.028 H 
ENDBRANCH 138 144
ENDBRANCH 135 138
ENDBRANCH 119 135
ENDBRANCH 117 119
ENDBRANCH 113 115
BRANCH 113 148
ATOM    148  CB  SER d   1      33.506  23.731  20.039  0.00  0.00     0.044 C 
ATOM    149  H77 SER d   1      34.474  23.223  20.159  0.00  0.00     0.077 H 
ATOM    150  H78 SER d   1      33.156  24.090  21.018  0.00  0.00     0.077 H 
BRANCH 148 151
ATOM    151  OG  SER d   1      33.677  24.840  19.182  0.00  0.00    -0.398 OA
ATOM    152  H79 SER d   1      32.846  25.289  19.077  0.00  0.00     0.209 HD
ENDBRANCH 148 151
ENDBRANCH 113 148
ENDBRANCH 111 113
ENDBRANCH 107 109
BRANCH 107 153
ATOM    153  CB  ALA d   1      28.695  24.092  17.310  0.00  0.00    -0.049 C 
ATOM    154  H72 ALA d   1      28.809  23.298  16.557  0.00  0.00     0.030 H 
ATOM    155  H73 ALA d   1      29.490  24.840  17.177  0.00  0.00     0.030 H 
ATOM    156  H74 ALA d   1      27.714  24.574  17.189  0.00  0.00     0.030 H 
ENDBRANCH 107 153
ENDBRANCH 105 107
ENDBRANCH 101 103
BRANCH 101 157
ATOM    157  CB  MET d   1      26.819  25.979  21.969  0.00  0.00    -0.030 C 
ATOM    158  H63 MET d   1      26.140  25.114  22.007  0.00  0.00     0.037 H 
ATOM    159  H64 MET d   1      26.616  26.565  21.061  0.00  0.00     0.037 H 
BRANCH 157 160
ATOM    160  CG  MET d   1      26.563  26.854  23.181  0.00  0.00    -0.021 C 
ATOM    161  H65 MET d   1      25.478  26.992  23.301  0.00  0.00     0.049 H 
ATOM    162  H66 MET d   1      27.042  27.832  23.025  0.00  0.00     0.049 H 
BRANCH 160 163
ATOM    163  SD  MET d   1      27.234  26.100  24.688  0.00  0.00    -0.173 SA
BRANCH 163 164
ATOM    164  CE  MET d   1      25.995  24.889  25.050  0.00  0.00    -0.035 C 
ATOM    165  H67 MET d   1      26.274  24.340  25.961  0.00  0.00     0.041 H 
ATOM    166  H68 MET d   1      25.913  24.185  24.209  0.00  0.00     0.041 H 
ATOM    167  H69 MET d   1      25.028  25.389  25.205  0.00  0.00     0.041 H 
ENDBRANCH 163 164
ENDBRANCH 160 163
ENDBRANCH 157 160
ENDBRANCH 101 157
ENDBRANCH  99 101
ENDBRANCH  95  97
BRANCH  95 168
ATOM    168  CB  LEU d   1      31.346  28.416  21.875  0.00  0.00    -0.035 C 
ATOM    169  H52 LEU d   1      31.681  27.859  22.762  0.00  0.00     0.037 H 
ATOM    170  H53 LEU d   1      30.325  28.791  22.041  0.00  0.00     0.037 H 
BRANCH 168 171
ATOM    171  CG  LEU d   1      32.247  29.626  21.743  0.00  0.00    -0.059 C 
ATOM    172  H54 LEU d   1      31.932  30.222  20.874  0.00  0.00     0.038 H 
BRANCH 171 173
ATOM    173  CD1 LEU d   1      32.102  30.458  22.992  0.00  0.00    -0.073 C 
ATOM    174  H55 LEU d   1      32.749  31.345  22.919  0.00  0.00     0.028 H 
ATOM    175  H56 LEU d   1      32.397  29.860  23.867  0.00  0.00     0.028 H 
ATOM    176  H57 LEU d   1      31.055  30.776  23.101  0.00  0.00     0.028 H 
ENDBRANCH 171 173
BRANCH 171 177
ATOM    177  CD2 LEU d   1      33.679  29.190  21.538  0.00  0.00    -0.073 C 
ATOM    178  H58 LEU d   1      33.751  28.587  20.621  0.00  0.00     0.028 H 
ATOM    179  H59 LEU d   1      34.006  28.589  22.399  0.00  0.00     0.028 H 
ATOM    180  H60 LEU d   1      34.323  30.077  21.444  0.00  0.00     0.028 H 
ENDBRANCH 171 177
ENDBRANCH 168 171
ENDBRANCH  95 168
ENDBRANCH  93  95
ENDBRANCH   1  91
BRANCH   1 181
ATOM    181  CB  GLU d   1      30.986  29.362  16.729  0.00  0.00    -0.029 C 
ATOM    182  H46 GLU d   1      31.919  28.879  16.403  0.00  0.00     0.037 H 
ATOM    183  H47 GLU d   1      31.200  30.046  17.564  0.00  0.00     0.037 H 
BRANCH 181 184
ATOM    184  CG  GLU d   1      30.435  30.179  15.566  0.00  0.00     0.018 C 
ATOM    185  H48 GLU d   1      30.890  31.180  15.592  0.00  0.00     0.049 H 
ATOM    186  H49 GLU d   1      29.345  30.269  15.684  0.00  0.00     0.049 H 
BRANCH 184 187
ATOM    187  CD  GLU d   1      30.728  29.546  14.216  0.00  0.00     0.172 C 
ATOM    188  OE1 GLU d   1      31.822  29.821  13.673  0.00  0.00    -0.648 OA
ATOM    189  OE2 GLU d   1      29.881  28.771  13.708  0.00  0.00    -0.648 OA
ENDBRANCH 184 187
ENDBRANCH 181 184
ENDBRANCH   1 181
TORSDOF 60
