REMARK WARNING: 32 MAX_TORS EXCEEDED!!!
REMARK  64 active torsions:
REMARK  status: ('A' for Active; 'I' for Inactive)
REMARK    1  A    between atoms: N_1  and  CA_2 
REMARK    2  A    between atoms: CA_2  and  C_3 
REMARK    3  A    between atoms: CA_2  and  CB_5 
REMARK       I    between atoms: C_3  and  N_9 
REMARK    4  A    between atoms: CB_5  and  CG_6 
REMARK    5  A    between atoms: CG_6  and  CD1_7 
REMARK    6  A    between atoms: CG_6  and  CD2_8 
REMARK    7  A    between atoms: N_9  and  CA_10 
REMARK    8  A    between atoms: CA_10  and  C_11 
REMARK    9  A    between atoms: CA_10  and  CB_13 
REMARK       I    between atoms: C_11  and  N_15 
REMARK   10  A    between atoms: CB_13  and  OG_14 
REMARK   11  A    between atoms: N_15  and  CA_16 
REMARK   12  A    between atoms: CA_16  and  C_17 
REMARK   13  A    between atoms: CA_16  and  CB_19 
REMARK       I    between atoms: C_17  and  N_24 
REMARK   14  A    between atoms: CB_19  and  CG_20 
REMARK   15  A    between atoms: CG_20  and  CD_21 
REMARK   16  A    between atoms: N_24  and  CA_25 
REMARK   17  A    between atoms: CA_25  and  C_26 
REMARK   18  A    between atoms: CA_25  and  CB_28 
REMARK       I    between atoms: C_26  and  N_32 
REMARK   19  A    between atoms: CB_28  and  CG_29 
REMARK   20  A    between atoms: CG_29  and  CD1_30 
REMARK   21  A    between atoms: CG_29  and  CD2_31 
REMARK   22  A    between atoms: N_32  and  CA_33 
REMARK   23  A    between atoms: CA_33  and  C_34 
REMARK   24  A    between atoms: CA_33  and  CB_36 
REMARK       I    between atoms: C_34  and  N_40 
REMARK   25  A    between atoms: CB_36  and  CG_37 
REMARK   26  A    between atoms: N_40  and  CA_41 
REMARK   27  A    between atoms: CA_41  and  C_42 
REMARK   28  A    between atoms: CA_41  and  CB_44 
REMARK       I    between atoms: C_42  and  N_51 
REMARK   29  A    between atoms: CB_44  and  CG_45 
REMARK   30  A    between atoms: CG_45  and  CD_46 
REMARK   31  A    between atoms: CD_46  and  NE_47 
REMARK       I    between atoms: NE_47  and  CZ_48 
REMARK       I    between atoms: CZ_48  and  NH1_49 
REMARK   32  A    between atoms: N_51  and  CA_52 
REMARK   33  A    between atoms: CA_52  and  C_53 
REMARK   34  A    between atoms: CA_52  and  CB_55 
REMARK       I    between atoms: C_53  and  N_59 
REMARK   35  A    between atoms: CB_55  and  CG_56 
REMARK   36  A    between atoms: CG_56  and  CD1_57 
REMARK   37  A    between atoms: CG_56  and  CD2_58 
REMARK   38  A    between atoms: N_59  and  CA_60 
REMARK   39  A    between atoms: CA_60  and  C_61 
REMARK   40  A    between atoms: CA_60  and  CB_63 
REMARK       I    between atoms: C_61  and  N_67 
REMARK   41  A    between atoms: CB_63  and  CG_64 
REMARK   42  A    between atoms: CG_64  and  CD1_65 
REMARK   43  A    between atoms: CG_64  and  CD2_66 
REMARK   44  A    between atoms: N_67  and  CA_68 
REMARK   45  A    between atoms: CA_68  and  C_69 
REMARK   46  A    between atoms: CA_68  and  CB_71 
REMARK       I    between atoms: C_69  and  N_75 
REMARK   47  A    between atoms: CB_71  and  CG_72 
REMARK   48  A    between atoms: CG_72  and  CD1_73 
REMARK   49  A    between atoms: CG_72  and  CD2_74 
REMARK   50  A    between atoms: N_75  and  CA_76 
REMARK   51  A    between atoms: CA_76  and  C_77 
REMARK   52  A    between atoms: CA_76  and  CB_79 
REMARK       I    between atoms: C_77  and  N_84 
REMARK   53  A    between atoms: CB_79  and  CG_80 
REMARK   54  A    between atoms: CG_80  and  CD_81 
REMARK   55  A    between atoms: N_84  and  CA_85 
REMARK   56  A    between atoms: CA_85  and  C_86 
REMARK   57  A    between atoms: CA_85  and  CB_88 
REMARK       I    between atoms: C_86  and  N_92 
REMARK   58  A    between atoms: CB_88  and  CG_89 
REMARK   59  A    between atoms: CG_89  and  CD1_90 
REMARK   60  A    between atoms: CG_89  and  CD2_91 
REMARK   61  A    between atoms: N_92  and  CA_93 
REMARK   62  A    between atoms: CA_93  and  C_94 
REMARK   63  A    between atoms: CA_93  and  CB_96 
REMARK   64  A    between atoms: CB_96  and  CG_97 
REMARK       I    between atoms: CG_97  and  ND2_99 
ROOT
ATOM      1  N   LEU d   1      30.168  27.809  19.921  0.00  0.00    -0.346 N 
ATOM      2  H53 LEU d   1      29.565  28.580  20.127  0.00  0.00     0.163 HD
ATOM      3  C   ARG d   1      30.114  27.263  18.706  0.00  0.00     0.241 C 
ATOM      4  O   ARG d   1      30.830  26.317  18.343  0.00  0.00    -0.271 OA
ENDROOT
BRANCH   1   5
ATOM      5  CA  LEU d   1      31.061  27.334  20.954  0.00  0.00     0.089 C 
ATOM      6  H54 LEU d   1      32.067  27.120  20.564  0.00  0.00     0.087 H 
BRANCH   5   7
ATOM      7  C   LEU d   1      30.362  26.078  21.418  0.00  0.00     0.241 C 
ATOM      8  O   LEU d   1      30.858  24.973  21.226  0.00  0.00    -0.271 OA
ATOM      9  N   LEU d   1      29.179  26.253  21.999  0.00  0.00    -0.346 N 
ATOM     10  H64 LEU d   1      28.822  27.180  22.115  0.00  0.00     0.163 HD
BRANCH   9  11
ATOM     11  CA  LEU d   1      28.396  25.122  22.468  0.00  0.00     0.089 C 
ATOM     12  H65 LEU d   1      28.761  24.825  23.462  0.00  0.00     0.087 H 
BRANCH  11  13
ATOM     13  C   LEU d   1      28.533  23.918  21.518  0.00  0.00     0.241 C 
ATOM     14  O   LEU d   1      28.688  22.769  21.961  0.00  0.00    -0.271 OA
ATOM     15  N   LEU d   1      28.491  24.183  20.208  0.00  0.00    -0.346 N 
ATOM     16  H75 LEU d   1      28.374  25.128  19.902  0.00  0.00     0.163 HD
BRANCH  15  17
ATOM     17  CA  LEU d   1      28.614  23.111  19.208  0.00  0.00     0.089 C 
ATOM     18  H76 LEU d   1      27.802  22.391  19.387  0.00  0.00     0.087 H 
BRANCH  17  19
ATOM     19  C   LEU d   1      29.962  22.360  19.346  0.00  0.00     0.241 C 
ATOM     20  O   LEU d   1      29.998  21.127  19.194  0.00  0.00    -0.271 OA
ATOM     21  N   GLU d   1      31.035  23.087  19.616  0.00  0.00    -0.346 N 
ATOM     22  H86 GLU d   1      30.929  24.078  19.701  0.00  0.00     0.163 HD
BRANCH  21  23
ATOM     23  CA  GLU d   1      32.382  22.506  19.798  0.00  0.00     0.090 C 
ATOM     24  H87 GLU d   1      32.652  21.975  18.873  0.00  0.00     0.087 H 
BRANCH  23  25
ATOM     25  C   GLU d   1      32.440  21.503  20.967  0.00  0.00     0.241 C 
ATOM     26  O   GLU d   1      33.305  20.614  21.000  0.00  0.00    -0.271 OA
ATOM     27  N   LEU d   1      31.518  21.655  21.908  0.00  0.00    -0.346 N 
ATOM     28  H92 LEU d   1      30.835  22.378  21.805  0.00  0.00     0.163 HD
BRANCH  27  29
ATOM     29  CA  LEU d   1      31.470  20.797  23.091  0.00  0.00     0.089 C 
ATOM     30  H93 LEU d   1      32.517  20.627  23.383  0.00  0.00     0.087 H 
BRANCH  29  31
ATOM     31  C   LEU d   1      30.842  19.416  22.937  0.00  0.00     0.241 C 
ATOM     32  O   LEU d   1      31.403  18.431  23.440  0.00  0.00    -0.271 OA
ATOM     33  N   ASN d   1      29.710  19.334  22.258  0.00  0.00    -0.344 N 
ATOM     34 3H10 ASN d   1      29.316  20.160  21.855  0.00  0.00     0.163 HD
BRANCH  33  35
ATOM     35  CA  ASN d   1      29.026  18.054  22.087  0.00  0.00     0.104 C 
ATOM     36 4H10 ASN d   1      28.425  17.897  22.995  0.00  0.00     0.090 H 
BRANCH  35  37
ATOM     37  C   ASN d   1      29.918  16.815  21.936  0.00  0.00     0.197 C 
ATOM     38  O   ASN d   1      29.757  15.860  22.767  0.00  0.00    -0.646 OA
ATOM     39  OXT ASN d   1      30.746  16.843  20.974  0.00  0.00    -0.646 OA
ENDBRANCH  35  37
BRANCH  35  40
ATOM     40  CB  ASN d   1      28.075  18.144  20.909  0.00  0.00     0.037 C 
ATOM     41 5H10 ASN d   1      27.559  17.180  20.794  0.00  0.00     0.051 H 
ATOM     42 6H10 ASN d   1      28.655  18.360  20.000  0.00  0.00     0.051 H 
BRANCH  40  43
ATOM     43  CG  ASN d   1      27.041  19.233  21.100  0.00  0.00     0.217 C 
ATOM     44  OD1 ASN d   1      26.483  19.386  22.204  0.00  0.00    -0.274 OA
ATOM     45  ND2 ASN d   1      26.763  19.994  20.027  0.00  0.00    -0.370 N 
ATOM     46 7H10 ASN d   1      26.088  20.728  20.096  0.00  0.00     0.159 HD
ATOM     47 8H10 ASN d   1      27.232  19.826  19.160  0.00  0.00     0.159 HD
ENDBRANCH  40  43
ENDBRANCH  35  40
ENDBRANCH  33  35
ENDBRANCH  29  31
BRANCH  29  48
ATOM     48  CB  LEU d   1      30.777  21.533  24.247  0.00  0.00    -0.035 C 
ATOM     49  H94 LEU d   1      30.397  20.774  24.947  0.00  0.00     0.037 H 
ATOM     50  H95 LEU d   1      29.933  22.098  23.825  0.00  0.00     0.037 H 
BRANCH  48  51
ATOM     51  CG  LEU d   1      31.628  22.502  25.038  0.00  0.00    -0.059 C 
ATOM     52  H96 LEU d   1      32.088  23.231  24.354  0.00  0.00     0.038 H 
BRANCH  51  53
ATOM     53  CD1 LEU d   1      30.754  23.217  25.995  0.00  0.00    -0.073 C 
ATOM     54  H97 LEU d   1      31.356  23.928  26.581  0.00  0.00     0.028 H 
ATOM     55  H98 LEU d   1      30.281  22.491  26.673  0.00  0.00     0.028 H 
ATOM     56  H99 LEU d   1      29.976  23.764  25.443  0.00  0.00     0.028 H 
ENDBRANCH  51  53
BRANCH  51  57
ATOM     57  CD2 LEU d   1      32.718  21.746  25.753  0.00  0.00    -0.073 C 
ATOM     58 0H10 LEU d   1      33.348  21.227  25.016  0.00  0.00     0.028 H 
ATOM     59 1H10 LEU d   1      32.267  21.009  26.434  0.00  0.00     0.028 H 
ATOM     60 2H10 LEU d   1      33.334  22.450  26.331  0.00  0.00     0.028 H 
ENDBRANCH  51  57
ENDBRANCH  48  51
ENDBRANCH  29  48
ENDBRANCH  27  29
ENDBRANCH  23  25
BRANCH  23  61
ATOM     61  CB  GLU d   1      33.407  23.615  20.045  0.00  0.00    -0.029 C 
ATOM     62  H88 GLU d   1      34.215  23.203  20.667  0.00  0.00     0.037 H 
ATOM     63  H89 GLU d   1      32.906  24.431  20.587  0.00  0.00     0.037 H 
BRANCH  61  64
ATOM     64  CG  GLU d   1      34.021  24.188  18.798  0.00  0.00     0.018 C 
ATOM     65  H90 GLU d   1      33.213  24.457  18.102  0.00  0.00     0.049 H 
ATOM     66  H91 GLU d   1      34.660  23.420  18.338  0.00  0.00     0.049 H 
BRANCH  64  67
ATOM     67  CD  GLU d   1      34.869  25.432  19.061  0.00  0.00     0.172 C 
ATOM     68  OE1 GLU d   1      34.828  25.958  20.192  0.00  0.00    -0.648 OA
ATOM     69  OE2 GLU d   1      35.566  25.890  18.127  0.00  0.00    -0.648 OA
ENDBRANCH  64  67
ENDBRANCH  61  64
ENDBRANCH  23  61
ENDBRANCH  21  23
ENDBRANCH  17  19
BRANCH  17  70
ATOM     70  CB  LEU d   1      28.462  23.659  17.767  0.00  0.00    -0.035 C 
ATOM     71  H77 LEU d   1      28.867  22.888  17.095  0.00  0.00     0.037 H 
ATOM     72  H78 LEU d   1      29.088  24.562  17.708  0.00  0.00     0.037 H 
BRANCH  70  73
ATOM     73  CG  LEU d   1      27.091  24.044  17.210  0.00  0.00    -0.059 C 
ATOM     74  H79 LEU d   1      26.752  24.982  17.674  0.00  0.00     0.038 H 
BRANCH  73  75
ATOM     75  CD1 LEU d   1      27.207  24.230  15.700  0.00  0.00    -0.073 C 
ATOM     76  H80 LEU d   1      26.225  24.508  15.288  0.00  0.00     0.028 H 
ATOM     77  H81 LEU d   1      27.545  23.290  15.240  0.00  0.00     0.028 H 
ATOM     78  H82 LEU d   1      27.934  25.027  15.483  0.00  0.00     0.028 H 
ENDBRANCH  73  75
BRANCH  73  79
ATOM     79  CD2 LEU d   1      26.090  22.930  17.516  0.00  0.00    -0.073 C 
ATOM     80  H83 LEU d   1      26.009  22.799  18.605  0.00  0.00     0.028 H 
ATOM     81  H84 LEU d   1      26.435  21.991  17.058  0.00  0.00     0.028 H 
ATOM     82  H85 LEU d   1      25.106  23.198  17.105  0.00  0.00     0.028 H 
ENDBRANCH  73  79
ENDBRANCH  70  73
ENDBRANCH  17  70
ENDBRANCH  15  17
ENDBRANCH  11  13
BRANCH  11  83
ATOM     83  CB  LEU d   1      26.936  25.549  22.584  0.00  0.00    -0.035 C 
ATOM     84  H66 LEU d   1      26.335  24.675  22.875  0.00  0.00     0.037 H 
ATOM     85  H67 LEU d   1      26.598  25.917  21.604  0.00  0.00     0.037 H 
BRANCH  83  86
ATOM     86  CG  LEU d   1      26.729  26.644  23.612  0.00  0.00    -0.059 C 
ATOM     87  H68 LEU d   1      27.475  27.436  23.455  0.00  0.00     0.038 H 
BRANCH  86  88
ATOM     88  CD1 LEU d   1      25.370  27.226  23.462  0.00  0.00    -0.073 C 
ATOM     89  H69 LEU d   1      25.226  28.019  24.210  0.00  0.00     0.028 H 
ATOM     90  H70 LEU d   1      24.616  26.440  23.612  0.00  0.00     0.028 H 
ATOM     91  H71 LEU d   1      25.262  27.650  22.453  0.00  0.00     0.028 H 
ENDBRANCH  86  88
BRANCH  86  92
ATOM     92  CD2 LEU d   1      26.913  26.060  24.987  0.00  0.00    -0.073 C 
ATOM     93  H72 LEU d   1      27.924  25.636  25.073  0.00  0.00     0.028 H 
ATOM     94  H73 LEU d   1      26.168  25.267  25.151  0.00  0.00     0.028 H 
ATOM     95  H74 LEU d   1      26.781  26.849  25.741  0.00  0.00     0.028 H 
ENDBRANCH  86  92
ENDBRANCH  83  86
ENDBRANCH  11  83
ENDBRANCH   9  11
ENDBRANCH   5   7
BRANCH   5  96
ATOM     96  CB  LEU d   1      31.138  28.366  22.076  0.00  0.00    -0.035 C 
ATOM     97  H55 LEU d   1      31.770  27.966  22.882  0.00  0.00     0.037 H 
ATOM     98  H56 LEU d   1      30.123  28.546  22.461  0.00  0.00     0.037 H 
BRANCH  96  99
ATOM     99  CG  LEU d   1      31.725  29.689  21.604  0.00  0.00    -0.059 C 
ATOM    100  H57 LEU d   1      31.451  29.851  20.551  0.00  0.00     0.038 H 
BRANCH  99 101
ATOM    101  CD1 LEU d   1      31.140  30.783  22.432  0.00  0.00    -0.073 C 
ATOM    102  H58 LEU d   1      31.552  31.750  22.106  0.00  0.00     0.028 H 
ATOM    103  H59 LEU d   1      31.390  30.616  23.490  0.00  0.00     0.028 H 
ATOM    104  H60 LEU d   1      30.047  30.791  22.310  0.00  0.00     0.028 H 
ENDBRANCH  99 101
BRANCH  99 105
ATOM    105  CD2 LEU d   1      33.248  29.666  21.713  0.00  0.00    -0.073 C 
ATOM    106  H61 LEU d   1      33.648  28.850  21.093  0.00  0.00     0.028 H 
ATOM    107  H62 LEU d   1      33.538  29.505  22.762  0.00  0.00     0.028 H 
ATOM    108  H63 LEU d   1      33.655  30.626  21.363  0.00  0.00     0.028 H 
ENDBRANCH  99 105
ENDBRANCH  96  99
ENDBRANCH   5  96
ENDBRANCH   1   5
BRANCH   3 109
ATOM    109  CA  ARG d   1      29.085  27.886  17.763  0.00  0.00     0.089 C 
ATOM    110  H41 ARG d   1      28.664  27.092  17.130  0.00  0.00     0.087 H 
BRANCH 109 111
ATOM    111  N   ARG d   1      27.995  28.495  18.523  0.00  0.00    -0.346 N 
ATOM    112  C   ASP d   1      27.095  27.761  19.184  0.00  0.00     0.241 C 
ATOM    113  O   ASP d   1      27.108  26.522  19.201  0.00  0.00    -0.271 OA
ATOM    114  H40 ARG d   1      27.921  29.492  18.549  0.00  0.00     0.163 HD
BRANCH 112 115
ATOM    115  CA  ASP d   1      26.030  28.557  19.953  0.00  0.00     0.098 C 
ATOM    116  H37 ASP d   1      25.734  27.967  20.833  0.00  0.00     0.088 H 
BRANCH 115 117
ATOM    117  N   ASP d   1      26.550  29.856  20.437  0.00  0.00    -0.346 N 
ATOM    118  C   LEU d   1      27.481  29.948  21.395  0.00  0.00     0.241 C 
ATOM    119  O   LEU d   1      27.960  28.953  21.942  0.00  0.00    -0.271 OA
ATOM    120  H36 ASP d   1      26.192  30.698  20.033  0.00  0.00     0.163 HD
BRANCH 118 121
ATOM    121  CA  LEU d   1      27.903  31.379  21.772  0.00  0.00     0.089 C 
ATOM    122  H26 LEU d   1      28.897  31.379  22.244  0.00  0.00     0.087 H 
BRANCH 121 123
ATOM    123  N   LEU d   1      27.936  32.124  20.510  0.00  0.00    -0.346 N 
ATOM    124  C   GLU d   1      28.790  31.808  19.530  0.00  0.00     0.241 C 
ATOM    125  O   GLU d   1      29.558  30.837  19.639  0.00  0.00    -0.271 OA
ATOM    126  H25 LEU d   1      27.304  32.888  20.378  0.00  0.00     0.163 HD
BRANCH 124 127
ATOM    127  CA  GLU d   1      28.726  32.656  18.219  0.00  0.00     0.090 C 
ATOM    128  H20 GLU d   1      29.236  32.097  17.421  0.00  0.00     0.087 H 
BRANCH 127 129
ATOM    129  N   GLU d   1      27.319  32.884  17.819  0.00  0.00    -0.346 N 
ATOM    130  C   SER d   1      26.508  31.907  17.399  0.00  0.00     0.243 C 
ATOM    131  O   SER d   1      26.793  30.705  17.546  0.00  0.00    -0.271 OA
ATOM    132  H19 GLU d   1      26.957  33.815  17.865  0.00  0.00     0.163 HD
BRANCH 130 133
ATOM    133  CA  SER d   1      25.055  32.284  17.089  0.00  0.00     0.109 C 
ATOM    134  H15 SER d   1      24.424  31.433  17.383  0.00  0.00     0.090 H 
BRANCH 133 135
ATOM    135  N   SER d   1      24.797  33.383  18.020  0.00  0.00    -0.344 N 
ATOM    136  C   LEU d   1      24.834  33.168  19.339  0.00  0.00     0.249 C 
ATOM    137  O   LEU d   1      25.095  32.074  19.842  0.00  0.00    -0.271 OA
ATOM    138  H14 SER d   1      24.593  34.297  17.669  0.00  0.00     0.163 HD
BRANCH 136 139
ATOM    139  CA  LEU d   1      24.357  34.278  20.262  0.00  0.00     0.176 C 
ATOM    140  H4  LEU d   1      24.922  34.225  21.204  0.00  0.00     0.099 H 
BRANCH 139 141
ATOM    141  N   LEU d   1      24.552  35.626  19.704  0.00  0.00    -0.066 N 
ATOM    142  H1  LEU d   1      24.217  36.313  20.361  0.00  0.00     0.275 HD
ATOM    143  H2  LEU d   1      24.039  35.709  18.840  0.00  0.00     0.275 HD
ATOM    144  H3  LEU d   1      25.533  35.779  19.529  0.00  0.00     0.275 HD
ENDBRANCH 139 141
BRANCH 139 145
ATOM    145  CB  LEU d   1      22.875  33.962  20.545  0.00  0.00    -0.028 C 
ATOM    146  H5  LEU d   1      22.477  33.470  19.646  0.00  0.00     0.037 H 
ATOM    147  H6  LEU d   1      22.366  34.926  20.692  0.00  0.00     0.037 H 
BRANCH 145 148
ATOM    148  CG  LEU d   1      22.502  33.078  21.736  0.00  0.00    -0.059 C 
ATOM    149  H7  LEU d   1      22.497  32.027  21.412  0.00  0.00     0.038 H 
BRANCH 148 150
ATOM    150  CD1 LEU d   1      23.556  33.273  22.797  0.00  0.00    -0.073 C 
ATOM    151  H8  LEU d   1      23.317  32.649  23.671  0.00  0.00     0.028 H 
ATOM    152  H9  LEU d   1      23.582  34.331  23.098  0.00  0.00     0.028 H 
ATOM    153  H10 LEU d   1      24.538  32.982  22.396  0.00  0.00     0.028 H 
ENDBRANCH 148 150
BRANCH 148 154
ATOM    154  CD2 LEU d   1      21.126  33.416  22.307  0.00  0.00    -0.073 C 
ATOM    155  H11 LEU d   1      20.361  33.272  21.530  0.00  0.00     0.028 H 
ATOM    156  H12 LEU d   1      21.115  34.464  22.642  0.00  0.00     0.028 H 
ATOM    157  H13 LEU d   1      20.911  32.756  23.160  0.00  0.00     0.028 H 
ENDBRANCH 148 154
ENDBRANCH 145 148
ENDBRANCH 139 145
ENDBRANCH 136 139
ENDBRANCH 133 135
BRANCH 133 158
ATOM    158  CB  SER d   1      24.680  32.576  15.611  0.00  0.00     0.044 C 
ATOM    159  H16 SER d   1      24.515  33.659  15.510  0.00  0.00     0.077 H 
ATOM    160  H17 SER d   1      23.746  32.040  15.385  0.00  0.00     0.077 H 
BRANCH 158 161
ATOM    161  OG  SER d   1      25.660  32.185  14.642  0.00  0.00    -0.398 OA
ATOM    162  H18 SER d   1      25.347  32.401  13.771  0.00  0.00     0.209 HD
ENDBRANCH 158 161
ENDBRANCH 133 158
ENDBRANCH 130 133
ENDBRANCH 127 129
BRANCH 127 163
ATOM    163  CB  GLU d   1      29.430  34.025  18.390  0.00  0.00    -0.029 C 
ATOM    164  H21 GLU d   1      30.509  33.860  18.525  0.00  0.00     0.037 H 
ATOM    165  H22 GLU d   1      29.023  34.530  19.278  0.00  0.00     0.037 H 
BRANCH 163 166
ATOM    166  CG  GLU d   1      29.209  34.914  17.163  0.00  0.00     0.018 C 
ATOM    167  H23 GLU d   1      28.940  35.923  17.507  0.00  0.00     0.049 H 
ATOM    168  H24 GLU d   1      28.380  34.495  16.573  0.00  0.00     0.049 H 
BRANCH 166 169
ATOM    169  CD  GLU d   1      30.443  35.021  16.260  0.00  0.00     0.172 C 
ATOM    170  OE1 GLU d   1      31.498  35.488  16.749  0.00  0.00    -0.648 OA
ATOM    171  OE2 GLU d   1      30.359  34.664  15.061  0.00  0.00    -0.648 OA
ENDBRANCH 166 169
ENDBRANCH 163 166
ENDBRANCH 127 163
ENDBRANCH 124 127
ENDBRANCH 121 123
BRANCH 121 172
ATOM    172  CB  LEU d   1      26.873  31.987  22.739  0.00  0.00    -0.035 C 
ATOM    173  H27 LEU d   1      25.905  32.015  22.218  0.00  0.00     0.037 H 
ATOM    174  H28 LEU d   1      27.197  33.013  22.966  0.00  0.00     0.037 H 
BRANCH 172 175
ATOM    175  CG  LEU d   1      26.660  31.272  24.061  0.00  0.00    -0.059 C 
ATOM    176  H29 LEU d   1      26.380  30.225  23.874  0.00  0.00     0.038 H 
BRANCH 175 177
ATOM    177  CD1 LEU d   1      27.953  31.327  24.792  0.00  0.00    -0.073 C 
ATOM    178  H30 LEU d   1      27.848  30.819  25.762  0.00  0.00     0.028 H 
ATOM    179  H31 LEU d   1      28.236  32.377  24.957  0.00  0.00     0.028 H 
ATOM    180  H32 LEU d   1      28.732  30.826  24.198  0.00  0.00     0.028 H 
ENDBRANCH 175 177
BRANCH 175 181
ATOM    181  CD2 LEU d   1      25.577  31.932  24.872  0.00  0.00    -0.073 C 
ATOM    182  H33 LEU d   1      24.626  31.885  24.321  0.00  0.00     0.028 H 
ATOM    183  H34 LEU d   1      25.844  32.984  25.053  0.00  0.00     0.028 H 
ATOM    184  H35 LEU d   1      25.470  31.410  25.834  0.00  0.00     0.028 H 
ENDBRANCH 175 181
ENDBRANCH 172 175
ENDBRANCH 121 172
ENDBRANCH 118 121
ENDBRANCH 115 117
BRANCH 115 185
ATOM    185  CB  ASP d   1      24.777  28.748  19.056  0.00  0.00     0.043 C 
ATOM    186  H38 ASP d   1      24.502  27.773  18.626  0.00  0.00     0.052 H 
ATOM    187  H39 ASP d   1      25.030  29.448  18.246  0.00  0.00     0.052 H 
BRANCH 185 188
ATOM    188  CG  ASP d   1      23.573  29.301  19.819  0.00  0.00     0.175 C 
ATOM    189  OD1 ASP d   1      23.125  28.665  20.822  0.00  0.00    -0.648 OA
ATOM    190  OD2 ASP d   1      23.076  30.377  19.406  0.00  0.00    -0.648 OA
ENDBRANCH 185 188
ENDBRANCH 115 185
ENDBRANCH 112 115
ENDBRANCH 109 111
BRANCH 109 191
ATOM    191  CB  ARG d   1      29.773  28.924  16.853  0.00  0.00    -0.036 C 
ATOM    192  H42 ARG d   1      30.801  28.584  16.657  0.00  0.00     0.036 H 
ATOM    193  H43 ARG d   1      29.800  29.886  17.386  0.00  0.00     0.036 H 
BRANCH 191 194
ATOM    194  CG  ARG d   1      29.081  29.139  15.519  0.00  0.00    -0.048 C 
ATOM    195  H44 ARG d   1      28.271  29.873  15.642  0.00  0.00     0.035 H 
ATOM    196  H45 ARG d   1      28.660  28.185  15.168  0.00  0.00     0.035 H 
BRANCH 194 197
ATOM    197  CD  ARG d   1      30.068  29.650  14.508  0.00  0.00     0.009 C 
ATOM    198  H46 ARG d   1      30.581  28.795  14.044  0.00  0.00     0.064 H 
ATOM    199  H47 ARG d   1      30.806  30.287  15.018  0.00  0.00     0.064 H 
BRANCH 197 200
ATOM    200  NE  ARG d   1      29.407  30.427  13.470  0.00  0.00    -0.227 N 
ATOM    201  CZ  ARG d   1      29.829  31.616  13.057  0.00  0.00     0.665 C 
ATOM    202  NH1 ARG d   1      30.928  32.156  13.585  0.00  0.00    -0.235 N 
ATOM    203  NH2 ARG d   1      29.155  32.275  12.122  0.00  0.00    -0.235 N 
ATOM    204  H49 ARG d   1      31.254  33.079  13.263  0.00  0.00     0.174 HD
ATOM    205  H50 ARG d   1      31.451  31.651  14.314  0.00  0.00     0.174 HD
ATOM    206  H51 ARG d   1      28.306  31.861  11.711  0.00  0.00     0.174 HD
ATOM    207  H52 ARG d   1      29.482  33.200  11.807  0.00  0.00     0.174 HD
ATOM    208  H48 ARG d   1      28.563  30.032  13.031  0.00  0.00     0.177 HD
ENDBRANCH 197 200
ENDBRANCH 194 197
ENDBRANCH 191 194
ENDBRANCH 109 191
ENDBRANCH   3 109
TORSDOF 64
