REMARK  6 active torsions:
REMARK  status: ('A' for Active; 'I' for Inactive)
REMARK    1  A    between atoms: C47_1  and  C45_2 
REMARK    2  A    between atoms: C45_2  and  C39_3 
REMARK    3  A    between atoms: C22_10  and  N21_11 
REMARK       I    between atoms: N21_11  and  C20_12 
REMARK    4  A    between atoms: C20_12  and  C11_14 
REMARK    5  A    between atoms: C6_19  and  C17_24 
REMARK    6  A    between atoms: C17_24  and  N18_25 
ROOT
ATOM      1  C39 497 d   1      28.361  10.962  31.653  0.00  0.00    -0.005 C 
ATOM      2  C38 497 d   1      28.824   9.820  30.737  0.00  0.00     0.089 C 
ATOM      3  N37 497 d   1      29.218  10.403  29.448  0.00  0.00    -0.071 N 
ATOM      4  C36 497 d   1      28.246  11.259  28.748  0.00  0.00     0.106 C 
ATOM      5  C26 497 d   1      27.331  12.062  29.656  0.00  0.00    -0.026 C 
ATOM      6  C27 497 d   1      27.254  11.797  31.055  0.00  0.00    -0.042 C 
ATOM      7  C28 497 d   1      26.189  12.340  31.804  0.00  0.00    -0.050 C 
ATOM      8  C22 497 d   1      25.352  13.314  31.213  0.00  0.00     0.035 C 
ATOM      9  C24 497 d   1      25.606  13.723  29.897  0.00  0.00    -0.057 C 
ATOM     10  C25 497 d   1      26.544  13.083  29.089  0.00  0.00    -0.073 C 
ATOM     11  H6  497 d   1      29.197  11.657  31.483  0.00  0.00     0.050 H 
ATOM     12  H7  497 d   1      28.002   9.105  30.587  0.00  0.00     0.076 H 
ATOM     13  H8  497 d   1      29.682   9.302  31.190  0.00  0.00     0.076 H 
ATOM     14  H9  497 d   1      29.443   9.639  28.830  0.00  0.00     0.277 HD
ATOM     15  H10 497 d   1      30.043  10.958  29.610  0.00  0.00     0.277 HD
ATOM     16  H11 497 d   1      27.619  10.616  28.113  0.00  0.00     0.083 H 
ATOM     17  H12 497 d   1      28.805  11.965  28.116  0.00  0.00     0.083 H 
ATOM     18  H13 497 d   1      26.014  12.014  32.823  0.00  0.00     0.087 H 
ATOM     19  H25 497 d   1      25.055  14.565  29.494  0.00  0.00     0.086 H 
ATOM     20  H26 497 d   1      26.665  13.364  28.049  0.00  0.00     0.084 H 
ENDROOT
BRANCH   8  21
ATOM     21  N21 497 d   1      24.276  13.891  31.834  0.00  0.00    -0.323 N 
ATOM     22  C20 497 d   1      24.375  14.638  32.938  0.00  0.00     0.256 C 
ATOM     23  O23 497 d   1      25.329  14.467  33.660  0.00  0.00    -0.267 OA
ATOM     24  H14 497 d   1      23.368  13.746  31.441  0.00  0.00     0.169 HD
BRANCH  22  25
ATOM     25  C11 497 d   1      23.322  15.659  33.228  0.00  0.00     0.033 A 
ATOM     26  C12 497 d   1      23.651  16.719  34.118  0.00  0.00    -0.067 A 
ATOM     27  C13 497 d   1      22.705  17.695  34.479  0.00  0.00    -0.071 A 
ATOM     28  H15 497 d   1      24.653  16.776  34.527  0.00  0.00     0.085 H 
ATOM     29  C4  497 d   1      21.401  17.664  33.927  0.00  0.00    -0.025 A 
ATOM     30  H16 497 d   1      22.975  18.474  35.183  0.00  0.00     0.084 H 
ATOM     31  C5  497 d   1      20.495  18.721  34.149  0.00  0.00    -0.059 A 
ATOM     32  C3  497 d   1      21.059  16.636  33.003  0.00  0.00    -0.025 A 
ATOM     33  C6  497 d   1      19.205  18.723  33.572  0.00  0.00     0.008 A 
ATOM     34  H17 497 d   1      20.795  19.552  34.777  0.00  0.00     0.086 H 
ATOM     35  C1  497 d   1      18.877  17.714  32.636  0.00  0.00    -0.069 A 
ATOM     36  C2  497 d   1      19.793  16.679  32.373  0.00  0.00    -0.071 A 
ATOM     37  H18 497 d   1      17.922  17.738  32.123  0.00  0.00     0.085 H 
ATOM     38  H19 497 d   1      19.523  15.897  31.672  0.00  0.00     0.084 H 
ATOM     39  C10 497 d   1      22.014  15.632  32.669  0.00  0.00    -0.057 A 
ATOM     40  H20 497 d   1      21.741  14.839  31.982  0.00  0.00     0.086 H 
BRANCH  33  41
ATOM     41  C17 497 d   1      18.211  19.735  33.989  0.00  0.00     0.102 C 
ATOM     42  N19 497 d   1      16.924  19.496  33.978  0.00  0.00    -0.385 N 
ATOM     43  H23 497 d   1      16.573  18.581  33.661  0.00  0.00     0.157 HD
ATOM     44  H24 497 d   1      16.263  20.223  34.287  0.00  0.00     0.157 HD
BRANCH  41  45
ATOM     45  N18 497 d   1      18.588  20.929  34.408  0.00  0.00    -0.385 N 
ATOM     46  H21 497 d   1      17.881  21.621  34.694  0.00  0.00     0.157 HD
ATOM     47  H22 497 d   1      19.589  21.168  34.448  0.00  0.00     0.157 HD
ENDBRANCH  41  45
ENDBRANCH  33  41
ENDBRANCH  22  25
ENDBRANCH   8  21
BRANCH   1  48
ATOM     48  C45 497 d   1      28.519  10.844  33.159  0.00  0.00    -0.060 C 
ATOM     49  H4  497 d   1      28.242  11.799  33.629  0.00  0.00     0.033 H 
ATOM     50  H5  497 d   1      27.860  10.046  33.532  0.00  0.00     0.033 H 
BRANCH  48  51
ATOM     51  C47 497 d   1      29.961  10.510  33.511  0.00  0.00    -0.076 C 
ATOM     52  H1  497 d   1      30.062  10.427  34.603  0.00  0.00     0.027 H 
ATOM     53  H2  497 d   1      30.623  11.307  33.141  0.00  0.00     0.027 H 
ATOM     54  H3  497 d   1      30.241   9.554  33.044  0.00  0.00     0.027 H 
ENDBRANCH  48  51
ENDBRANCH   1  48
TORSDOF 6
