REMARK  6 active torsions:
REMARK  status: ('A' for Active; 'I' for Inactive)
REMARK    1  A    between atoms: N18_1  and  C17_2 
REMARK    2  A    between atoms: C17_2  and  C4_4 
REMARK    3  A    between atoms: C12_9  and  C20_14 
REMARK       I    between atoms: C20_14  and  N21_16 
REMARK    4  A    between atoms: N21_16  and  C22_17 
REMARK    5  A    between atoms: C25_21  and  O33_22 
REMARK    6  A    between atoms: O33_22  and  C34_23 
ROOT
ATOM      1  C20 426 d   1      24.720  14.682  32.855  0.00  0.00     0.256 C 
ATOM      2  O23 426 d   1      25.697  14.593  33.581  0.00  0.00    -0.267 OA
ATOM      3  N21 426 d   1      24.613  13.959  31.698  0.00  0.00    -0.323 N 
ATOM      4  H11 426 d   1      23.764  14.046  31.177  0.00  0.00     0.169 HD
ENDROOT
BRANCH   3   5
ATOM      5  C22 426 d   1      25.579  13.124  31.196  0.00  0.00     0.037 A 
ATOM      6  C28 426 d   1      25.928  11.910  31.825  0.00  0.00    -0.057 A 
ATOM      7  C27 426 d   1      26.933  11.085  31.278  0.00  0.00    -0.078 A 
ATOM      8  H12 426 d   1      25.421  11.609  32.734  0.00  0.00     0.086 H 
ATOM      9  C26 426 d   1      27.579  11.464  30.096  0.00  0.00    -0.051 A 
ATOM     10  H13 426 d   1      27.204  10.159  31.772  0.00  0.00     0.083 H 
ATOM     11  C25 426 d   1      27.235  12.681  29.458  0.00  0.00     0.071 A 
ATOM     12  H14 426 d   1      28.343  10.826  29.668  0.00  0.00     0.087 H 
ATOM     13  C24 426 d   1      26.231  13.486  30.012  0.00  0.00    -0.025 A 
ATOM     14  H24 426 d   1      25.954  14.408  29.513  0.00  0.00     0.091 H 
BRANCH  11  15
ATOM     15  O33 426 d   1      27.842  13.225  28.315  0.00  0.00    -0.346 OA
BRANCH  15  16
ATOM     16  C34 426 d   1      28.588  12.339  27.478  0.00  0.00     0.045 C 
ATOM     17  C38 426 d   1      27.836  12.137  26.128  0.00  0.00    -0.040 C 
ATOM     18  C37 426 d   1      28.673  12.834  25.047  0.00  0.00    -0.063 C 
ATOM     19  H16 426 d   1      26.834  12.588  26.181  0.00  0.00     0.036 H 
ATOM     20  H17 426 d   1      27.744  11.064  25.903  0.00  0.00     0.036 H 
ATOM     21  C36 426 d   1      29.970  13.380  25.714  0.00  0.00    -0.063 C 
ATOM     22  H18 426 d   1      28.100  13.665  24.611  0.00  0.00     0.033 H 
ATOM     23  H19 426 d   1      28.935  12.115  24.257  0.00  0.00     0.033 H 
ATOM     24  C35 426 d   1      29.999  12.922  27.193  0.00  0.00    -0.040 C 
ATOM     25  H20 426 d   1      29.976  14.479  25.667  0.00  0.00     0.033 H 
ATOM     26  H21 426 d   1      30.851  12.986  25.187  0.00  0.00     0.033 H 
ATOM     27  H22 426 d   1      30.770  12.151  27.341  0.00  0.00     0.036 H 
ATOM     28  H23 426 d   1      30.202  13.776  27.855  0.00  0.00     0.036 H 
ATOM     29  H15 426 d   1      28.694  11.369  27.985  0.00  0.00     0.084 H 
ENDBRANCH  15  16
ENDBRANCH  11  15
ENDBRANCH   3   5
BRANCH   1  30
ATOM     30  C12 426 d   1      23.600  15.592  33.182  0.00  0.00     0.033 A 
ATOM     31  C11 426 d   1      23.884  16.604  34.153  0.00  0.00    -0.067 A 
ATOM     32  C10 426 d   1      22.878  17.550  34.509  0.00  0.00    -0.071 A 
ATOM     33  H7  426 d   1      24.862  16.651  34.617  0.00  0.00     0.085 H 
ATOM     34  C6  426 d   1      21.579  17.516  33.925  0.00  0.00    -0.025 A 
ATOM     35  H6  426 d   1      23.108  18.314  35.243  0.00  0.00     0.084 H 
ATOM     36  C5  426 d   1      20.619  18.502  34.291  0.00  0.00    -0.059 A 
ATOM     37  C1  426 d   1      21.232  16.498  32.941  0.00  0.00    -0.025 A 
ATOM     38  C4  426 d   1      19.293  18.541  33.732  0.00  0.00     0.008 A 
ATOM     39  H5  426 d   1      20.898  19.254  35.020  0.00  0.00     0.086 H 
ATOM     40  C3  426 d   1      18.906  17.520  32.771  0.00  0.00    -0.069 A 
ATOM     41  C2  426 d   1      19.886  16.522  32.390  0.00  0.00    -0.071 A 
ATOM     42  H10 426 d   1      17.907  17.506  32.349  0.00  0.00     0.085 H 
ATOM     43  H9  426 d   1      19.605  15.765  31.667  0.00  0.00     0.084 H 
ATOM     44  C13 426 d   1      22.262  15.551  32.584  0.00  0.00    -0.057 A 
ATOM     45  H8  426 d   1      22.039  14.785  31.850  0.00  0.00     0.086 H 
BRANCH  38  46
ATOM     46  C17 426 d   1      18.437  19.674  34.090  0.00  0.00     0.102 C 
ATOM     47  N19 426 d   1      18.967  20.855  34.439  0.00  0.00    -0.385 N 
ATOM     48  H3  426 d   1      19.990  20.965  34.491  0.00  0.00     0.157 HD
ATOM     49  H4  426 d   1      18.351  21.652  34.656  0.00  0.00     0.157 HD
BRANCH  46  50
ATOM     50  N18 426 d   1      17.146  19.563  34.033  0.00  0.00    -0.385 N 
ATOM     51  H1  426 d   1      16.718  18.665  33.767  0.00  0.00     0.157 HD
ATOM     52  H2  426 d   1      16.549  20.373  34.254  0.00  0.00     0.157 HD
ENDBRANCH  46  50
ENDBRANCH  38  46
ENDBRANCH   1  30
TORSDOF 6
