REMARK  7 active torsions:
REMARK  status: ('A' for Active; 'I' for Inactive)
REMARK    1  A    between atoms: N18_1  and  C17_2 
REMARK    2  A    between atoms: C17_2  and  C12_4 
REMARK    3  A    between atoms: C1_9  and  C20_14 
REMARK       I    between atoms: C20_14  and  N22_16 
REMARK    4  A    between atoms: N22_16  and  C23_17 
REMARK    5  A    between atoms: C35_26  and  C40_27 
REMARK    6  A    between atoms: C40_27  and  C41_28 
REMARK    7  A    between atoms: C40_27  and  C45_29 
ROOT
ATOM      1  C23 155 d   1      25.412  13.334  31.489  0.00  0.00     0.035 A 
ATOM      2  C28 155 d   1      26.297  12.325  31.863  0.00  0.00    -0.045 A 
ATOM      3  C27 155 d   1      27.175  11.850  30.878  0.00  0.00    -0.003 A 
ATOM      4  C26 155 d   1      27.229  12.448  29.592  0.00  0.00    -0.044 A 
ATOM      5  C25 155 d   1      26.401  13.530  29.270  0.00  0.00    -0.074 A 
ATOM      6  C24 155 d   1      25.479  13.960  30.236  0.00  0.00    -0.057 A 
ATOM      7  C32 155 d   1      28.178  11.888  28.571  0.00  0.00    -0.024 C 
ATOM      8  C33 155 d   1      28.358  10.334  28.694  0.00  0.00     0.019 C 
ATOM      9  N34 155 d   1      28.527   9.948  30.086  0.00  0.00    -0.293 NA
ATOM     10  C35 155 d   1      27.977  10.662  31.100  0.00  0.00     0.043 C 
ATOM     11  H12 155 d   1      26.306  11.925  32.870  0.00  0.00     0.088 H 
ATOM     12  H13 155 d   1      26.470  14.020  28.305  0.00  0.00     0.084 H 
ATOM     13  H14 155 d   1      24.812  14.784  30.012  0.00  0.00     0.086 H 
ATOM     14  H15 155 d   1      29.159  12.367  28.704  0.00  0.00     0.042 H 
ATOM     15  H16 155 d   1      27.790  12.118  27.568  0.00  0.00     0.042 H 
ATOM     16  H17 155 d   1      29.246  10.026  28.123  0.00  0.00     0.067 H 
ATOM     17  H18 155 d   1      27.468   9.833  28.285  0.00  0.00     0.067 H 
ENDROOT
BRANCH   1  18
ATOM     18  N22 155 d   1      24.387  13.650  32.238  0.00  0.00    -0.323 N 
ATOM     19  C20 155 d   1      24.603  14.524  33.128  0.00  0.00     0.256 C 
ATOM     20  O21 155 d   1      25.647  14.504  33.774  0.00  0.00    -0.267 OA
ATOM     21  H11 155 d   1      23.489  13.227  32.115  0.00  0.00     0.169 HD
BRANCH  19  22
ATOM     22  C1  155 d   1      23.520  15.474  33.254  0.00  0.00     0.033 A 
ATOM     23  C6  155 d   1      23.820  16.645  33.999  0.00  0.00    -0.067 A 
ATOM     24  C5  155 d   1      22.811  17.601  34.271  0.00  0.00    -0.071 A 
ATOM     25  H7  155 d   1      24.828  16.808  34.362  0.00  0.00     0.085 H 
ATOM     26  C4  155 d   1      21.479  17.417  33.798  0.00  0.00    -0.025 A 
ATOM     27  H6  155 d   1      23.055  18.486  34.847  0.00  0.00     0.084 H 
ATOM     28  C13 155 d   1      20.523  18.432  34.023  0.00  0.00    -0.059 A 
ATOM     29  C3  155 d   1      21.123  16.244  33.019  0.00  0.00    -0.025 A 
ATOM     30  C12 155 d   1      19.214  18.374  33.518  0.00  0.00     0.008 A 
ATOM     31  H5  155 d   1      20.813  19.295  34.612  0.00  0.00     0.086 H 
ATOM     32  C11 155 d   1      18.827  17.224  32.736  0.00  0.00    -0.069 A 
ATOM     33  C10 155 d   1      19.781  16.178  32.502  0.00  0.00    -0.071 A 
ATOM     34  H10 155 d   1      17.825  17.151  32.329  0.00  0.00     0.085 H 
ATOM     35  H9  155 d   1      19.483  15.314  31.919  0.00  0.00     0.084 H 
ATOM     36  C2  155 d   1      22.164  15.274  32.757  0.00  0.00    -0.057 A 
ATOM     37  H8  155 d   1      21.932  14.385  32.182  0.00  0.00     0.086 H 
BRANCH  30  38
ATOM     38  C17 155 d   1      18.339  19.522  33.847  0.00  0.00     0.102 C 
ATOM     39  N19 155 d   1      18.870  20.745  34.046  0.00  0.00    -0.385 N 
ATOM     40  H3  155 d   1      19.887  20.886  33.958  0.00  0.00     0.157 HD
ATOM     41  H4  155 d   1      18.259  21.539  34.286  0.00  0.00     0.157 HD
BRANCH  38  42
ATOM     42  N18 155 d   1      16.994  19.364  33.970  0.00  0.00    -0.385 N 
ATOM     43  H1  155 d   1      16.569  18.438  33.822  0.00  0.00     0.157 HD
ATOM     44  H2  155 d   1      16.401  20.171  34.211  0.00  0.00     0.157 HD
ENDBRANCH  38  42
ENDBRANCH  30  38
ENDBRANCH  19  22
ENDBRANCH   1  18
BRANCH  10  45
ATOM     45  C40 155 d   1      28.166  10.152  32.470  0.00  0.00    -0.018 C 
ATOM     46  H19 155 d   1      27.411  10.591  33.138  0.00  0.00     0.048 H 
BRANCH  45  47
ATOM     47  C41 155 d   1      29.532  10.649  32.962  0.00  0.00    -0.068 C 
ATOM     48  H20 155 d   1      29.707  10.286  33.985  0.00  0.00     0.028 H 
ATOM     49  H21 155 d   1      29.546  11.749  32.956  0.00  0.00     0.028 H 
ATOM     50  H22 155 d   1      30.322  10.268  32.298  0.00  0.00     0.028 H 
ENDBRANCH  45  47
BRANCH  45  51
ATOM     51  C45 155 d   1      27.869   8.646  32.381  0.00  0.00    -0.068 C 
ATOM     52  H23 155 d   1      26.845   8.496  32.009  0.00  0.00     0.028 H 
ATOM     53  H24 155 d   1      27.967   8.193  33.379  0.00  0.00     0.028 H 
ATOM     54  H25 155 d   1      28.583   8.172  31.691  0.00  0.00     0.028 H 
ENDBRANCH  45  51
ENDBRANCH  10  45
TORSDOF 7
