REMARK  7 active torsions:
REMARK  status: ('A' for Active; 'I' for Inactive)
REMARK    1  A    between atoms: N18_1  and  C17_2 
REMARK    2  A    between atoms: C17_2  and  C4_4 
REMARK    3  A    between atoms: C12_9  and  C20_14 
REMARK       I    between atoms: C20_14  and  N22_16 
REMARK    4  A    between atoms: N22_16  and  C23_17 
REMARK    5  A    between atoms: C35_26  and  C40_27 
REMARK    6  A    between atoms: C40_27  and  C42_28 
REMARK    7  A    between atoms: C40_27  and  C46_29 
ROOT
ATOM      1  C23 303 d   1      25.505  13.308  30.826  0.00  0.00     0.035 A 
ATOM      2  C28 303 d   1      26.321  12.406  31.549  0.00  0.00    -0.049 A 
ATOM      3  C27 303 d   1      27.338  11.673  30.903  0.00  0.00    -0.019 A 
ATOM      4  C26 303 d   1      27.482  11.786  29.490  0.00  0.00    -0.048 A 
ATOM      5  C25 303 d   1      26.696  12.702  28.769  0.00  0.00    -0.074 A 
ATOM      6  C24 303 d   1      25.751  13.480  29.447  0.00  0.00    -0.057 A 
ATOM      7  C32 303 d   1      28.483  10.923  28.737  0.00  0.00    -0.018 C 
ATOM      8  C33 303 d   1      28.942   9.720  29.570  0.00  0.00     0.086 C 
ATOM      9  N34 303 d   1      29.404  10.247  30.855  0.00  0.00    -0.066 N 
ATOM     10  C35 303 d   1      28.305  10.778  31.679  0.00  0.00     0.130 C 
ATOM     11  H12 303 d   1      26.162  12.277  32.614  0.00  0.00     0.087 H 
ATOM     12  H13 303 d   1      26.821  12.805  27.697  0.00  0.00     0.084 H 
ATOM     13  H14 303 d   1      25.195  14.233  28.900  0.00  0.00     0.086 H 
ATOM     14  H15 303 d   1      29.361  11.536  28.483  0.00  0.00     0.042 H 
ATOM     15  H16 303 d   1      28.012  10.557  27.813  0.00  0.00     0.042 H 
ATOM     16  H17 303 d   1      29.763   9.196  29.058  0.00  0.00     0.076 H 
ATOM     17  H18 303 d   1      28.104   9.025  29.725  0.00  0.00     0.076 H 
ATOM     18  H19 303 d   1      30.064  10.989  30.681  0.00  0.00     0.278 HD
ATOM     19  H20 303 d   1      29.859   9.505  31.363  0.00  0.00     0.278 HD
ATOM     20  H21 303 d   1      27.712   9.917  32.021  0.00  0.00     0.092 H 
ENDROOT
BRANCH   1  21
ATOM     21  N22 303 d   1      24.440  14.010  31.367  0.00  0.00    -0.323 N 
ATOM     22  C20 303 d   1      24.351  14.510  32.636  0.00  0.00     0.256 C 
ATOM     23  O21 303 d   1      25.163  14.211  33.514  0.00  0.00    -0.267 OA
ATOM     24  H11 303 d   1      23.655  14.167  30.767  0.00  0.00     0.169 HD
BRANCH  22  25
ATOM     25  C12 303 d   1      23.242  15.456  32.926  0.00  0.00     0.033 A 
ATOM     26  C11 303 d   1      23.525  16.379  33.988  0.00  0.00    -0.067 A 
ATOM     27  C10 303 d   1      22.567  17.369  34.359  0.00  0.00    -0.071 A 
ATOM     28  H7  303 d   1      24.473  16.324  34.511  0.00  0.00     0.085 H 
ATOM     29  C6  303 d   1      21.300  17.473  33.699  0.00  0.00    -0.025 A 
ATOM     30  H6  303 d   1      22.804  18.060  35.160  0.00  0.00     0.084 H 
ATOM     31  C5  303 d   1      20.355  18.468  34.084  0.00  0.00    -0.059 A 
ATOM     32  C1  303 d   1      20.968  16.553  32.624  0.00  0.00    -0.025 A 
ATOM     33  C4  303 d   1      19.072  18.630  33.468  0.00  0.00     0.008 A 
ATOM     34  H5  303 d   1      20.623  19.142  34.890  0.00  0.00     0.086 H 
ATOM     35  C3  303 d   1      18.725  17.748  32.387  0.00  0.00    -0.069 A 
ATOM     36  C2  303 d   1      19.665  16.734  31.994  0.00  0.00    -0.071 A 
ATOM     37  H10 303 d   1      17.773  17.846  31.878  0.00  0.00     0.085 H 
ATOM     38  H9  303 d   1      19.390  16.067  31.185  0.00  0.00     0.084 H 
ATOM     39  C13 303 d   1      21.959  15.545  32.248  0.00  0.00    -0.057 A 
ATOM     40  H8  303 d   1      21.732  14.850  31.448  0.00  0.00     0.086 H 
BRANCH  33  41
ATOM     41  C17 303 d   1      18.149  19.646  34.026  0.00  0.00     0.102 C 
ATOM     42  N19 303 d   1      18.621  20.698  34.686  0.00  0.00    -0.385 N 
ATOM     43  H3  303 d   1      19.637  20.820  34.802  0.00  0.00     0.157 HD
ATOM     44  H4  303 d   1      17.971  21.392  35.081  0.00  0.00     0.157 HD
BRANCH  41  45
ATOM     45  N18 303 d   1      16.827  19.521  33.895  0.00  0.00    -0.385 N 
ATOM     46  H1  303 d   1      16.434  18.715  33.388  0.00  0.00     0.157 HD
ATOM     47  H2  303 d   1      16.200  20.230  34.301  0.00  0.00     0.157 HD
ENDBRANCH  41  45
ENDBRANCH  33  41
ENDBRANCH  22  25
ENDBRANCH   1  21
BRANCH  10  48
ATOM     48  C40 303 d   1      28.910  11.432  32.932  0.00  0.00    -0.029 C 
ATOM     49  H22 303 d   1      28.063  11.919  33.438  0.00  0.00     0.042 H 
BRANCH  48  50
ATOM     50  C42 303 d   1      29.900  12.583  32.632  0.00  0.00    -0.071 C 
ATOM     51  H23 303 d   1      30.284  12.992  33.578  0.00  0.00     0.028 H 
ATOM     52  H24 303 d   1      29.382  13.376  32.073  0.00  0.00     0.028 H 
ATOM     53  H25 303 d   1      30.738  12.199  32.032  0.00  0.00     0.028 H 
ENDBRANCH  48  50
BRANCH  48  54
ATOM     54  C46 303 d   1      29.426  10.400  33.930  0.00  0.00    -0.071 C 
ATOM     55  H26 303 d   1      28.662   9.623  34.083  0.00  0.00     0.028 H 
ATOM     56  H27 303 d   1      29.643  10.894  34.889  0.00  0.00     0.028 H 
ATOM     57  H28 303 d   1      30.345   9.939  33.538  0.00  0.00     0.028 H 
ENDBRANCH  48  54
ENDBRANCH  10  48
TORSDOF 7
