REMARK  31 active torsions:
REMARK  status: ('A' for Active; 'I' for Inactive)
REMARK    1  A    between atoms: N_1  and  CA_2 
REMARK    2  A    between atoms: CA_2  and  C_3 
REMARK    3  A    between atoms: CA_2  and  CB_5 
REMARK       I    between atoms: C_3  and  N_6 
REMARK    4  A    between atoms: N_6  and  CA_7 
REMARK    5  A    between atoms: CA_7  and  C_8 
REMARK    6  A    between atoms: CA_7  and  CB_10 
REMARK       I    between atoms: C_8  and  N_11 
REMARK    7  A    between atoms: N_11  and  CA_12 
REMARK    8  A    between atoms: CA_12  and  C_13 
REMARK    9  A    between atoms: CA_12  and  CB_15 
REMARK       I    between atoms: C_13  and  N_19 
REMARK   10  A    between atoms: CB_15  and  CG_16 
REMARK       I    between atoms: CG_16  and  ND2_18 
REMARK   11  A    between atoms: N_19  and  CA_20 
REMARK   12  A    between atoms: CA_20  and  C_21 
REMARK   13  A    between atoms: CA_20  and  CB_23 
REMARK       I    between atoms: C_21  and  N_27 
REMARK   14  A    between atoms: CB_23  and  CG_24 
REMARK   15  A    between atoms: N_27  and  CA_28 
REMARK   16  A    between atoms: CA_28  and  C_29 
REMARK   17  A    between atoms: CA_28  and  CB_31 
REMARK       I    between atoms: C_29  and  N_36 
REMARK   18  A    between atoms: CB_31  and  CG_32 
REMARK   19  A    between atoms: CG_32  and  CD_33 
REMARK   20  A    between atoms: N_36  and  CA_37 
REMARK   21  A    between atoms: CA_37  and  C_38 
REMARK   22  A    between atoms: CA_37  and  CB_40 
REMARK       I    between atoms: C_38  and  N_44 
REMARK   23  A    between atoms: CB_40  and  CG_41 
REMARK       I    between atoms: CG_41  and  ND2_43 
REMARK   24  A    between atoms: N_44  and  CA_45 
REMARK   25  A    between atoms: CA_45  and  C_46 
REMARK   26  A    between atoms: CA_45  and  CB_48 
REMARK       I    between atoms: C_46  and  N_56 
REMARK   27  A    between atoms: CB_48  and  CG_49 
REMARK   28  A    between atoms: CZ_54  and  OH_55 
REMARK   29  A    between atoms: N_56  and  CA_57 
REMARK   30  A    between atoms: CA_57  and  C_58 
REMARK   31  A    between atoms: CA_57  and  CB_60 
ROOT
ATOM      1  CA  GLU d   1      18.126  -4.825  46.670  0.00  0.00     0.090 C 
ATOM      2  H24 GLU d   1      17.231  -5.073  47.260  0.00  0.00     0.087 H 
ENDROOT
BRANCH   1   3
ATOM      3  N   GLU d   1      18.074  -5.631  45.458  0.00  0.00    -0.346 N 
ATOM      4  C   ASP d   1      16.980  -5.677  44.710  0.00  0.00     0.241 C 
ATOM      5  O   ASP d   1      15.964  -5.041  44.993  0.00  0.00    -0.271 OA
ATOM      6  H23 GLU d   1      18.878  -6.159  45.185  0.00  0.00     0.163 HD
BRANCH   4   7
ATOM      7  CA  ASP d   1      17.038  -6.566  43.452  0.00  0.00     0.098 C 
ATOM      8  H20 ASP d   1      17.523  -7.510  43.742  0.00  0.00     0.088 H 
BRANCH   7   9
ATOM      9  N   ASP d   1      15.719  -6.905  42.897  0.00  0.00    -0.345 N 
ATOM     10  C   ASN d   1      14.897  -7.750  43.521  0.00  0.00     0.241 C 
ATOM     11  O   ASN d   1      15.171  -8.280  44.601  0.00  0.00    -0.271 OA
ATOM     12  H19 ASP d   1      15.432  -6.493  42.032  0.00  0.00     0.163 HD
BRANCH  10  13
ATOM     13  CA  ASN d   1      13.565  -8.038  42.850  0.00  0.00     0.097 C 
ATOM     14  H14 ASN d   1      13.733  -8.166  41.770  0.00  0.00     0.088 H 
BRANCH  13  15
ATOM     15  N   ASN d   1      12.976  -9.266  43.378  0.00  0.00    -0.346 N 
ATOM     16  C   ALA d   1      13.193 -10.435  42.791  0.00  0.00     0.240 C 
ATOM     17  O   ALA d   1      13.883 -10.558  41.786  0.00  0.00    -0.271 OA
ATOM     18  H13 ASN d   1      12.400  -9.224  44.195  0.00  0.00     0.163 HD
BRANCH  16  19
ATOM     19  CA  ALA d   1      12.539 -11.645  43.412  0.00  0.00     0.086 C 
ATOM     20  H9  ALA d   1      13.110 -12.539  43.120  0.00  0.00     0.086 H 
BRANCH  19  21
ATOM     21  N   ALA d   1      12.534 -11.554  44.857  0.00  0.00    -0.346 N 
ATOM     22  C   ALA d   1      13.651 -11.638  45.570  0.00  0.00     0.248 C 
ATOM     23  O   ALA d   1      14.763 -11.786  45.057  0.00  0.00    -0.271 OA
ATOM     24  H8  ALA d   1      11.664 -11.424  45.332  0.00  0.00     0.163 HD
BRANCH  22  25
ATOM     25  CA  ALA d   1      13.488 -11.536  47.089  0.00  0.00     0.172 C 
ATOM     26  H4  ALA d   1      12.803 -12.329  47.423  0.00  0.00     0.098 H 
BRANCH  25  27
ATOM     27  N   ALA d   1      14.800 -11.721  47.765  0.00  0.00    -0.067 N 
ATOM     28  H1  ALA d   1      14.677 -11.651  48.763  0.00  0.00     0.275 HD
ATOM     29  H2  ALA d   1      15.441 -11.008  47.455  0.00  0.00     0.275 HD
ATOM     30  H3  ALA d   1      15.171 -12.630  47.535  0.00  0.00     0.275 HD
ENDBRANCH  25  27
BRANCH  25  31
ATOM     31  CB  ALA d   1      12.895 -10.181  47.474  0.00  0.00    -0.042 C 
ATOM     32  H5  ALA d   1      11.925 -10.049  46.972  0.00  0.00     0.030 H 
ATOM     33  H6  ALA d   1      13.581  -9.379  47.163  0.00  0.00     0.030 H 
ATOM     34  H7  ALA d   1      12.752 -10.140  48.564  0.00  0.00     0.030 H 
ENDBRANCH  25  31
ENDBRANCH  22  25
ENDBRANCH  19  21
BRANCH  19  35
ATOM     35  CB  ALA d   1      11.128 -11.784  42.904  0.00  0.00    -0.049 C 
ATOM     36  H10 ALA d   1      11.139 -11.853  41.806  0.00  0.00     0.030 H 
ATOM     37  H11 ALA d   1      10.540 -10.907  43.211  0.00  0.00     0.030 H 
ATOM     38  H12 ALA d   1      10.675 -12.694  43.324  0.00  0.00     0.030 H 
ENDBRANCH  19  35
ENDBRANCH  16  19
ENDBRANCH  13  15
BRANCH  13  39
ATOM     39  CB  ASN d   1      12.620  -6.857  43.064  0.00  0.00     0.036 C 
ATOM     40  H15 ASN d   1      11.717  -7.014  42.455  0.00  0.00     0.051 H 
ATOM     41  H16 ASN d   1      13.127  -5.937  42.738  0.00  0.00     0.051 H 
BRANCH  39  42
ATOM     42  CG  ASN d   1      12.205  -6.695  44.516  0.00  0.00     0.217 C 
ATOM     43  OD1 ASN d   1      11.708  -7.633  45.139  0.00  0.00    -0.274 OA
ATOM     44  ND2 ASN d   1      12.399  -5.499  45.058  0.00  0.00    -0.370 N 
ATOM     45  H17 ASN d   1      12.144  -5.335  46.011  0.00  0.00     0.159 HD
ATOM     46  H18 ASN d   1      12.800  -4.762  44.513  0.00  0.00     0.159 HD
ENDBRANCH  39  42
ENDBRANCH  13  39
ENDBRANCH  10  13
ENDBRANCH   7   9
BRANCH   7  47
ATOM     47  CB  ASP d   1      17.906  -5.897  42.372  0.00  0.00     0.043 C 
ATOM     48  H21 ASP d   1      18.919  -5.752  42.775  0.00  0.00     0.052 H 
ATOM     49  H22 ASP d   1      17.467  -4.920  42.123  0.00  0.00     0.052 H 
BRANCH  47  50
ATOM     50  CG  ASP d   1      18.002  -6.731  41.093  0.00  0.00     0.175 C 
ATOM     51  OD1 ASP d   1      18.097  -7.973  41.209  0.00  0.00    -0.648 OA
ATOM     52  OD2 ASP d   1      17.989  -6.148  39.976  0.00  0.00    -0.648 OA
ENDBRANCH  47  50
ENDBRANCH   7  47
ENDBRANCH   4   7
ENDBRANCH   1   3
BRANCH   1  53
ATOM     53  C   GLU d   1      18.122  -3.313  46.460  0.00  0.00     0.241 C 
ATOM     54  O   GLU d   1      17.718  -2.576  47.339  0.00  0.00    -0.271 OA
ATOM     55  N   ASN d   1      18.582  -2.846  45.308  0.00  0.00    -0.346 N 
ATOM     56  H29 ASN d   1      18.901  -3.484  44.607  0.00  0.00     0.163 HD
BRANCH  55  57
ATOM     57  CA  ASN d   1      18.628  -1.410  45.052  0.00  0.00     0.097 C 
ATOM     58  H30 ASN d   1      18.045  -0.912  45.841  0.00  0.00     0.088 H 
BRANCH  57  59
ATOM     59  C   ASN d   1      18.037  -1.009  43.711  0.00  0.00     0.241 C 
ATOM     60  O   ASN d   1      18.393  -1.567  42.674  0.00  0.00    -0.271 OA
ATOM     61  N   TYR d   1      17.120  -0.046  43.755  0.00  0.00    -0.346 N 
ATOM     62  H35 TYR d   1      16.860   0.325  44.646  0.00  0.00     0.163 HD
BRANCH  61  63
ATOM     63  CA  TYR d   1      16.480   0.491  42.566  0.00  0.00     0.093 C 
ATOM     64  H36 TYR d   1      16.559  -0.220  41.730  0.00  0.00     0.088 H 
BRANCH  63  65
ATOM     65  C   TYR d   1      17.242   1.785  42.243  0.00  0.00     0.241 C 
ATOM     66  O   TYR d   1      16.692   2.731  41.697  0.00  0.00    -0.271 OA
ATOM     67  N   ALA d   1      18.519   1.822  42.606  0.00  0.00    -0.345 N 
ATOM     68  H44 ALA d   1      18.912   1.028  43.070  0.00  0.00     0.163 HD
BRANCH  67  69
ATOM     69  CA  ALA d   1      19.372   2.985  42.351  0.00  0.00     0.093 C 
ATOM     70  H45 ALA d   1      18.831   3.892  42.659  0.00  0.00     0.089 H 
BRANCH  69  71
ATOM     71  C   ALA d   1      19.716   3.100  40.860  0.00  0.00     0.196 C 
ATOM     72  O   ALA d   1      20.928   3.068  40.518  0.00  0.00    -0.646 OA
ATOM     73  OXT ALA d   1      18.765   3.221  40.054  0.00  0.00    -0.646 OA
ENDBRANCH  69  71
BRANCH  69  74
ATOM     74  CB  ALA d   1      20.661   2.872  43.172  0.00  0.00    -0.048 C 
ATOM     75  H46 ALA d   1      21.298   3.748  42.977  0.00  0.00     0.030 H 
ATOM     76  H47 ALA d   1      21.199   1.956  42.886  0.00  0.00     0.030 H 
ATOM     77  H48 ALA d   1      20.412   2.831  44.242  0.00  0.00     0.030 H 
ENDBRANCH  69  74
ENDBRANCH  67  69
ENDBRANCH  63  65
BRANCH  63  78
ATOM     78  CB  TYR d   1      15.000   0.786  42.848  0.00  0.00    -0.014 C 
ATOM     79  H37 TYR d   1      14.948   1.551  43.636  0.00  0.00     0.043 H 
ATOM     80  H38 TYR d   1      14.528  -0.141  43.205  0.00  0.00     0.043 H 
BRANCH  78  81
ATOM     81  CG  TYR d   1      14.209   1.288  41.648  0.00  0.00    -0.056 A 
ATOM     82  CD1 TYR d   1      13.909   0.444  40.582  0.00  0.00    -0.074 A 
ATOM     83  CE1 TYR d   1      13.206   0.908  39.466  0.00  0.00    -0.051 A 
ATOM     84  H39 TYR d   1      14.226  -0.592  40.618  0.00  0.00     0.084 H 
ATOM     85  CZ  TYR d   1      12.799   2.231  39.413  0.00  0.00     0.065 A 
ATOM     86  H41 TYR d   1      12.981   0.236  38.646  0.00  0.00     0.087 H 
ATOM     87  CE2 TYR d   1      13.085   3.089  40.464  0.00  0.00    -0.051 A 
ATOM     88  CD2 TYR d   1      13.784   2.616  41.572  0.00  0.00    -0.074 A 
ATOM     89  H42 TYR d   1      12.766   4.124  40.423  0.00  0.00     0.087 H 
ATOM     90  H40 TYR d   1      14.002   3.292  42.391  0.00  0.00     0.084 H 
BRANCH  85  91
ATOM     91  OH  TYR d   1      12.116   2.691  38.311  0.00  0.00    -0.361 OA
ATOM     92  H43 TYR d   1      12.004   1.981  37.690  0.00  0.00     0.217 HD
ENDBRANCH  85  91
ENDBRANCH  78  81
ENDBRANCH  63  78
ENDBRANCH  61  63
ENDBRANCH  57  59
BRANCH  57  93
ATOM     93  CB  ASN d   1      20.069  -0.909  45.121  0.00  0.00     0.036 C 
ATOM     94  H31 ASN d   1      20.091   0.146  44.811  0.00  0.00     0.051 H 
ATOM     95  H32 ASN d   1      20.683  -1.507  44.431  0.00  0.00     0.051 H 
BRANCH  93  96
ATOM     96  CG  ASN d   1      20.657  -1.018  46.515  0.00  0.00     0.217 C 
ATOM     97  OD1 ASN d   1      20.312  -0.240  47.404  0.00  0.00    -0.274 OA
ATOM     98  ND2 ASN d   1      21.538  -1.996  46.717  0.00  0.00    -0.370 N 
ATOM     99  H33 ASN d   1      21.957  -2.114  47.617  0.00  0.00     0.159 HD
ATOM    100  H34 ASN d   1      21.781  -2.613  45.968  0.00  0.00     0.159 HD
ENDBRANCH  93  96
ENDBRANCH  57  93
ENDBRANCH  55  57
ENDBRANCH   1  53
BRANCH   1 101
ATOM    101  CB  GLU d   1      19.359  -5.205  47.484  0.00  0.00    -0.029 C 
ATOM    102  H25 GLU d   1      19.487  -4.463  48.286  0.00  0.00     0.037 H 
ATOM    103  H26 GLU d   1      20.234  -5.181  46.818  0.00  0.00     0.037 H 
BRANCH 101 104
ATOM    104  CG  GLU d   1      19.279  -6.576  48.114  0.00  0.00     0.018 C 
ATOM    105  H27 GLU d   1      20.258  -6.823  48.551  0.00  0.00     0.049 H 
ATOM    106  H28 GLU d   1      19.029  -7.311  47.334  0.00  0.00     0.049 H 
BRANCH 104 107
ATOM    107  CD  GLU d   1      18.230  -6.641  49.199  0.00  0.00     0.172 C 
ATOM    108  OE1 GLU d   1      18.398  -5.939  50.225  0.00  0.00    -0.648 OA
ATOM    109  OE2 GLU d   1      17.243  -7.391  49.022  0.00  0.00    -0.648 OA
ENDBRANCH 104 107
ENDBRANCH 101 104
ENDBRANCH   1 101
TORSDOF 31
