REMARK WARNING: 32 MAX_TORS EXCEEDED!!!
REMARK  37 active torsions:
REMARK  status: ('A' for Active; 'I' for Inactive)
REMARK    1  A    between atoms: CA_2  and  N_1 
REMARK    2  A    between atoms: C_3  and  CA_2 
REMARK       I    between atoms: N_5  and  C_3 
REMARK    3  A    between atoms: CA_6  and  N_5 
REMARK    4  A    between atoms: C_7  and  CA_6 
REMARK       I    between atoms: N_9  and  C_7 
REMARK    5  A    between atoms: CA_10  and  N_9 
REMARK    6  A    between atoms: C_11  and  CA_10 
REMARK       I    between atoms: N_13  and  C_11 
REMARK    7  A    between atoms: CA_14  and  N_13 
REMARK    8  A    between atoms: C_15  and  CA_14 
REMARK       I    between atoms: N_17  and  C_15 
REMARK    9  A    between atoms: CA_18  and  N_17 
REMARK   10  A    between atoms: C_19  and  CA_18 
REMARK       I    between atoms: N_21  and  C_19 
REMARK   11  A    between atoms: CA_22  and  N_21 
REMARK   12  A    between atoms: C_23  and  CA_22 
REMARK       I    between atoms: N_25  and  C_23 
REMARK   13  A    between atoms: CA_26  and  N_25 
REMARK   14  A    between atoms: CA_26  and  CB_29 
REMARK   15  A    between atoms: C_27  and  CA_26 
REMARK       I    between atoms: N_30  and  C_27 
REMARK   16  A    between atoms: CA_31  and  N_30 
REMARK   17  A    between atoms: CA_31  and  CB_34 
REMARK   18  A    between atoms: C_32  and  CA_31 
REMARK       I    between atoms: N_37  and  C_32 
REMARK   19  A    between atoms: CB_34  and  CG2_36 
REMARK   20  A    between atoms: CB_34  and  CG1_35 
REMARK   21  A    between atoms: C_39  and  CA_38 
REMARK       I    between atoms: N_44  and  C_39 
REMARK   22  A    between atoms: CA_45  and  N_44 
REMARK   23  A    between atoms: C_46  and  CA_45 
REMARK       I    between atoms: N_48  and  C_46 
REMARK   24  A    between atoms: CA_49  and  N_48 
REMARK   25  A    between atoms: CA_49  and  CB_52 
REMARK   26  A    between atoms: C_50  and  CA_49 
REMARK       I    between atoms: N_54  and  C_50 
REMARK   27  A    between atoms: CB_52  and  OG_53 
REMARK   28  A    between atoms: CA_55  and  N_54 
REMARK   29  A    between atoms: CA_55  and  CB_58 
REMARK   30  A    between atoms: C_56  and  CA_55 
REMARK       I    between atoms: N_68  and  C_56 
REMARK   31  A    between atoms: CB_58  and  CG_59 
REMARK   32  A    between atoms: C_70  and  CA_69 
REMARK       I    between atoms: C_70  and  N_75 
REMARK   33  A    between atoms: N_75  and  CA_76 
REMARK   34  A    between atoms: CA_76  and  CB_79 
REMARK   35  A    between atoms: CA_76  and  C_77 
REMARK   36  A    between atoms: C_77  and  O1_89 
REMARK   37  A    between atoms: CB_79  and  CG_80 
ROOT
ATOM      1  N   GLY d   1      30.463  12.596  50.688  0.00  0.00    -0.351 N 
ATOM      2  H42 GLY d   1      30.064  12.386  51.581  0.00  0.00     0.163 HD
ATOM      3  C   PRO d   1      31.011  13.708  50.411  0.00  0.00     0.241 C 
ATOM      4  O   PRO d   1      31.551  13.944  49.331  0.00  0.00    -0.271 OA
ENDROOT
BRANCH   3   5
ATOM      5  CA  PRO d   1      30.957  14.708  51.496  0.00  0.00     0.091 C 
ATOM      6  CB  PRO d   1      30.149  15.972  51.335  0.00  0.00    -0.036 C 
ATOM      7  CG  PRO d   1      30.578  16.607  52.536  0.00  0.00    -0.048 C 
ATOM      8  H36 PRO d   1      29.066  15.780  51.324  0.00  0.00     0.036 H 
ATOM      9  H37 PRO d   1      30.430  16.539  50.435  0.00  0.00     0.036 H 
ATOM     10  CD  PRO d   1      31.981  16.142  52.583  0.00  0.00    -0.001 C 
ATOM     11  H38 PRO d   1      30.513  17.703  52.465  0.00  0.00     0.035 H 
ATOM     12  H39 PRO d   1      30.004  16.262  53.408  0.00  0.00     0.035 H 
ATOM     13  N   PRO d   1      32.284  14.793  52.023  0.00  0.00    -0.337 N 
ATOM     14  H40 PRO d   1      32.588  16.872  52.027  0.00  0.00     0.064 H 
ATOM     15  H41 PRO d   1      32.290  16.136  53.639  0.00  0.00     0.064 H 
ATOM     16  C   VAL d   1      33.494  14.961  52.492  0.00  0.00     0.243 C 
ATOM     17  O   VAL d   1      34.286  15.939  52.500  0.00  0.00    -0.271 OA
ATOM     18  H35 PRO d   1      30.392  14.196  52.289  0.00  0.00     0.087 H 
BRANCH  16  19
ATOM     19  CA  VAL d   1      33.880  13.471  52.832  0.00  0.00     0.092 C 
ATOM     20  H27 VAL d   1      32.948  12.896  52.935  0.00  0.00     0.088 H 
BRANCH  19  21
ATOM     21  N   VAL d   1      34.643  12.914  51.772  0.00  0.00    -0.346 N 
ATOM     22  C   ALA d   1      34.332  11.782  51.123  0.00  0.00     0.240 C 
ATOM     23  O   ALA d   1      33.388  11.071  51.472  0.00  0.00    -0.271 OA
ATOM     24  H26 VAL d   1      35.470  13.400  51.489  0.00  0.00     0.163 HD
BRANCH  22  25
ATOM     25  CA  ALA d   1      35.178  11.380  49.881  0.00  0.00     0.086 C 
ATOM     26  H22 ALA d   1      36.070  12.021  49.831  0.00  0.00     0.086 H 
BRANCH  25  27
ATOM     27  N   ALA d   1      35.598   9.999  49.999  0.00  0.00    -0.347 N 
ATOM     28  C   GLU d   1      36.464   9.744  50.938  0.00  0.00     0.236 C 
ATOM     29  O   GLU d   1      36.924  10.617  51.667  0.00  0.00    -0.272 OA
ATOM     30  H21 ALA d   1      35.244   9.284  49.396  0.00  0.00     0.163 HD
BRANCH  28  31
ATOM     31  CA  GLU d   1      36.918   8.328  51.121  0.00  0.00     0.069 C 
ATOM     32  H19 GLU d   1      37.595   8.293  51.988  0.00  0.00     0.078 H 
ATOM     33  H20 GLU d   1      36.033   7.707  51.322  0.00  0.00     0.078 H 
BRANCH  31  34
ATOM     34  N   GLU d   1      37.611   7.771  49.986  0.00  0.00    -0.351 N 
ATOM     35  C   GLU d   1      37.054   6.800  49.304  0.00  0.00     0.235 C 
ATOM     36  O   GLU d   1      35.923   6.351  49.549  0.00  0.00    -0.272 OA
ATOM     37  H18 GLU d   1      38.509   8.123  49.721  0.00  0.00     0.163 HD
BRANCH  35  38
ATOM     38  CA  GLU d   1      37.876   6.269  48.180  0.00  0.00     0.069 C 
ATOM     39  H16 GLU d   1      37.982   5.179  48.284  0.00  0.00     0.078 H 
ATOM     40  H17 GLU d   1      37.385   6.500  47.223  0.00  0.00     0.078 H 
BRANCH  38  41
ATOM     41  N   GLU d   1      39.187   6.890  48.216  0.00  0.00    -0.351 N 
ATOM     42  C   GLY d   1      39.454   8.070  47.612  0.00  0.00     0.235 C 
ATOM     43  O   GLY d   1      38.599   8.705  47.013  0.00  0.00    -0.272 OA
ATOM     44  H15 GLU d   1      39.924   6.426  48.708  0.00  0.00     0.163 HD
BRANCH  42  45
ATOM     45  CA  GLY d   1      40.886   8.576  47.675  0.00  0.00     0.069 C 
ATOM     46  H13 GLY d   1      41.110   9.155  46.767  0.00  0.00     0.078 H 
ATOM     47  H14 GLY d   1      41.009   9.219  48.559  0.00  0.00     0.078 H 
BRANCH  45  48
ATOM     48  N   GLY d   1      41.803   7.440  47.768  0.00  0.00    -0.351 N 
ATOM     49  C   ASN d   1      42.387   7.172  48.925  0.00  0.00     0.235 C 
ATOM     50  O   ASN d   1      42.180   7.836  49.927  0.00  0.00    -0.272 OA
ATOM     51  H12 GLY d   1      41.987   6.872  46.966  0.00  0.00     0.163 HD
BRANCH  49  52
ATOM     52  CA  ASN d   1      43.316   5.972  48.982  0.00  0.00     0.069 C 
ATOM     53  H10 ASN d   1      43.138   5.297  48.132  0.00  0.00     0.078 H 
ATOM     54  H11 ASN d   1      44.369   6.290  48.983  0.00  0.00     0.078 H 
BRANCH  52  55
ATOM     55  N   ASN d   1      42.968   5.332  50.233  0.00  0.00    -0.351 N 
ATOM     56  C   VAL d   1      42.794   4.016  50.364  0.00  0.00     0.235 C 
ATOM     57  O   VAL d   1      42.918   3.210  49.440  0.00  0.00    -0.272 OA
ATOM     58  H9  ASN d   1      42.852   5.907  51.042  0.00  0.00     0.163 HD
BRANCH  56  59
ATOM     59  CA  VAL d   1      42.411   3.513  51.796  0.00  0.00     0.069 C 
ATOM     60  H7  VAL d   1      42.899   2.539  51.945  0.00  0.00     0.078 H 
ATOM     61  H8  VAL d   1      42.812   4.239  52.519  0.00  0.00     0.078 H 
BRANCH  59  62
ATOM     62  N   VAL d   1      40.969   3.338  52.096  0.00  0.00    -0.351 N 
ATOM     63  C   ILE d   1      40.609   2.540  53.119  0.00  0.00     0.243 C 
ATOM     64  O   ILE d   1      41.406   1.864  53.774  0.00  0.00    -0.272 OA
ATOM     65  H6  VAL d   1      40.276   3.805  51.547  0.00  0.00     0.163 HD
BRANCH  63  66
ATOM     66  CA  ILE d   1      39.102   2.472  53.390  0.00  0.00     0.152 C 
ATOM     67  H4  ILE d   1      38.661   3.470  53.249  0.00  0.00     0.090 H 
ATOM     68  H5  ILE d   1      38.637   1.764  52.688  0.00  0.00     0.090 H 
BRANCH  66  69
ATOM     69  N   ILE d   1      38.862   2.028  54.750  0.00  0.00    -0.071 N 
ATOM     70  H1  ILE d   1      37.869   1.986  54.919  0.00  0.00     0.274 HD
ATOM     71  H2  ILE d   1      39.286   2.676  55.395  0.00  0.00     0.274 HD
ATOM     72  H3  ILE d   1      39.264   1.113  54.881  0.00  0.00     0.274 HD
ENDBRANCH  66  69
ENDBRANCH  63  66
ENDBRANCH  59  62
ENDBRANCH  56  59
ENDBRANCH  52  55
ENDBRANCH  49  52
ENDBRANCH  45  48
ENDBRANCH  42  45
ENDBRANCH  38  41
ENDBRANCH  35  38
ENDBRANCH  31  34
ENDBRANCH  28  31
ENDBRANCH  25  27
BRANCH  25  73
ATOM     73  CB  ALA d   1      34.355  11.578  48.615  0.00  0.00    -0.049 C 
ATOM     74  H23 ALA d   1      34.044  12.631  48.541  0.00  0.00     0.030 H 
ATOM     75  H24 ALA d   1      33.464  10.934  48.653  0.00  0.00     0.030 H 
ATOM     76  H25 ALA d   1      34.962  11.312  47.737  0.00  0.00     0.030 H 
ENDBRANCH  25  73
ENDBRANCH  22  25
ENDBRANCH  19  21
BRANCH  19  77
ATOM     77  CB  VAL d   1      34.700  13.332  54.194  0.00  0.00    -0.033 C 
ATOM     78  H28 VAL d   1      35.663  13.846  54.056  0.00  0.00     0.042 H 
BRANCH  77  79
ATOM     79  CG2 VAL d   1      34.993  11.963  54.581  0.00  0.00    -0.071 C 
ATOM     80  H32 VAL d   1      35.548  11.464  53.773  0.00  0.00     0.028 H 
ATOM     81  H33 VAL d   1      34.052  11.425  54.766  0.00  0.00     0.028 H 
ATOM     82  H34 VAL d   1      35.601  11.963  55.498  0.00  0.00     0.028 H 
ENDBRANCH  77  79
BRANCH  77  83
ATOM     83  CG1 VAL d   1      33.923  14.046  55.313  0.00  0.00    -0.071 C 
ATOM     84  H29 VAL d   1      34.478  13.958  56.259  0.00  0.00     0.028 H 
ATOM     85  H30 VAL d   1      32.932  13.582  55.425  0.00  0.00     0.028 H 
ATOM     86  H31 VAL d   1      33.803  15.109  55.056  0.00  0.00     0.028 H 
ENDBRANCH  77  83
ENDBRANCH  19  77
ENDBRANCH  16  19
ENDBRANCH   3   5
BRANCH   1  87
ATOM     87  CA  GLY d   1      30.475  11.669  49.586  0.00  0.00     0.069 C 
ATOM     88  H43 GLY d   1      30.437  10.636  49.962  0.00  0.00     0.078 H 
ATOM     89  H44 GLY d   1      31.387  11.808  48.987  0.00  0.00     0.078 H 
BRANCH  87  90
ATOM     90  C   GLY d   1      29.242  11.961  48.736  0.00  0.00     0.236 C 
ATOM     91  O   GLY d   1      29.244  11.670  47.540  0.00  0.00    -0.272 OA
ATOM     92  N   SER d   1      28.212  12.502  49.337  0.00  0.00    -0.344 N 
ATOM     93  H45 SER d   1      28.274  12.710  50.313  0.00  0.00     0.163 HD
BRANCH  92  94
ATOM     94  CA  SER d   1      26.977  12.811  48.626  0.00  0.00     0.109 C 
ATOM     95  H46 SER d   1      27.128  12.642  47.550  0.00  0.00     0.090 H 
BRANCH  94  96
ATOM     96  CB  SER d   1      25.827  11.946  49.116  0.00  0.00     0.044 C 
ATOM     97  H47 SER d   1      26.124  10.889  49.046  0.00  0.00     0.077 H 
ATOM     98  H48 SER d   1      24.952  12.124  48.474  0.00  0.00     0.077 H 
BRANCH  96  99
ATOM     99  OG  SER d   1      25.477  12.230  50.446  0.00  0.00    -0.398 OA
ATOM    100  H49 SER d   1      24.757  11.669  50.710  0.00  0.00     0.209 HD
ENDBRANCH  96  99
ENDBRANCH  94  96
BRANCH  94 101
ATOM    101  C   SER d   1      26.615  14.251  48.871  0.00  0.00     0.243 C 
ATOM    102  O   SER d   1      27.074  14.845  49.853  0.00  0.00    -0.271 OA
ATOM    103  N   TRP d   1      25.804  14.837  47.965  0.00  0.00    -0.346 N 
ATOM    104  H50 TRP d   1      25.497  14.298  47.181  0.00  0.00     0.163 HD
BRANCH 103 105
ATOM    105  CA  TRP d   1      25.370  16.177  48.075  0.00  0.00     0.093 C 
ATOM    106  H51 TRP d   1      25.120  16.410  49.120  0.00  0.00     0.088 H 
BRANCH 105 107
ATOM    107  CB  TRP d   1      26.491  17.077  47.541  0.00  0.00    -0.012 C 
ATOM    108  H52 TRP d   1      26.527  16.951  46.449  0.00  0.00     0.044 H 
ATOM    109  H53 TRP d   1      27.436  16.727  47.981  0.00  0.00     0.044 H 
BRANCH 107 110
ATOM    110  CG  TRP d   1      26.382  18.455  47.807  0.00  0.00    -0.028 A 
ATOM    111  CD1 TRP d   1      25.967  19.438  46.973  0.00  0.00    -0.015 A 
ATOM    112  NE1 TRP d   1      26.053  20.649  47.601  0.00  0.00    -0.365 N 
ATOM    113  H54 TRP d   1      25.617  19.286  45.953  0.00  0.00     0.112 H 
ATOM    114  CE2 TRP d   1      26.538  20.450  48.858  0.00  0.00     0.042 A 
ATOM    115  H55 TRP d   1      25.795  21.559  47.193  0.00  0.00     0.165 HD
ATOM    116  CD2 TRP d   1      26.745  19.067  49.006  0.00  0.00    -0.002 A 
ATOM    117  CZ2 TRP d   1      26.801  21.361  49.879  0.00  0.00    -0.056 A 
ATOM    118  CE3 TRP d   1      27.198  18.593  50.205  0.00  0.00    -0.070 A 
ATOM    119  CZ3 TRP d   1      27.478  19.466  51.194  0.00  0.00    -0.082 A 
ATOM    120  H56 TRP d   1      27.331  17.528  50.359  0.00  0.00     0.084 H 
ATOM    121  CH2 TRP d   1      27.283  20.851  51.042  0.00  0.00    -0.081 A 
ATOM    122  H58 TRP d   1      27.865  19.089  52.134  0.00  0.00     0.083 H 
ATOM    123  H59 TRP d   1      27.520  21.519  51.862  0.00  0.00     0.083 H 
ATOM    124  H57 TRP d   1      26.630  22.424  49.752  0.00  0.00     0.086 H 
ENDBRANCH 107 110
ENDBRANCH 105 107
BRANCH 105 125
ATOM    125  C   TRP d   1      24.215  16.475  47.168  0.00  0.00     0.243 C 
ATOM    126  O   TRP d   1      24.055  15.870  46.118  0.00  0.00    -0.271 OA
ATOM    127  N   PRO d   1      23.339  17.346  47.605  0.00  0.00    -0.337 N 
ATOM    128  CA  PRO d   1      22.234  17.852  46.809  0.00  0.00     0.091 C 
ATOM    129  CD  PRO d   1      23.077  17.502  49.039  0.00  0.00    -0.001 C 
ATOM    130  CB  PRO d   1      21.581  18.849  47.742  0.00  0.00    -0.036 C 
ATOM    131  H60 PRO d   1      21.531  17.050  46.539  0.00  0.00     0.087 H 
ATOM    132  CG  PRO d   1      21.764  18.180  49.050  0.00  0.00    -0.048 C 
ATOM    133  H61 PRO d   1      20.516  18.986  47.505  0.00  0.00     0.036 H 
ATOM    134  H62 PRO d   1      22.091  19.823  47.712  0.00  0.00     0.036 H 
ATOM    135  H63 PRO d   1      21.736  18.926  49.858  0.00  0.00     0.035 H 
ATOM    136  H64 PRO d   1      20.964  17.441  49.206  0.00  0.00     0.035 H 
ATOM    137  H65 PRO d   1      23.849  18.121  49.519  0.00  0.00     0.064 H 
ATOM    138  H66 PRO d   1      23.025  16.525  49.542  0.00  0.00     0.064 H 
BRANCH 128 139
ATOM    139  C   PRO d   1      22.753  18.477  45.593  0.00  0.00     0.241 C 
ATOM    140  O   PRO d   1      23.762  19.157  45.649  0.00  0.00    -0.271 OA
ATOM    141  N   TRP d   1      22.084  18.224  44.483  0.00  0.00    -0.345 N 
ATOM    142  H67 TRP d   1      21.265  17.650  44.492  0.00  0.00     0.163 HD
BRANCH 141 143
ATOM    143  CA  TRP d   1      22.567  18.795  43.274  0.00  0.00     0.097 C 
ATOM    144  H68 TRP d   1      23.606  19.096  43.472  0.00  0.00     0.089 H 
BRANCH 143 145
ATOM    145  CB  TRP d   1      22.641  17.748  42.193  0.00  0.00    -0.011 C 
ATOM    146  H69 TRP d   1      22.765  18.262  41.229  0.00  0.00     0.044 H 
ATOM    147  H70 TRP d   1      21.692  17.191  42.193  0.00  0.00     0.044 H 
BRANCH 145 148
ATOM    148  CG  TRP d   1      23.790  16.732  42.342  0.00  0.00    -0.028 A 
ATOM    149  CD1 TRP d   1      24.950  16.818  43.045  0.00  0.00    -0.015 A 
ATOM    150  NE1 TRP d   1      25.756  15.728  42.755  0.00  0.00    -0.365 N 
ATOM    151  H71 TRP d   1      25.208  17.622  43.733  0.00  0.00     0.112 H 
ATOM    152  CE2 TRP d   1      25.094  14.917  41.870  0.00  0.00     0.042 A 
ATOM    153  H72 TRP d   1      26.696  15.556  43.140  0.00  0.00     0.165 HD
ATOM    154  CD2 TRP d   1      23.851  15.525  41.602  0.00  0.00    -0.002 A 
ATOM    155  CZ2 TRP d   1      25.455  13.724  41.283  0.00  0.00    -0.056 A 
ATOM    156  CE3 TRP d   1      22.958  14.891  40.727  0.00  0.00    -0.070 A 
ATOM    157  CZ3 TRP d   1      23.321  13.714  40.176  0.00  0.00    -0.082 A 
ATOM    158  H73 TRP d   1      21.997  15.337  40.498  0.00  0.00     0.084 H 
ATOM    159  CH2 TRP d   1      24.561  13.146  40.465  0.00  0.00    -0.081 A 
ATOM    160  H75 TRP d   1      22.642  13.205  39.502  0.00  0.00     0.083 H 
ATOM    161  H76 TRP d   1      24.814  12.196  40.009  0.00  0.00     0.083 H 
ATOM    162  H74 TRP d   1      26.421  13.271  41.474  0.00  0.00     0.086 H 
ENDBRANCH 145 148
ENDBRANCH 143 145
BRANCH 143 163
ATOM    163  C   TRP d   1      21.872  20.035  42.892  0.00  0.00     0.163 C 
ATOM    164  O   TRP d   1      22.215  20.718  41.956  0.00  0.00    -0.648 OA
BRANCH 163 165
ATOM    165  O1  TRP d   1      20.820  20.421  43.609  0.00  0.00    -0.775 OA
ATOM    166  H77 TRP d   1      20.667  19.794  44.306  0.00  0.00     0.167 HD
ENDBRANCH 163 165
ENDBRANCH 143 163
ENDBRANCH 141 143
ENDBRANCH 128 139
ENDBRANCH 105 125
ENDBRANCH 103 105
ENDBRANCH  94 101
ENDBRANCH  92  94
ENDBRANCH  87  90
ENDBRANCH   1  87
TORSDOF 37
