REMARK  16 active torsions:
REMARK  status: ('A' for Active; 'I' for Inactive)
REMARK    1  A    between atoms: CA_2  and  N_1 
REMARK    2  A    between atoms: CA_2  and  CB_5 
REMARK    3  A    between atoms: C_3  and  CA_2 
REMARK       I    between atoms: N_6  and  C_3 
REMARK    4  A    between atoms: CA_7  and  N_6 
REMARK    5  A    between atoms: CA_7  and  CB_10 
REMARK    6  A    between atoms: C_8  and  CA_7 
REMARK       I    between atoms: N_15  and  C_8 
REMARK    7  A    between atoms: CB_10  and  CG_11 
REMARK    8  A    between atoms: CG_11  and  CD_12 
REMARK    9  A    between atoms: CA_16  and  N_15 
REMARK   10  A    between atoms: CA_16  and  CB_19 
REMARK   11  A    between atoms: C_17  and  CA_16 
REMARK       I    between atoms: C_17  and  N_20 
REMARK   12  A    between atoms: N_20  and  CA_21 
REMARK   13  A    between atoms: CA_21  and  CB_24 
REMARK   14  A    between atoms: CA_21  and  C_22 
REMARK   15  A    between atoms: CB_24  and  CG2_26 
REMARK   16  A    between atoms: CB_24  and  CG1_25 
ROOT
ATOM      1  N   ALA d   1      21.212  43.893  -2.332  0.00  0.00    -0.346 N 
ATOM      2  H14 ALA d   1      20.515  43.450  -2.895  0.00  0.00     0.163 HD
ATOM      3  C   GLU d   1      22.170  44.598  -2.932  0.00  0.00     0.241 C 
ATOM      4  O   GLU d   1      23.052  45.213  -2.317  0.00  0.00    -0.271 OA
ENDROOT
BRANCH   3   5
ATOM      5  CA  GLU d   1      22.122  44.623  -4.461  0.00  0.00     0.090 C 
ATOM      6  H9  GLU d   1      21.067  44.565  -4.767  0.00  0.00     0.087 H 
BRANCH   5   7
ATOM      7  N   GLU d   1      22.668  45.869  -4.984  0.00  0.00    -0.346 N 
ATOM      8  C   ALA d   1      22.084  46.538  -5.975  0.00  0.00     0.248 C 
ATOM      9  O   ALA d   1      21.133  46.102  -6.626  0.00  0.00    -0.271 OA
ATOM     10  H8  GLU d   1      23.509  46.233  -4.585  0.00  0.00     0.163 HD
BRANCH   8  11
ATOM     11  CA  ALA d   1      22.661  47.903  -6.286  0.00  0.00     0.172 C 
ATOM     12  H4  ALA d   1      23.750  47.872  -6.138  0.00  0.00     0.098 H 
BRANCH  11  13
ATOM     13  N   ALA d   1      22.380  48.256  -7.698  0.00  0.00    -0.067 N 
ATOM     14  H1  ALA d   1      22.766  49.165  -7.900  0.00  0.00     0.275 HD
ATOM     15  H2  ALA d   1      21.383  48.273  -7.848  0.00  0.00     0.275 HD
ATOM     16  H3  ALA d   1      22.800  47.570  -8.306  0.00  0.00     0.275 HD
ENDBRANCH  11  13
BRANCH  11  17
ATOM     17  CB  ALA d   1      22.071  48.941  -5.352  0.00  0.00    -0.042 C 
ATOM     18  H5  ALA d   1      22.289  48.663  -4.310  0.00  0.00     0.030 H 
ATOM     19  H6  ALA d   1      20.982  48.989  -5.498  0.00  0.00     0.030 H 
ATOM     20  H7  ALA d   1      22.514  49.924  -5.569  0.00  0.00     0.030 H 
ENDBRANCH  11  17
ENDBRANCH   8  11
ENDBRANCH   5   7
BRANCH   5  21
ATOM     21  CB  GLU d   1      22.848  43.407  -5.043  0.00  0.00    -0.029 C 
ATOM     22  H10 GLU d   1      22.441  43.214  -6.046  0.00  0.00     0.037 H 
ATOM     23  H11 GLU d   1      22.644  42.544  -4.392  0.00  0.00     0.037 H 
BRANCH  21  24
ATOM     24  CG  GLU d   1      24.352  43.560  -5.166  0.00  0.00     0.018 C 
ATOM     25  H12 GLU d   1      24.657  44.478  -4.643  0.00  0.00     0.049 H 
ATOM     26  H13 GLU d   1      24.612  43.641  -6.232  0.00  0.00     0.049 H 
BRANCH  24  27
ATOM     27  CD  GLU d   1      25.105  42.388  -4.570  0.00  0.00     0.172 C 
ATOM     28  OE2 GLU d   1      25.529  41.501  -5.349  0.00  0.00    -0.648 OA
ATOM     29  OE1 GLU d   1      25.269  42.355  -3.327  0.00  0.00    -0.648 OA
ENDBRANCH  24  27
ENDBRANCH  21  24
ENDBRANCH   5  21
ENDBRANCH   3   5
BRANCH   1  30
ATOM     30  CA  ALA d   1      21.144  43.744  -0.880  0.00  0.00     0.086 C 
ATOM     31  H15 ALA d   1      21.155  44.745  -0.425  0.00  0.00     0.086 H 
BRANCH  30  32
ATOM     32  CB  ALA d   1      19.855  43.048  -0.481  0.00  0.00    -0.049 C 
ATOM     33  H16 ALA d   1      19.819  42.943   0.613  0.00  0.00     0.030 H 
ATOM     34  H17 ALA d   1      19.817  42.052  -0.946  0.00  0.00     0.030 H 
ATOM     35  H18 ALA d   1      18.996  43.645  -0.821  0.00  0.00     0.030 H 
ENDBRANCH  30  32
BRANCH  30  36
ATOM     36  C   ALA d   1      22.351  42.970  -0.371  0.00  0.00     0.240 C 
ATOM     37  O   ALA d   1      22.946  42.185  -1.109  0.00  0.00    -0.271 OA
ATOM     38  N   VAL d   1      22.731  43.213   0.878  0.00  0.00    -0.344 N 
ATOM     39  H19 VAL d   1      22.257  43.916   1.408  0.00  0.00     0.163 HD
BRANCH  38  40
ATOM     40  CA  VAL d   1      23.830  42.470   1.491  0.00  0.00     0.099 C 
ATOM     41  H20 VAL d   1      24.500  42.149   0.680  0.00  0.00     0.090 H 
BRANCH  40  42
ATOM     42  CB  VAL d   1      24.681  43.354   2.459  0.00  0.00    -0.032 C 
ATOM     43  H21 VAL d   1      24.992  44.249   1.901  0.00  0.00     0.042 H 
BRANCH  42  44
ATOM     44  CG2 VAL d   1      25.952  42.623   2.907  0.00  0.00    -0.071 C 
ATOM     45  H25 VAL d   1      26.519  42.297   2.022  0.00  0.00     0.028 H 
ATOM     46  H26 VAL d   1      25.677  41.745   3.510  0.00  0.00     0.028 H 
ATOM     47  H27 VAL d   1      26.573  43.302   3.510  0.00  0.00     0.028 H 
ENDBRANCH  42  44
BRANCH  42  48
ATOM     48  CG1 VAL d   1      23.866  43.823   3.658  0.00  0.00    -0.071 C 
ATOM     49  H22 VAL d   1      24.499  44.440   4.313  0.00  0.00     0.028 H 
ATOM     50  H23 VAL d   1      23.501  42.949   4.218  0.00  0.00     0.028 H 
ATOM     51  H24 VAL d   1      23.009  44.418   3.309  0.00  0.00     0.028 H 
ENDBRANCH  42  48
ENDBRANCH  40  42
BRANCH  40  52
ATOM     52  C   VAL d   1      23.301  41.202   2.174  0.00  0.00     0.197 C 
ATOM     53  O   VAL d   1      22.217  41.193   2.764  0.00  0.00    -0.646 OA
ATOM     54  O1  VAL d   1      23.988  40.147   2.132  0.00  0.00    -0.646 OA
ENDBRANCH  40  52
ENDBRANCH  38  40
ENDBRANCH  30  36
ENDBRANCH   1  30
TORSDOF 16
