REMARK  15 active torsions:
REMARK  status: ('A' for Active; 'I' for Inactive)
REMARK    1  A    between atoms: CA_2  and  N_1 
REMARK    2  A    between atoms: CA_2  and  CB_5 
REMARK    3  A    between atoms: C_3  and  CA_2 
REMARK       I    between atoms: N_6  and  C_3 
REMARK    4  A    between atoms: CA_7  and  N_6 
REMARK    5  A    between atoms: CA_7  and  CB_10 
REMARK    6  A    between atoms: C_8  and  CA_7 
REMARK       I    between atoms: N_13  and  C_8 
REMARK    7  A    between atoms: CB_10  and  CG2_12 
REMARK    8  A    between atoms: CB_10  and  CG1_11 
REMARK    9  A    between atoms: C_15  and  CA_14 
REMARK       I    between atoms: C_15  and  N_20 
REMARK   10  A    between atoms: N_20  and  CA_21 
REMARK   11  A    between atoms: CA_21  and  CB_24 
REMARK   12  A    between atoms: CA_21  and  C_22 
REMARK   13  A    between atoms: CB_24  and  CG2_26 
REMARK   14  A    between atoms: CB_24  and  CG1_25 
REMARK   15  A    between atoms: CG1_25  and  CD1_27 
ROOT
ATOM      1  C   VAL d   1      22.205  44.934  -2.871  0.00  0.00     0.243 C 
ATOM      2  O   VAL d   1      23.047  45.655  -2.329  0.00  0.00    -0.271 OA
ATOM      3  N   PRO d   1      21.329  44.218  -2.156  0.00  0.00    -0.337 N 
ATOM      4  CA  PRO d   1      21.448  44.139  -0.691  0.00  0.00     0.091 C 
ATOM      5  CB  PRO d   1      20.331  43.171  -0.298  0.00  0.00    -0.036 C 
ATOM      6  CG  PRO d   1      19.326  43.349  -1.357  0.00  0.00    -0.048 C 
ATOM      7  CD  PRO d   1      20.138  43.490  -2.633  0.00  0.00    -0.001 C 
ATOM      8  H17 PRO d   1      21.285  45.129  -0.241  0.00  0.00     0.087 H 
ATOM      9  H18 PRO d   1      19.914  43.432   0.686  0.00  0.00     0.036 H 
ATOM     10  H19 PRO d   1      20.699  42.135  -0.277  0.00  0.00     0.036 H 
ATOM     11  H20 PRO d   1      18.662  42.474  -1.414  0.00  0.00     0.035 H 
ATOM     12  H21 PRO d   1      18.727  44.253  -1.176  0.00  0.00     0.035 H 
ATOM     13  H22 PRO d   1      20.409  42.507  -3.046  0.00  0.00     0.064 H 
ATOM     14  H23 PRO d   1      19.593  44.069  -3.393  0.00  0.00     0.064 H 
ENDROOT
BRANCH   4  15
ATOM     15  C   PRO d   1      22.789  43.604  -0.233  0.00  0.00     0.241 C 
ATOM     16  O   PRO d   1      23.419  42.822  -0.947  0.00  0.00    -0.271 OA
ATOM     17  N   ILE d   1      23.233  44.067   0.934  0.00  0.00    -0.344 N 
ATOM     18  H24 ILE d   1      22.760  44.838   1.361  0.00  0.00     0.163 HD
BRANCH  17  19
ATOM     19  CA  ILE d   1      24.387  43.485   1.609  0.00  0.00     0.099 C 
ATOM     20  H25 ILE d   1      25.162  43.233   0.870  0.00  0.00     0.090 H 
BRANCH  19  21
ATOM     21  CB  ILE d   1      24.993  44.451   2.669  0.00  0.00    -0.029 C 
ATOM     22  H26 ILE d   1      24.234  44.615   3.448  0.00  0.00     0.043 H 
BRANCH  21  23
ATOM     23  CG2 ILE d   1      26.220  43.824   3.330  0.00  0.00    -0.070 C 
ATOM     24  H29 ILE d   1      25.947  42.849   3.760  0.00  0.00     0.028 H 
ATOM     25  H30 ILE d   1      26.586  44.487   4.128  0.00  0.00     0.028 H 
ATOM     26  H31 ILE d   1      27.011  43.684   2.578  0.00  0.00     0.028 H 
ENDBRANCH  21  23
BRANCH  21  27
ATOM     27  CG1 ILE d   1      25.338  45.813   2.058  0.00  0.00    -0.063 C 
ATOM     28  H27 ILE d   1      24.524  46.106   1.379  0.00  0.00     0.033 H 
ATOM     29  H28 ILE d   1      26.273  45.712   1.488  0.00  0.00     0.033 H 
BRANCH  27  30
ATOM     30  CD1 ILE d   1      25.522  46.915   3.092  0.00  0.00    -0.076 C 
ATOM     31  H32 ILE d   1      25.766  47.859   2.583  0.00  0.00     0.027 H 
ATOM     32  H33 ILE d   1      26.341  46.644   3.775  0.00  0.00     0.027 H 
ATOM     33  H34 ILE d   1      24.592  47.038   3.666  0.00  0.00     0.027 H 
ENDBRANCH  27  30
ENDBRANCH  21  27
ENDBRANCH  19  21
BRANCH  19  34
ATOM     34  C   ILE d   1      23.879  42.223   2.287  0.00  0.00     0.197 C 
ATOM     35  O   ILE d   1      23.116  42.307   3.253  0.00  0.00    -0.646 OA
ATOM     36  O1  ILE d   1      24.237  41.092   1.863  0.00  0.00    -0.646 OA
ENDBRANCH  19  34
ENDBRANCH  17  19
ENDBRANCH   4  15
BRANCH   1  37
ATOM     37  CA  VAL d   1      22.116  44.917  -4.407  0.00  0.00     0.092 C 
ATOM     38  H9  VAL d   1      21.064  44.772  -4.694  0.00  0.00     0.088 H 
BRANCH  37  39
ATOM     39  N   VAL d   1      22.574  46.214  -4.866  0.00  0.00    -0.346 N 
ATOM     40  C   ALA d   1      21.996  46.872  -5.863  0.00  0.00     0.248 C 
ATOM     41  O   ALA d   1      20.980  46.480  -6.440  0.00  0.00    -0.271 OA
ATOM     42  H8  VAL d   1      23.361  46.631  -4.411  0.00  0.00     0.163 HD
BRANCH  40  43
ATOM     43  CA  ALA d   1      22.662  48.182  -6.258  0.00  0.00     0.172 C 
ATOM     44  H4  ALA d   1      23.753  48.042  -6.229  0.00  0.00     0.098 H 
BRANCH  43  45
ATOM     45  N   ALA d   1      22.269  48.548  -7.642  0.00  0.00    -0.067 N 
ATOM     46  H1  ALA d   1      22.712  49.416  -7.899  0.00  0.00     0.275 HD
ATOM     47  H2  ALA d   1      21.268  48.655  -7.690  0.00  0.00     0.275 HD
ATOM     48  H3  ALA d   1      22.560  47.821  -8.277  0.00  0.00     0.275 HD
ENDBRANCH  43  45
BRANCH  43  49
ATOM     49  CB  ALA d   1      22.294  49.296  -5.277  0.00  0.00    -0.042 C 
ATOM     50  H5  ALA d   1      22.594  49.003  -4.260  0.00  0.00     0.030 H 
ATOM     51  H6  ALA d   1      21.207  49.465  -5.304  0.00  0.00     0.030 H 
ATOM     52  H7  ALA d   1      22.816  50.222  -5.561  0.00  0.00     0.030 H 
ENDBRANCH  43  49
ENDBRANCH  40  43
ENDBRANCH  37  39
BRANCH  37  53
ATOM     53  CB  VAL d   1      22.973  43.794  -5.105  0.00  0.00    -0.033 C 
ATOM     54  H10 VAL d   1      22.612  42.837  -4.700  0.00  0.00     0.042 H 
BRANCH  53  55
ATOM     55  CG2 VAL d   1      24.434  43.891  -4.718  0.00  0.00    -0.071 C 
ATOM     56  H14 VAL d   1      24.520  43.943  -3.623  0.00  0.00     0.028 H 
ATOM     57  H15 VAL d   1      24.872  44.796  -5.164  0.00  0.00     0.028 H 
ATOM     58  H16 VAL d   1      24.971  43.004  -5.086  0.00  0.00     0.028 H 
ENDBRANCH  53  55
BRANCH  53  59
ATOM     59  CG1 VAL d   1      22.752  43.716  -6.630  0.00  0.00    -0.071 C 
ATOM     60  H11 VAL d   1      23.378  42.915  -7.051  0.00  0.00     0.028 H 
ATOM     61  H12 VAL d   1      23.027  44.676  -7.090  0.00  0.00     0.028 H 
ATOM     62  H13 VAL d   1      21.693  43.501  -6.837  0.00  0.00     0.028 H 
ENDBRANCH  53  59
ENDBRANCH  37  53
ENDBRANCH   1  37
TORSDOF 15
