REMARK  18 active torsions:
REMARK  status: ('A' for Active; 'I' for Inactive)
REMARK    1  A    between atoms: N_1  and  CA_2 
REMARK    2  A    between atoms: CA_2  and  C_3 
REMARK    3  A    between atoms: CA_2  and  CB_5 
REMARK       I    between atoms: C_3  and  N_6 
REMARK    4  A    between atoms: N_6  and  CA_7 
REMARK    5  A    between atoms: CA_7  and  C_8 
REMARK    6  A    between atoms: CA_7  and  CB_10 
REMARK       I    between atoms: C_8  and  N_15 
REMARK    7  A    between atoms: CB_10  and  CG_11 
REMARK    8  A    between atoms: CG_11  and  CD_12 
REMARK    9  A    between atoms: N_15  and  CA_16 
REMARK   10  A    between atoms: CA_16  and  C_17 
REMARK   11  A    between atoms: CA_16  and  CB_19 
REMARK       I    between atoms: C_17  and  N_22 
REMARK   12  A    between atoms: CB_19  and  CG1_20 
REMARK   13  A    between atoms: CB_19  and  CG2_21 
REMARK   14  A    between atoms: N_22  and  CA_23 
REMARK   15  A    between atoms: CA_23  and  C_24 
REMARK   16  A    between atoms: CA_23  and  CB_26 
REMARK   17  A    between atoms: CB_26  and  CG1_27 
REMARK   18  A    between atoms: CB_26  and  CG2_28 
ROOT
ATOM      1  CA  VAL d   1      21.352  44.387  -0.935  0.00  0.00     0.092 C 
ATOM      2  H15 VAL d   1      21.302  45.404  -0.518  0.00  0.00     0.088 H 
ENDROOT
BRANCH   1   3
ATOM      3  N   VAL d   1      21.434  44.479  -2.384  0.00  0.00    -0.346 N 
ATOM      4  C   GLU d   1      22.374  45.181  -3.001  0.00  0.00     0.241 C 
ATOM      5  O   GLU d   1      23.235  45.828  -2.408  0.00  0.00    -0.271 OA
ATOM      6  H14 VAL d   1      20.756  43.994  -2.936  0.00  0.00     0.163 HD
BRANCH   4   7
ATOM      7  CA  GLU d   1      22.324  45.155  -4.512  0.00  0.00     0.090 C 
ATOM      8  H9  GLU d   1      21.272  45.072  -4.823  0.00  0.00     0.087 H 
BRANCH   7   9
ATOM      9  N   GLU d   1      22.860  46.401  -5.057  0.00  0.00    -0.346 N 
ATOM     10  C   ALA d   1      22.213  47.099  -5.983  0.00  0.00     0.248 C 
ATOM     11  O   ALA d   1      21.154  46.725  -6.489  0.00  0.00    -0.271 OA
ATOM     12  H8  GLU d   1      23.740  46.738  -4.723  0.00  0.00     0.163 HD
BRANCH  10  13
ATOM     13  CA  ALA d   1      22.864  48.400  -6.424  0.00  0.00     0.172 C 
ATOM     14  H4  ALA d   1      23.955  48.261  -6.421  0.00  0.00     0.098 H 
BRANCH  13  15
ATOM     15  N   ALA d   1      22.437  48.742  -7.802  0.00  0.00    -0.067 N 
ATOM     16  H1  ALA d   1      22.874  49.605  -8.085  0.00  0.00     0.275 HD
ATOM     17  H2  ALA d   1      21.435  48.849  -7.827  0.00  0.00     0.275 HD
ATOM     18  H3  ALA d   1      22.712  48.005  -8.432  0.00  0.00     0.275 HD
ENDBRANCH  13  15
BRANCH  13  19
ATOM     19  CB  ALA d   1      22.522  49.531  -5.461  0.00  0.00    -0.042 C 
ATOM     20  H5  ALA d   1      22.846  49.259  -4.446  0.00  0.00     0.030 H 
ATOM     21  H6  ALA d   1      21.435  49.701  -5.466  0.00  0.00     0.030 H 
ATOM     22  H7  ALA d   1      23.038  50.450  -5.777  0.00  0.00     0.030 H 
ENDBRANCH  13  19
ENDBRANCH  10  13
ENDBRANCH   7   9
BRANCH   7  23
ATOM     23  CB  GLU d   1      23.075  43.926  -5.044  0.00  0.00    -0.029 C 
ATOM     24  H10 GLU d   1      22.569  43.588  -5.961  0.00  0.00     0.037 H 
ATOM     25  H11 GLU d   1      23.018  43.136  -4.281  0.00  0.00     0.037 H 
BRANCH  23  26
ATOM     26  CG  GLU d   1      24.540  44.158  -5.373  0.00  0.00     0.018 C 
ATOM     27  H12 GLU d   1      24.854  45.109  -4.918  0.00  0.00     0.049 H 
ATOM     28  H13 GLU d   1      24.647  44.221  -6.466  0.00  0.00     0.049 H 
BRANCH  26  29
ATOM     29  CD  GLU d   1      25.452  43.052  -4.860  0.00  0.00     0.172 C 
ATOM     30  OE1 GLU d   1      25.507  42.832  -3.621  0.00  0.00    -0.648 OA
ATOM     31  OE2 GLU d   1      26.121  42.408  -5.705  0.00  0.00    -0.648 OA
ENDBRANCH  26  29
ENDBRANCH  23  26
ENDBRANCH   7  23
ENDBRANCH   4   7
ENDBRANCH   1   3
BRANCH   1  32
ATOM     32  C   VAL d   1      22.587  43.692  -0.385  0.00  0.00     0.241 C 
ATOM     33  O   VAL d   1      23.114  42.776  -1.008  0.00  0.00    -0.271 OA
ATOM     34  N   VAL d   1      23.069  44.151   0.764  0.00  0.00    -0.344 N 
ATOM     35  H23 VAL d   1      22.701  44.994   1.155  0.00  0.00     0.163 HD
BRANCH  34  36
ATOM     36  CA  VAL d   1      24.131  43.435   1.459  0.00  0.00     0.099 C 
ATOM     37  H24 VAL d   1      24.659  42.826   0.711  0.00  0.00     0.090 H 
BRANCH  36  38
ATOM     38  C   VAL d   1      23.499  42.476   2.467  0.00  0.00     0.197 C 
ATOM     39  O   VAL d   1      22.901  42.925   3.455  0.00  0.00    -0.646 OA
ATOM     40  O1  VAL d   1      23.586  41.231   2.294  0.00  0.00    -0.646 OA
ENDBRANCH  36  38
BRANCH  36  41
ATOM     41  CB  VAL d   1      25.205  44.376   2.106  0.00  0.00    -0.032 C 
ATOM     42  H25 VAL d   1      25.709  44.910   1.286  0.00  0.00     0.042 H 
BRANCH  41  43
ATOM     43  CG1 VAL d   1      24.580  45.435   3.018  0.00  0.00    -0.071 C 
ATOM     44  H26 VAL d   1      25.374  46.066   3.445  0.00  0.00     0.028 H 
ATOM     45  H27 VAL d   1      24.029  44.940   3.831  0.00  0.00     0.028 H 
ATOM     46  H28 VAL d   1      23.889  46.060   2.434  0.00  0.00     0.028 H 
ENDBRANCH  41  43
BRANCH  41  47
ATOM     47  CG2 VAL d   1      26.270  43.557   2.847  0.00  0.00    -0.071 C 
ATOM     48  H29 VAL d   1      26.697  42.808   2.164  0.00  0.00     0.028 H 
ATOM     49  H30 VAL d   1      25.809  43.049   3.707  0.00  0.00     0.028 H 
ATOM     50  H31 VAL d   1      27.067  44.227   3.201  0.00  0.00     0.028 H 
ENDBRANCH  41  47
ENDBRANCH  36  41
ENDBRANCH  34  36
ENDBRANCH   1  32
BRANCH   1  51
ATOM     51  CB  VAL d   1      20.092  43.623  -0.523  0.00  0.00    -0.033 C 
ATOM     52  H16 VAL d   1      19.933  42.802  -1.237  0.00  0.00     0.042 H 
BRANCH  51  53
ATOM     53  CG1 VAL d   1      20.240  43.028   0.861  0.00  0.00    -0.071 C 
ATOM     54  H17 VAL d   1      19.320  42.487   1.128  0.00  0.00     0.028 H 
ATOM     55  H18 VAL d   1      20.416  43.833   1.589  0.00  0.00     0.028 H 
ATOM     56  H19 VAL d   1      21.091  42.332   0.872  0.00  0.00     0.028 H 
ENDBRANCH  51  53
BRANCH  51  57
ATOM     57  CG2 VAL d   1      18.900  44.546  -0.577  0.00  0.00    -0.071 C 
ATOM     58  H20 VAL d   1      18.809  44.968  -1.589  0.00  0.00     0.028 H 
ATOM     59  H21 VAL d   1      19.034  45.361   0.150  0.00  0.00     0.028 H 
ATOM     60  H22 VAL d   1      17.988  43.982  -0.331  0.00  0.00     0.028 H 
ENDBRANCH  51  57
ENDBRANCH   1  51
TORSDOF 18
