REMARK  5 active torsions:
REMARK  status: ('A' for Active; 'I' for Inactive)
REMARK    1  A    between atoms: C5_1  and  C3_7 
REMARK    2  A    between atoms: C7_3  and  O3_13 
REMARK    3  A    between atoms: C8_4  and  O2_19 
REMARK    4  A    between atoms: O3_13  and  C11_14 
REMARK    5  A    between atoms: O2_19  and  C16_20 
ROOT
ATOM      1  C5  ROL d   1      21.254  -3.274  30.468  0.00  0.00    -0.049 A 
ATOM      2  C6  ROL d   1      21.740  -4.448  31.043  0.00  0.00    -0.042 A 
ATOM      3  C7  ROL d   1      22.094  -4.481  32.393  0.00  0.00     0.103 A 
ATOM      4  C8  ROL d   1      21.961  -3.342  33.172  0.00  0.00     0.101 A 
ATOM      5  C9  ROL d   1      21.479  -2.170  32.606  0.00  0.00    -0.048 A 
ATOM      6  C10 ROL d   1      21.130  -2.142  31.261  0.00  0.00    -0.074 A 
ATOM      7  H1  ROL d   1      21.844  -5.341  30.437  0.00  0.00     0.088 H 
ATOM      8  H2  ROL d   1      21.375  -1.278  33.212  0.00  0.00     0.087 H 
ATOM      9  H3  ROL d   1      20.756  -1.223  30.825  0.00  0.00     0.084 H 
ENDROOT
BRANCH   3  10
ATOM     10  O3  ROL d   1      22.596  -5.625  32.986  0.00  0.00    -0.343 OA
BRANCH  10  11
ATOM     11  C11 ROL d   1      22.119  -6.822  32.359  0.00  0.00     0.045 A 
ATOM     12  C15 ROL d   1      21.243  -7.586  33.350  0.00  0.00    -0.040 A 
ATOM     13  C14 ROL d   1      21.910  -8.893  33.744  0.00  0.00    -0.063 A 
ATOM     14  H11 ROL d   1      20.270  -7.801  32.884  0.00  0.00     0.036 H 
ATOM     15  H12 ROL d   1      21.091  -6.971  34.249  0.00  0.00     0.036 H 
ATOM     16  C13 ROL d   1      23.226  -8.974  32.978  0.00  0.00    -0.063 A 
ATOM     17  H13 ROL d   1      21.264  -9.742  33.475  0.00  0.00     0.033 H 
ATOM     18  H14 ROL d   1      22.102  -8.907  34.827  0.00  0.00     0.033 H 
ATOM     19  C12 ROL d   1      23.316  -7.734  32.106  0.00  0.00    -0.040 A 
ATOM     20  H15 ROL d   1      23.242  -9.877  32.351  0.00  0.00     0.033 H 
ATOM     21  H16 ROL d   1      24.071  -9.002  33.682  0.00  0.00     0.033 H 
ATOM     22  H17 ROL d   1      24.243  -7.191  32.342  0.00  0.00     0.036 H 
ATOM     23  H18 ROL d   1      23.326  -8.034  31.048  0.00  0.00     0.036 H 
ATOM     24  H10 ROL d   1      21.576  -6.592  31.430  0.00  0.00     0.084 H 
ENDBRANCH  10  11
ENDBRANCH   3  10
BRANCH   4  25
ATOM     25  O2  ROL d   1      22.294  -3.396  34.513  0.00  0.00    -0.353 OA
BRANCH  25  26
ATOM     26  C16 ROL d   1      23.147  -2.321  34.873  0.00  0.00     0.010 C 
ATOM     27  H19 ROL d   1      23.394  -2.391  35.943  0.00  0.00     0.066 H 
ATOM     28  H20 ROL d   1      22.637  -1.367  34.676  0.00  0.00     0.066 H 
ATOM     29  H21 ROL d   1      24.072  -2.372  34.279  0.00  0.00     0.066 H 
ENDBRANCH  25  26
ENDBRANCH   4  25
BRANCH   1  30
ATOM     30  C3  ROL d   1      20.863  -3.224  29.011  0.00  0.00    -0.005 A 
ATOM     31  C2  ROL d   1      19.440  -3.779  28.839  0.00  0.00     0.018 A 
ATOM     32  C1  ROL d   1      19.488  -5.047  28.061  0.00  0.00     0.218 A 
ATOM     33  H5  ROL d   1      18.823  -3.044  28.302  0.00  0.00     0.048 H 
ATOM     34  H6  ROL d   1      19.001  -3.973  29.829  0.00  0.00     0.048 H 
ATOM     35  O1  ROL d   1      18.541  -5.794  27.812  0.00  0.00    -0.274 OA
ATOM     36  N1  ROL d   1      20.751  -5.221  27.715  0.00  0.00    -0.360 N 
ATOM     37  C4  ROL d   1      21.715  -4.222  28.177  0.00  0.00     0.003 A 
ATOM     38  H7  ROL d   1      21.036  -6.003  27.160  0.00  0.00     0.162 HD
ATOM     39  H8  ROL d   1      22.491  -4.689  28.802  0.00  0.00     0.065 H 
ATOM     40  H9  ROL d   1      22.188  -3.713  27.324  0.00  0.00     0.065 H 
ATOM     41  H4  ROL d   1      20.951  -2.196  28.628  0.00  0.00     0.050 H 
ENDBRANCH   1  30
TORSDOF 5
