REMARK  16 active torsions:
REMARK  status: ('A' for Active; 'I' for Inactive)
REMARK    1  A    between atoms: C_2  and  O2_3 
REMARK       I    between atoms: C_2  and  N_8 
REMARK    2  A    between atoms: O2_3  and  CT_4 
REMARK    3  A    between atoms: CT_4  and  C1_5 
REMARK    4  A    between atoms: CT_4  and  C2_6 
REMARK    5  A    between atoms: CT_4  and  C3_7 
REMARK    6  A    between atoms: N_8  and  CA_9 
REMARK    7  A    between atoms: CA_9  and  C_10 
REMARK    8  A    between atoms: CA_9  and  CB_12 
REMARK       I    between atoms: C_10  and  N_13 
REMARK    9  A    between atoms: CA_14  and  C_15 
REMARK       I    between atoms: C_15  and  N_20 
REMARK   10  A    between atoms: N_20  and  CA_21 
REMARK   11  A    between atoms: CA_21  and  CB_22 
REMARK   12  A    between atoms: CA_21  and  B_25 
REMARK   13  A    between atoms: CB_22  and  CG1_23 
REMARK   14  A    between atoms: CB_22  and  CG2_24 
REMARK   15  A    between atoms: B_25  and  O1_26 
REMARK   16  A    between atoms: B_25  and  O2_27 
ROOT
ATOM      1  C   0EG d   1      13.569  36.043  17.468  0.00  0.00     0.243 C 
ATOM      2  O   0EG d   1      14.472  36.282  16.665  0.00  0.00    -0.271 OA
ATOM      3  N   0EG d   1      13.380  34.880  18.075  0.00  0.00    -0.337 N 
ATOM      4  CA  0EG d   1      14.129  33.669  17.730  0.00  0.00     0.091 C 
ATOM      5  CB  0EG d   1      13.685  32.639  18.757  0.00  0.00    -0.036 C 
ATOM      6  CG  0EG d   1      12.796  33.346  19.722  0.00  0.00    -0.048 C 
ATOM      7  CD  0EG d   1      12.303  34.626  19.052  0.00  0.00    -0.001 C 
ATOM      8  H15 0EG d   1      15.211  33.847  17.811  0.00  0.00     0.087 H 
ATOM      9  H16 0EG d   1      14.559  32.226  19.281  0.00  0.00     0.036 H 
ATOM     10  H17 0EG d   1      13.135  31.825  18.263  0.00  0.00     0.036 H 
ATOM     11  H18 0EG d   1      13.357  33.594  20.635  0.00  0.00     0.035 H 
ATOM     12  H19 0EG d   1      11.940  32.706  19.980  0.00  0.00     0.035 H 
ATOM     13  H20 0EG d   1      11.335  34.471  18.552  0.00  0.00     0.064 H 
ATOM     14  H21 0EG d   1      12.214  35.450  19.776  0.00  0.00     0.064 H 
ENDROOT
BRANCH   1  15
ATOM     15  CA  0EG d   1      12.772  37.226  17.918  0.00  0.00     0.088 C 
ATOM     16  H11 0EG d   1      12.454  37.258  18.970  0.00  0.00     0.087 H 
BRANCH  15  17
ATOM     17  N   0EG d   1      13.528  38.386  17.483  0.00  0.00    -0.324 N 
ATOM     18  C   0EG d   1      13.632  39.402  18.346  0.00  0.00     0.362 C 
ATOM     19  O1  0EG d   1      13.172  39.355  19.472  0.00  0.00    -0.238 OA
ATOM     20  H10 0EG d   1      13.952  38.424  16.578  0.00  0.00     0.165 HD
BRANCH  18  21
ATOM     21  O2  0EG d   1      14.525  40.499  17.875  0.00  0.00    -0.294 OA
BRANCH  21  22
ATOM     22  CT  0EG d   1      15.014  41.477  18.899  0.00  0.00     0.061 C 
BRANCH  22  23
ATOM     23  C1  0EG d   1      15.788  40.671  19.935  0.00  0.00    -0.048 C 
ATOM     24  H1  0EG d   1      16.171  41.347  20.714  0.00  0.00     0.031 H 
ATOM     25  H2  0EG d   1      16.631  40.160  19.447  0.00  0.00     0.031 H 
ATOM     26  H3  0EG d   1      15.121  39.925  20.392  0.00  0.00     0.031 H 
ENDBRANCH  22  23
BRANCH  22  27
ATOM     27  C2  0EG d   1      15.931  42.459  18.158  0.00  0.00    -0.048 C 
ATOM     28  H4  0EG d   1      16.320  43.204  18.868  0.00  0.00     0.031 H 
ATOM     29  H5  0EG d   1      15.360  42.969  17.368  0.00  0.00     0.031 H 
ATOM     30  H6  0EG d   1      16.770  41.908  17.707  0.00  0.00     0.031 H 
ENDBRANCH  22  27
BRANCH  22  31
ATOM     31  C3  0EG d   1      13.797  42.199  19.438  0.00  0.00    -0.048 C 
ATOM     32  H7  0EG d   1      14.111  42.931  20.197  0.00  0.00     0.031 H 
ATOM     33  H8  0EG d   1      13.110  41.470  19.893  0.00  0.00     0.031 H 
ATOM     34  H9  0EG d   1      13.286  42.721  18.615  0.00  0.00     0.031 H 
ENDBRANCH  22  31
ENDBRANCH  21  22
ENDBRANCH  18  21
ENDBRANCH  15  17
BRANCH  15  35
ATOM     35  CB  0EG d   1      11.734  36.967  16.910  0.00  0.00    -0.049 C 
ATOM     36  H12 0EG d   1      11.141  36.091  17.211  0.00  0.00     0.030 H 
ATOM     37  H13 0EG d   1      12.208  36.772  15.937  0.00  0.00     0.030 H 
ATOM     38  H14 0EG d   1      11.076  37.844  16.828  0.00  0.00     0.030 H 
ENDBRANCH  15  35
ENDBRANCH   1  15
BRANCH   4  39
ATOM     39  C   0EG d   1      13.798  33.229  16.308  0.00  0.00     0.240 C 
ATOM     40  O   0EG d   1      12.641  33.452  15.893  0.00  0.00    -0.271 OA
ATOM     41  N   0EG d   1      14.750  32.668  15.568  0.00  0.00    -0.358 N 
ATOM     42  H22 0EG d   1      15.664  32.572  15.962  0.00  0.00     0.162 HD
BRANCH  41  43
ATOM     43  CA  0EG d   1      14.524  32.181  14.195  0.00  0.00     0.049 C 
ATOM     44  H23 0EG d   1      13.463  32.352  13.962  0.00  0.00     0.065 H 
BRANCH  43  45
ATOM     45  CB  0EG d   1      15.340  32.984  13.136  0.00  0.00    -0.044 C 
ATOM     46  H24 0EG d   1      15.232  32.445  12.183  0.00  0.00     0.041 H 
BRANCH  45  47
ATOM     47  CG1 0EG d   1      14.844  34.426  12.898  0.00  0.00    -0.072 C 
ATOM     48  H25 0EG d   1      15.477  34.911  12.140  0.00  0.00     0.028 H 
ATOM     49  H26 0EG d   1      14.900  34.993  13.839  0.00  0.00     0.028 H 
ATOM     50  H27 0EG d   1      13.802  34.402  12.545  0.00  0.00     0.028 H 
ENDBRANCH  45  47
BRANCH  45  51
ATOM     51  CG2 0EG d   1      16.834  33.021  13.481  0.00  0.00    -0.072 C 
ATOM     52  H28 0EG d   1      17.196  31.997  13.652  0.00  0.00     0.028 H 
ATOM     53  H29 0EG d   1      16.985  33.620  14.391  0.00  0.00     0.028 H 
ATOM     54  H30 0EG d   1      17.392  33.472  12.647  0.00  0.00     0.028 H 
ENDBRANCH  45  51
ENDBRANCH  43  45
BRANCH  43  55
ATOM     55  B   0EG d   1      14.756  30.643  14.135  0.00  0.00     0.515 B 
BRANCH  55  56
ATOM     56  O1  0EG d   1      14.852  30.092  12.715  0.00  0.00    -0.436 OA
ATOM     57  H31 0EG d   1      15.209  29.212  12.741  0.00  0.00     0.184 HD
ENDBRANCH  55  56
BRANCH  55  58
ATOM     58  O2  0EG d   1      13.868  29.794  14.991  0.00  0.00    -0.436 OA
ATOM     59  H32 0EG d   1      13.828  30.161  15.866  0.00  0.00     0.184 HD
ENDBRANCH  55  58
ENDBRANCH  43  55
ENDBRANCH  41  43
ENDBRANCH   4  39
TORSDOF 16
