REMARK  12 active torsions:
REMARK  status: ('A' for Active; 'I' for Inactive)
REMARK    1  A    between atoms: N_1  and  CA_2 
REMARK    2  A    between atoms: CA_2  and  C_3 
REMARK    3  A    between atoms: CA_2  and  CB_5 
REMARK       I    between atoms: C_3  and  N_6 
REMARK    4  A    between atoms: N_6  and  CA_7 
REMARK    5  A    between atoms: CA_7  and  C_8 
REMARK    6  A    between atoms: CA_7  and  CB_10 
REMARK       I    between atoms: C_8  and  N_11 
REMARK    7  A    between atoms: CA_12  and  C_13 
REMARK       I    between atoms: C_13  and  N_18 
REMARK    8  A    between atoms: N_18  and  CA_19 
REMARK    9  A    between atoms: CA_19  and  CB_20 
REMARK   10  A    between atoms: CA_19  and  B_21 
REMARK   11  A    between atoms: B_21  and  O1_22 
REMARK   12  A    between atoms: B_21  and  O2_23 
ROOT
ATOM      1  C   ALA d   1      13.638  36.052  17.451  0.00  0.00     0.243 C 
ATOM      2  O   ALA d   1      14.582  36.362  16.727  0.00  0.00    -0.271 OA
ATOM      3  N   PRO d   1      13.407  34.882  18.023  0.00  0.00    -0.337 N 
ATOM      4  CA  PRO d   1      14.239  33.710  17.751  0.00  0.00     0.091 C 
ATOM      5  CB  PRO d   1      13.709  32.639  18.687  0.00  0.00    -0.036 C 
ATOM      6  CG  PRO d   1      12.857  33.365  19.704  0.00  0.00    -0.048 C 
ATOM      7  CD  PRO d   1      12.272  34.568  18.912  0.00  0.00    -0.001 C 
ATOM      8  H13 PRO d   1      15.305  33.909  17.937  0.00  0.00     0.087 H 
ATOM      9  H14 PRO d   1      14.541  32.120  19.185  0.00  0.00     0.036 H 
ATOM     10  H15 PRO d   1      13.102  31.910  18.130  0.00  0.00     0.036 H 
ATOM     11  H16 PRO d   1      13.468  33.713  20.549  0.00  0.00     0.035 H 
ATOM     12  H17 PRO d   1      12.053  32.714  20.077  0.00  0.00     0.035 H 
ATOM     13  H18 PRO d   1      11.376  34.282  18.341  0.00  0.00     0.064 H 
ATOM     14  H19 PRO d   1      12.030  35.412  19.575  0.00  0.00     0.064 H 
ENDROOT
BRANCH   1  15
ATOM     15  CA  ALA d   1      12.666  37.176  17.792  0.00  0.00     0.086 C 
ATOM     16  H9  ALA d   1      12.343  37.071  18.838  0.00  0.00     0.086 H 
BRANCH  15  17
ATOM     17  N   ALA d   1      13.447  38.438  17.625  0.00  0.00    -0.346 N 
ATOM     18  C   ALA d   1      13.263  39.368  18.538  0.00  0.00     0.248 C 
ATOM     19  O   ALA d   1      12.503  39.317  19.546  0.00  0.00    -0.271 OA
ATOM     20  H8  ALA d   1      14.077  38.569  16.860  0.00  0.00     0.163 HD
BRANCH  18  21
ATOM     21  CA  ALA d   1      14.099  40.617  18.314  0.00  0.00     0.172 C 
ATOM     22  H4  ALA d   1      14.370  40.702  17.251  0.00  0.00     0.098 H 
BRANCH  21  23
ATOM     23  N   ALA d   1      13.424  41.868  18.713  0.00  0.00    -0.067 N 
ATOM     24  H1  ALA d   1      14.035  42.650  18.537  0.00  0.00     0.275 HD
ATOM     25  H2  ALA d   1      13.201  41.831  19.695  0.00  0.00     0.275 HD
ATOM     26  H3  ALA d   1      12.576  41.977  18.179  0.00  0.00     0.275 HD
ENDBRANCH  21  23
BRANCH  21  27
ATOM     27  CB  ALA d   1      15.339  40.330  19.153  0.00  0.00    -0.042 C 
ATOM     28  H5  ALA d   1      15.801  39.391  18.815  0.00  0.00     0.030 H 
ATOM     29  H6  ALA d   1      15.053  40.238  20.211  0.00  0.00     0.030 H 
ATOM     30  H7  ALA d   1      16.058  41.154  19.038  0.00  0.00     0.030 H 
ENDBRANCH  21  27
ENDBRANCH  18  21
ENDBRANCH  15  17
BRANCH  15  31
ATOM     31  CB  ALA d   1      11.436  37.197  16.916  0.00  0.00    -0.049 C 
ATOM     32  H10 ALA d   1      10.873  36.261  17.051  0.00  0.00     0.030 H 
ATOM     33  H11 ALA d   1      11.738  37.294  15.863  0.00  0.00     0.030 H 
ATOM     34  H12 ALA d   1      10.801  38.050  17.196  0.00  0.00     0.030 H 
ENDBRANCH  15  31
ENDBRANCH   1  15
BRANCH   4  35
ATOM     35  C   PRO d   1      14.009  33.325  16.293  0.00  0.00     0.240 C 
ATOM     36  O   PRO d   1      12.890  33.588  15.800  0.00  0.00    -0.271 OA
ATOM     37  N   B2A d   1      15.007  32.762  15.633  0.00  0.00    -0.358 N 
ATOM     38  H20 B2A d   1      15.885  32.610  16.087  0.00  0.00     0.162 HD
BRANCH  37  39
ATOM     39  CA  B2A d   1      14.823  32.355  14.216  0.00  0.00     0.042 C 
ATOM     40  H21 B2A d   1      13.828  32.716  13.915  0.00  0.00     0.064 H 
BRANCH  39  41
ATOM     41  CB  B2A d   1      15.829  33.063  13.325  0.00  0.00    -0.060 C 
ATOM     42  H22 B2A d   1      15.796  34.145  13.522  0.00  0.00     0.029 H 
ATOM     43  H23 B2A d   1      15.581  32.874  12.270  0.00  0.00     0.029 H 
ATOM     44  H24 B2A d   1      16.839  32.683  13.538  0.00  0.00     0.029 H 
ENDBRANCH  39  41
BRANCH  39  45
ATOM     45  B   B2A d   1      14.801  30.847  14.010  0.00  0.00     0.514 B 
BRANCH  45  46
ATOM     46  O1  B2A d   1      14.893  30.257  12.646  0.00  0.00    -0.436 OA
ATOM     47  H25 B2A d   1      15.291  29.396  12.701  0.00  0.00     0.184 HD
ENDBRANCH  45  46
BRANCH  45  48
ATOM     48  O2  B2A d   1      14.002  30.075  14.972  0.00  0.00    -0.436 OA
ATOM     49  H26 B2A d   1      13.998  30.523  15.810  0.00  0.00     0.184 HD
ENDBRANCH  45  48
ENDBRANCH  39  45
ENDBRANCH  37  39
ENDBRANCH   4  35
TORSDOF 12
