REMARK  14 active torsions:
REMARK  status: ('A' for Active; 'I' for Inactive)
REMARK    1  A    between atoms: N_1  and  CA_2 
REMARK    2  A    between atoms: CA_2  and  C_3 
REMARK    3  A    between atoms: CA_2  and  CB_5 
REMARK       I    between atoms: C_3  and  N_6 
REMARK    4  A    between atoms: N_6  and  CA_7 
REMARK    5  A    between atoms: CA_7  and  C_8 
REMARK    6  A    between atoms: CA_7  and  CB_10 
REMARK       I    between atoms: C_8  and  N_11 
REMARK    7  A    between atoms: CA_12  and  C_13 
REMARK       I    between atoms: C_13  and  N_18 
REMARK    8  A    between atoms: N_18  and  CA_19 
REMARK    9  A    between atoms: CA_19  and  CB_20 
REMARK   10  A    between atoms: CA_19  and  B_23 
REMARK   11  A    between atoms: CB_20  and  CG1_21 
REMARK   12  A    between atoms: CB_20  and  CG2_22 
REMARK   13  A    between atoms: B_23  and  O1_24 
REMARK   14  A    between atoms: B_23  and  O2_25 
ROOT
ATOM      1  C   ALA d   1      13.673  36.032  17.458  0.00  0.00     0.243 C 
ATOM      2  O   ALA d   1      14.578  36.345  16.684  0.00  0.00    -0.271 OA
ATOM      3  N   PRO d   1      13.446  34.854  18.023  0.00  0.00    -0.337 N 
ATOM      4  CA  PRO d   1      14.244  33.667  17.693  0.00  0.00     0.091 C 
ATOM      5  CB  PRO d   1      13.684  32.592  18.620  0.00  0.00    -0.036 C 
ATOM      6  CG  PRO d   1      12.719  33.238  19.543  0.00  0.00    -0.048 C 
ATOM      7  CD  PRO d   1      12.307  34.550  18.916  0.00  0.00    -0.001 C 
ATOM      8  H13 PRO d   1      15.325  33.832  17.811  0.00  0.00     0.087 H 
ATOM      9  H14 PRO d   1      14.501  32.133  19.196  0.00  0.00     0.036 H 
ATOM     10  H15 PRO d   1      13.173  31.818  18.028  0.00  0.00     0.036 H 
ATOM     11  H16 PRO d   1      13.195  33.420  20.518  0.00  0.00     0.035 H 
ATOM     12  H17 PRO d   1      11.838  32.593  19.679  0.00  0.00     0.035 H 
ATOM     13  H18 PRO d   1      11.373  34.441  18.345  0.00  0.00     0.064 H 
ATOM     14  H19 PRO d   1      12.181  35.332  19.679  0.00  0.00     0.064 H 
ENDROOT
BRANCH   1  15
ATOM     15  CA  ALA d   1      12.704  37.145  17.837  0.00  0.00     0.086 C 
ATOM     16  H9  ALA d   1      12.371  37.006  18.876  0.00  0.00     0.086 H 
BRANCH  15  17
ATOM     17  N   ALA d   1      13.450  38.430  17.720  0.00  0.00    -0.346 N 
ATOM     18  C   ALA d   1      13.191  39.369  18.623  0.00  0.00     0.248 C 
ATOM     19  O   ALA d   1      12.373  39.265  19.568  0.00  0.00    -0.271 OA
ATOM     20  H8  ALA d   1      14.118  38.579  16.991  0.00  0.00     0.163 HD
BRANCH  18  21
ATOM     21  CA  ALA d   1      14.010  40.638  18.455  0.00  0.00     0.172 C 
ATOM     22  H4  ALA d   1      14.280  40.727  17.392  0.00  0.00     0.098 H 
BRANCH  21  23
ATOM     23  N   ALA d   1      13.250  41.864  18.790  0.00  0.00    -0.067 N 
ATOM     24  H1  ALA d   1      13.840  42.671  18.661  0.00  0.00     0.275 HD
ATOM     25  H2  ALA d   1      12.947  41.820  19.750  0.00  0.00     0.275 HD
ATOM     26  H3  ALA d   1      12.446  41.936  18.187  0.00  0.00     0.275 HD
ENDBRANCH  21  23
BRANCH  21  27
ATOM     27  CB  ALA d   1      15.295  40.430  19.231  0.00  0.00    -0.042 C 
ATOM     28  H5  ALA d   1      15.774  39.495  18.903  0.00  0.00     0.030 H 
ATOM     29  H6  ALA d   1      15.069  40.369  20.306  0.00  0.00     0.030 H 
ATOM     30  H7  ALA d   1      15.975  41.275  19.047  0.00  0.00     0.030 H 
ENDBRANCH  21  27
ENDBRANCH  18  21
ENDBRANCH  15  17
BRANCH  15  31
ATOM     31  CB  ALA d   1      11.492  37.134  16.933  0.00  0.00    -0.049 C 
ATOM     32  H10 ALA d   1      10.963  36.176  17.041  0.00  0.00     0.030 H 
ATOM     33  H11 ALA d   1      11.812  37.260  15.888  0.00  0.00     0.030 H 
ATOM     34  H12 ALA d   1      10.819  37.958  17.212  0.00  0.00     0.030 H 
ENDBRANCH  15  31
ENDBRANCH   1  15
BRANCH   4  35
ATOM     35  C   PRO d   1      13.872  33.206  16.286  0.00  0.00     0.240 C 
ATOM     36  O   PRO d   1      12.674  33.374  15.912  0.00  0.00    -0.271 OA
ATOM     37  N   B2V d   1      14.829  32.655  15.540  0.00  0.00    -0.358 N 
ATOM     38  H20 B2V d   1      15.747  32.551  15.923  0.00  0.00     0.162 HD
BRANCH  37  39
ATOM     39  CA  B2V d   1      14.566  32.194  14.159  0.00  0.00     0.049 C 
ATOM     40  H21 B2V d   1      13.511  32.429  13.954  0.00  0.00     0.065 H 
BRANCH  39  41
ATOM     41  CB  B2V d   1      15.394  33.016  13.118  0.00  0.00    -0.044 C 
ATOM     42  H22 B2V d   1      15.292  32.478  12.164  0.00  0.00     0.041 H 
BRANCH  41  43
ATOM     43  CG1 B2V d   1      14.858  34.426  12.874  0.00  0.00    -0.072 C 
ATOM     44  H23 B2V d   1      15.492  34.936  12.134  0.00  0.00     0.028 H 
ATOM     45  H24 B2V d   1      14.869  34.991  13.818  0.00  0.00     0.028 H 
ATOM     46  H25 B2V d   1      13.827  34.366  12.495  0.00  0.00     0.028 H 
ENDBRANCH  41  43
BRANCH  41  47
ATOM     47  CG2 B2V d   1      16.901  33.055  13.436  0.00  0.00    -0.072 C 
ATOM     48  H26 B2V d   1      17.266  32.032  13.608  0.00  0.00     0.028 H 
ATOM     49  H27 B2V d   1      17.070  33.661  14.338  0.00  0.00     0.028 H 
ATOM     50  H28 B2V d   1      17.443  33.500  12.589  0.00  0.00     0.028 H 
ENDBRANCH  41  47
ENDBRANCH  39  41
BRANCH  39  51
ATOM     51  B   B2V d   1      14.681  30.675  14.014  0.00  0.00     0.515 B 
BRANCH  51  52
ATOM     52  O1  B2V d   1      14.861  30.085  12.631  0.00  0.00    -0.436 OA
ATOM     53  H29 B2V d   1      15.342  29.268  12.697  0.00  0.00     0.184 HD
ENDBRANCH  51  52
BRANCH  51  54
ATOM     54  O2  B2V d   1      13.935  29.841  15.007  0.00  0.00    -0.436 OA
ATOM     55  H30 B2V d   1      13.883  30.306  15.834  0.00  0.00     0.184 HD
ENDBRANCH  51  54
ENDBRANCH  39  51
ENDBRANCH  37  39
ENDBRANCH   4  35
TORSDOF 14
