REMARK  15 active torsions:
REMARK  status: ('A' for Active; 'I' for Inactive)
REMARK    1  A    between atoms: N_1  and  CA_2 
REMARK    2  A    between atoms: CA_2  and  C_3 
REMARK    3  A    between atoms: CA_2  and  CB_5 
REMARK       I    between atoms: C_3  and  N_6 
REMARK    4  A    between atoms: N_6  and  CA_7 
REMARK    5  A    between atoms: CA_7  and  C_8 
REMARK    6  A    between atoms: CA_7  and  CB_10 
REMARK       I    between atoms: C_8  and  N_11 
REMARK    7  A    between atoms: CA_12  and  C_13 
REMARK       I    between atoms: C_13  and  N_18 
REMARK    8  A    between atoms: N_18  and  CA_19 
REMARK    9  A    between atoms: CA_19  and  CB_20 
REMARK   10  A    between atoms: CA_19  and  B_24 
REMARK   11  A    between atoms: CB_20  and  CG1_21 
REMARK   12  A    between atoms: CB_20  and  CG2_22 
REMARK   13  A    between atoms: CG1_21  and  CD1_23 
REMARK   14  A    between atoms: B_24  and  O1_25 
REMARK   15  A    between atoms: B_24  and  O2_26 
ROOT
ATOM      1  C   ALA d   1      13.712  36.036  17.600  0.00  0.00     0.243 C 
ATOM      2  O   ALA d   1      14.612  36.289  16.800  0.00  0.00    -0.271 OA
ATOM      3  N   PRO d   1      13.461  34.880  18.182  0.00  0.00    -0.337 N 
ATOM      4  CA  PRO d   1      14.277  33.686  17.880  0.00  0.00     0.091 C 
ATOM      5  CB  PRO d   1      13.957  32.767  19.063  0.00  0.00    -0.036 C 
ATOM      6  CG  PRO d   1      12.890  33.393  19.889  0.00  0.00    -0.048 C 
ATOM      7  CD  PRO d   1      12.336  34.556  19.092  0.00  0.00    -0.001 C 
ATOM      8  H13 PRO d   1      15.350  33.930  17.900  0.00  0.00     0.087 H 
ATOM      9  H14 PRO d   1      14.860  32.625  19.674  0.00  0.00     0.036 H 
ATOM     10  H15 PRO d   1      13.610  31.792  18.689  0.00  0.00     0.036 H 
ATOM     11  H16 PRO d   1      13.311  33.753  20.839  0.00  0.00     0.035 H 
ATOM     12  H17 PRO d   1      12.094  32.662  20.094  0.00  0.00     0.035 H 
ATOM     13  H18 PRO d   1      11.439  34.261  18.527  0.00  0.00     0.064 H 
ATOM     14  H19 PRO d   1      12.094  35.407  19.745  0.00  0.00     0.064 H 
ENDROOT
BRANCH   4  15
ATOM     15  C   PRO d   1      13.937  33.198  16.456  0.00  0.00     0.240 C 
ATOM     16  O   PRO d   1      12.760  33.241  16.071  0.00  0.00    -0.271 OA
ATOM     17  N   B2I d   1      14.927  32.740  15.704  0.00  0.00    -0.358 N 
ATOM     18  H20 B2I d   1      15.859  32.726  16.066  0.00  0.00     0.162 HD
BRANCH  17  19
ATOM     19  CA  B2I d   1      14.664  32.247  14.329  0.00  0.00     0.049 C 
ATOM     20  H21 B2I d   1      13.614  32.502  14.124  0.00  0.00     0.065 H 
BRANCH  19  21
ATOM     21  CB  B2I d   1      15.498  33.033  13.284  0.00  0.00    -0.041 C 
ATOM     22  H22 B2I d   1      15.283  32.585  12.303  0.00  0.00     0.041 H 
BRANCH  21  23
ATOM     23  CG1 B2I d   1      15.052  34.514  13.266  0.00  0.00    -0.064 C 
ATOM     24  H23 B2I d   1      15.814  35.116  12.749  0.00  0.00     0.033 H 
ATOM     25  H24 B2I d   1      14.940  34.872  14.300  0.00  0.00     0.033 H 
BRANCH  23  26
ATOM     26  CD1 B2I d   1      13.720  34.655  12.538  0.00  0.00    -0.076 C 
ATOM     27  H28 B2I d   1      13.415  35.712  12.533  0.00  0.00     0.027 H 
ATOM     28  H29 B2I d   1      12.955  34.055  13.053  0.00  0.00     0.027 H 
ATOM     29  H30 B2I d   1      13.829  34.300  11.503  0.00  0.00     0.027 H 
ENDBRANCH  23  26
ENDBRANCH  21  23
BRANCH  21  30
ATOM     30  CG2 B2I d   1      17.012  33.028  13.465  0.00  0.00    -0.072 C 
ATOM     31  H25 B2I d   1      17.376  31.990  13.484  0.00  0.00     0.028 H 
ATOM     32  H26 B2I d   1      17.270  33.524  14.412  0.00  0.00     0.028 H 
ATOM     33  H27 B2I d   1      17.483  33.566  12.629  0.00  0.00     0.028 H 
ENDBRANCH  21  30
ENDBRANCH  19  21
BRANCH  19  34
ATOM     34  B   B2I d   1      14.742  30.705  14.151  0.00  0.00     0.515 B 
BRANCH  34  35
ATOM     35  O1  B2I d   1      14.883  30.181  12.718  0.00  0.00    -0.436 OA
ATOM     36  H31 B2I d   1      15.505  30.721  12.244  0.00  0.00     0.184 HD
ENDBRANCH  34  35
BRANCH  34  37
ATOM     37  O2  B2I d   1      13.824  30.019  15.080  0.00  0.00    -0.436 OA
ATOM     38  H32 B2I d   1      13.844  30.456  15.924  0.00  0.00     0.184 HD
ENDBRANCH  34  37
ENDBRANCH  19  34
ENDBRANCH  17  19
ENDBRANCH   4  15
BRANCH   1  39
ATOM     39  CA  ALA d   1      12.711  37.131  17.970  0.00  0.00     0.086 C 
ATOM     40  H9  ALA d   1      12.398  36.979  19.014  0.00  0.00     0.086 H 
BRANCH  39  41
ATOM     41  N   ALA d   1      13.429  38.426  17.894  0.00  0.00    -0.346 N 
ATOM     42  C   ALA d   1      13.162  39.384  18.742  0.00  0.00     0.248 C 
ATOM     43  O   ALA d   1      12.341  39.314  19.659  0.00  0.00    -0.271 OA
ATOM     44  H8  ALA d   1      14.123  38.568  17.188  0.00  0.00     0.163 HD
BRANCH  42  45
ATOM     45  CA  ALA d   1      13.992  40.647  18.549  0.00  0.00     0.172 C 
ATOM     46  H4  ALA d   1      14.426  40.635  17.538  0.00  0.00     0.098 H 
BRANCH  45  47
ATOM     47  N   ALA d   1      13.238  41.902  18.677  0.00  0.00    -0.067 N 
ATOM     48  H1  ALA d   1      13.859  42.683  18.536  0.00  0.00     0.275 HD
ATOM     49  H2  ALA d   1      12.832  41.958  19.598  0.00  0.00     0.275 HD
ATOM     50  H3  ALA d   1      12.505  41.926  17.985  0.00  0.00     0.275 HD
ENDBRANCH  45  47
BRANCH  45  51
ATOM     51  CB  ALA d   1      15.110  40.510  19.572  0.00  0.00    -0.042 C 
ATOM     52  H5  ALA d   1      15.631  39.553  19.420  0.00  0.00     0.030 H 
ATOM     53  H6  ALA d   1      14.685  40.539  20.586  0.00  0.00     0.030 H 
ATOM     54  H7  ALA d   1      15.823  41.339  19.449  0.00  0.00     0.030 H 
ENDBRANCH  45  51
ENDBRANCH  42  45
ENDBRANCH  39  41
BRANCH  39  55
ATOM     55  CB  ALA d   1      11.456  37.052  17.113  0.00  0.00    -0.049 C 
ATOM     56  H10 ALA d   1      10.992  36.062  17.232  0.00  0.00     0.030 H 
ATOM     57  H11 ALA d   1      11.723  37.208  16.057  0.00  0.00     0.030 H 
ATOM     58  H12 ALA d   1      10.746  37.830  17.430  0.00  0.00     0.030 H 
ENDBRANCH  39  55
ENDBRANCH   1  39
TORSDOF 15
