REMARK  15 active torsions:
REMARK  status: ('A' for Active; 'I' for Inactive)
REMARK    1  A    between atoms: N_1  and  CA_2 
REMARK    2  A    between atoms: CA_2  and  C_3 
REMARK    3  A    between atoms: CA_2  and  CB_5 
REMARK       I    between atoms: C_3  and  N_6 
REMARK    4  A    between atoms: N_6  and  CA_7 
REMARK    5  A    between atoms: CA_7  and  C_8 
REMARK    6  A    between atoms: CA_7  and  CB_10 
REMARK       I    between atoms: C_8  and  N_11 
REMARK    7  A    between atoms: CA_12  and  C_13 
REMARK       I    between atoms: C_13  and  N_18 
REMARK    8  A    between atoms: N_18  and  CA_19 
REMARK    9  A    between atoms: CA_19  and  CB_20 
REMARK   10  A    between atoms: CA_19  and  B_24 
REMARK   11  A    between atoms: CB_20  and  CG_21 
REMARK   12  A    between atoms: CG_21  and  CD_22 
REMARK   13  A    between atoms: CD_22  and  CE_23 
REMARK   14  A    between atoms: B_24  and  O1_25 
REMARK   15  A    between atoms: B_24  and  O2_26 
ROOT
ATOM      1  C   ALA d   1      13.633  36.004  17.740  0.00  0.00     0.243 C 
ATOM      2  O   ALA d   1      14.491  36.314  16.911  0.00  0.00    -0.271 OA
ATOM      3  N   PRO d   1      13.407  34.854  18.347  0.00  0.00    -0.337 N 
ATOM      4  CA  PRO d   1      14.208  33.666  18.030  0.00  0.00     0.091 C 
ATOM      5  CB  PRO d   1      13.777  32.701  19.159  0.00  0.00    -0.036 C 
ATOM      6  CG  PRO d   1      12.543  33.199  19.855  0.00  0.00    -0.048 C 
ATOM      7  CD  PRO d   1      12.286  34.559  19.253  0.00  0.00    -0.001 C 
ATOM      8  H13 PRO d   1      15.289  33.866  18.082  0.00  0.00     0.087 H 
ATOM      9  H14 PRO d   1      14.594  32.618  19.891  0.00  0.00     0.036 H 
ATOM     10  H15 PRO d   1      13.570  31.711  18.726  0.00  0.00     0.036 H 
ATOM     11  H16 PRO d   1      12.715  33.281  20.938  0.00  0.00     0.035 H 
ATOM     12  H17 PRO d   1      11.694  32.525  19.668  0.00  0.00     0.035 H 
ATOM     13  H18 PRO d   1      11.340  34.550  18.691  0.00  0.00     0.064 H 
ATOM     14  H19 PRO d   1      12.233  35.319  20.047  0.00  0.00     0.064 H 
ENDROOT
BRANCH   4  15
ATOM     15  C   PRO d   1      13.836  33.216  16.594  0.00  0.00     0.240 C 
ATOM     16  O   PRO d   1      12.636  33.299  16.174  0.00  0.00    -0.271 OA
ATOM     17  N   BNO d   1      14.777  32.732  15.843  0.00  0.00    -0.358 N 
ATOM     18  H20 BNO d   1      15.700  32.661  16.221  0.00  0.00     0.162 HD
BRANCH  17  19
ATOM     19  CA  BNO d   1      14.546  32.280  14.454  0.00  0.00     0.046 C 
ATOM     20  H21 BNO d   1      13.500  32.495  14.188  0.00  0.00     0.064 H 
BRANCH  19  21
ATOM     21  CB  BNO d   1      15.514  33.126  13.536  0.00  0.00    -0.049 C 
ATOM     22  H22 BNO d   1      15.340  32.879  12.478  0.00  0.00     0.035 H 
ATOM     23  H23 BNO d   1      16.561  32.911  13.796  0.00  0.00     0.035 H 
BRANCH  21  24
ATOM     24  CG  BNO d   1      15.211  34.591  13.781  0.00  0.00    -0.064 C 
ATOM     25  H24 BNO d   1      16.146  35.170  13.745  0.00  0.00     0.033 H 
ATOM     26  H25 BNO d   1      14.745  34.709  14.770  0.00  0.00     0.033 H 
BRANCH  24  27
ATOM     27  CD  BNO d   1      14.256  35.099  12.705  0.00  0.00    -0.069 C 
ATOM     28  H26 BNO d   1      13.772  34.259  12.185  0.00  0.00     0.032 H 
ATOM     29  H27 BNO d   1      14.790  35.724  11.974  0.00  0.00     0.032 H 
BRANCH  27  30
ATOM     30  CE  BNO d   1      13.209  35.939  13.487  0.00  0.00    -0.077 C 
ATOM     31  H28 BNO d   1      12.470  36.351  12.784  0.00  0.00     0.027 H 
ATOM     32  H29 BNO d   1      13.716  36.763  14.010  0.00  0.00     0.027 H 
ATOM     33  H30 BNO d   1      12.699  35.298  14.221  0.00  0.00     0.027 H 
ENDBRANCH  27  30
ENDBRANCH  24  27
ENDBRANCH  21  24
ENDBRANCH  19  21
BRANCH  19  34
ATOM     34  B   BNO d   1      14.810  30.749  14.194  0.00  0.00     0.515 B 
BRANCH  34  35
ATOM     35  O1  BNO d   1      14.812  30.265  12.761  0.00  0.00    -0.436 OA
ATOM     36  H31 BNO d   1      15.394  30.810  12.245  0.00  0.00     0.184 HD
ENDBRANCH  34  35
BRANCH  34  37
ATOM     37  O2  BNO d   1      13.942  30.009  15.176  0.00  0.00    -0.436 OA
ATOM     38  H32 BNO d   1      14.028  30.406  16.035  0.00  0.00     0.184 HD
ENDBRANCH  34  37
ENDBRANCH  19  34
ENDBRANCH  17  19
ENDBRANCH   4  15
BRANCH   1  39
ATOM     39  CA  ALA d   1      12.617  37.089  18.038  0.00  0.00     0.086 C 
ATOM     40  H9  ALA d   1      12.221  36.970  19.057  0.00  0.00     0.086 H 
BRANCH  39  41
ATOM     41  N   ALA d   1      13.314  38.396  17.915  0.00  0.00    -0.346 N 
ATOM     42  C   ALA d   1      13.020  39.263  18.887  0.00  0.00     0.248 C 
ATOM     43  O   ALA d   1      12.236  39.111  19.863  0.00  0.00    -0.271 OA
ATOM     44  H8  ALA d   1      13.947  38.607  17.170  0.00  0.00     0.163 HD
BRANCH  42  45
ATOM     45  CA  ALA d   1      13.815  40.580  18.751  0.00  0.00     0.172 C 
ATOM     46  H4  ALA d   1      14.189  40.640  17.718  0.00  0.00     0.098 H 
BRANCH  45  47
ATOM     47  N   ALA d   1      12.944  41.783  18.894  0.00  0.00    -0.067 N 
ATOM     48  H1  ALA d   1      13.503  42.616  18.799  0.00  0.00     0.275 HD
ATOM     49  H2  ALA d   1      12.506  41.775  19.802  0.00  0.00     0.275 HD
ATOM     50  H3  ALA d   1      12.234  41.771  18.178  0.00  0.00     0.275 HD
ENDBRANCH  45  47
BRANCH  45  51
ATOM     51  CB  ALA d   1      15.045  40.361  19.621  0.00  0.00    -0.042 C 
ATOM     52  H5  ALA d   1      15.529  39.414  19.340  0.00  0.00     0.030 H 
ATOM     53  H6  ALA d   1      14.744  40.319  20.678  0.00  0.00     0.030 H 
ATOM     54  H7  ALA d   1      15.751  41.191  19.474  0.00  0.00     0.030 H 
ENDBRANCH  45  51
ENDBRANCH  42  45
ENDBRANCH  39  41
BRANCH  39  55
ATOM     55  CB  ALA d   1      11.493  36.995  17.047  0.00  0.00    -0.049 C 
ATOM     56  H10 ALA d   1      10.991  36.022  17.154  0.00  0.00     0.030 H 
ATOM     57  H11 ALA d   1      11.894  37.090  16.027  0.00  0.00     0.030 H 
ATOM     58  H12 ALA d   1      10.771  37.803  17.234  0.00  0.00     0.030 H 
ENDBRANCH  39  55
ENDBRANCH   1  39
TORSDOF 15
