REMARK  12 active torsions:
REMARK  status: ('A' for Active; 'I' for Inactive)
REMARK    1  A    between atoms: N_1  and  CA_2 
REMARK    2  A    between atoms: CA_2  and  C_3 
REMARK    3  A    between atoms: CA_2  and  CB_5 
REMARK       I    between atoms: C_3  and  N_6 
REMARK    4  A    between atoms: N_6  and  CA_7 
REMARK    5  A    between atoms: CA_7  and  C_8 
REMARK    6  A    between atoms: CA_7  and  CB_10 
REMARK       I    between atoms: C_8  and  N_11 
REMARK    7  A    between atoms: CA_12  and  C_13 
REMARK       I    between atoms: C_13  and  N_18 
REMARK    8  A    between atoms: N_18  and  CA_19 
REMARK    9  A    between atoms: CA_19  and  CB_20 
REMARK   10  A    between atoms: CA_19  and  B_27 
REMARK   11  A    between atoms: CB_20  and  CG_21 
REMARK   12  A    between atoms: B_27  and  O1_28 
ROOT
ATOM      1  C   ALA d   1      13.945  36.343  17.801  0.00  0.00     0.243 C 
ATOM      2  O   ALA d   1      14.841  36.531  16.966  0.00  0.00    -0.271 OA
ATOM      3  N   PRO d   1      13.709  35.275  18.534  0.00  0.00    -0.337 N 
ATOM      4  CA  PRO d   1      14.542  34.100  18.417  0.00  0.00     0.091 C 
ATOM      5  CB  PRO d   1      14.389  33.555  19.854  0.00  0.00    -0.036 C 
ATOM      6  CG  PRO d   1      12.936  33.745  20.235  0.00  0.00    -0.048 C 
ATOM      7  CD  PRO d   1      12.643  35.105  19.544  0.00  0.00    -0.001 C 
ATOM      8  H13 PRO d   1      15.589  34.355  18.196  0.00  0.00     0.087 H 
ATOM      9  H14 PRO d   1      15.039  34.114  20.543  0.00  0.00     0.036 H 
ATOM     10  H15 PRO d   1      14.653  32.488  19.886  0.00  0.00     0.036 H 
ATOM     11  H16 PRO d   1      12.806  33.806  21.326  0.00  0.00     0.035 H 
ATOM     12  H17 PRO d   1      12.302  32.940  19.835  0.00  0.00     0.035 H 
ATOM     13  H18 PRO d   1      11.655  35.085  19.060  0.00  0.00     0.064 H 
ATOM     14  H19 PRO d   1      12.675  35.924  20.278  0.00  0.00     0.064 H 
ENDROOT
BRANCH   4  15
ATOM     15  C   PRO d   1      14.028  33.186  17.351  0.00  0.00     0.240 C 
ATOM     16  O   PRO d   1      12.812  32.918  17.541  0.00  0.00    -0.271 OA
ATOM     17  N   B2F d   1      14.831  32.726  16.364  0.00  0.00    -0.361 N 
ATOM     18  H20 B2F d   1      15.793  32.990  16.290  0.00  0.00     0.162 HD
BRANCH  17  19
ATOM     19  CA  B2F d   1      14.173  31.786  15.382  0.00  0.00     0.016 C 
ATOM     20  H21 B2F d   1      13.161  31.612  15.777  0.00  0.00     0.060 H 
BRANCH  19  21
ATOM     21  CB  B2F d   1      13.951  32.264  13.960  0.00  0.00    -0.028 C 
ATOM     22  H22 B2F d   1      13.390  31.503  13.398  0.00  0.00     0.042 H 
ATOM     23  H23 B2F d   1      14.922  32.438  13.473  0.00  0.00     0.042 H 
BRANCH  21  24
ATOM     24  CG  B2F d   1      13.151  33.571  13.997  0.00  0.00    -0.057 A 
ATOM     25  CD1 B2F d   1      13.856  34.785  14.070  0.00  0.00    -0.077 A 
ATOM     26  CE1 B2F d   1      13.136  35.982  14.145  0.00  0.00    -0.082 A 
ATOM     27  H24 B2F d   1      14.940  34.793  14.068  0.00  0.00     0.084 H 
ATOM     28  CZ  B2F d   1      11.756  35.959  14.088  0.00  0.00    -0.083 A 
ATOM     29  H26 B2F d   1      13.660  36.925  14.248  0.00  0.00     0.083 H 
ATOM     30  CE2 B2F d   1      11.062  34.760  14.009  0.00  0.00    -0.082 A 
ATOM     31  H28 B2F d   1      11.206  36.893  14.105  0.00  0.00     0.083 H 
ATOM     32  CD2 B2F d   1      11.755  33.561  13.985  0.00  0.00    -0.077 A 
ATOM     33  H27 B2F d   1       9.979  34.762  13.966  0.00  0.00     0.083 H 
ATOM     34  H25 B2F d   1      11.217  32.620  13.957  0.00  0.00     0.084 H 
ENDBRANCH  21  24
ENDBRANCH  19  21
BRANCH  19  35
ATOM     35  B   B2F d   1      14.902  30.442  15.440  0.00  0.00     0.330 B 
ATOM     36  H29 B2F d   1      15.903  30.452  15.555  0.00  0.00     0.009 HD
BRANCH  35  37
ATOM     37  O1  B2F d   1      14.254  29.178  15.342  0.00  0.00    -0.464 OA
ATOM     38  H30 B2F d   1      13.803  29.119  14.508  0.00  0.00     0.182 HD
ENDBRANCH  35  37
ENDBRANCH  19  35
ENDBRANCH  17  19
ENDBRANCH   4  15
BRANCH   1  39
ATOM     39  CA  ALA d   1      13.044  37.555  18.076  0.00  0.00     0.086 C 
ATOM     40  H9  ALA d   1      12.807  37.571  19.150  0.00  0.00     0.086 H 
BRANCH  39  41
ATOM     41  N   ALA d   1      13.917  38.738  17.814  0.00  0.00    -0.346 N 
ATOM     42  C   ALA d   1      13.850  39.789  18.635  0.00  0.00     0.248 C 
ATOM     43  O   ALA d   1      13.090  39.875  19.627  0.00  0.00    -0.271 OA
ATOM     44  H8  ALA d   1      14.543  38.743  17.034  0.00  0.00     0.163 HD
BRANCH  42  45
ATOM     45  CA  ALA d   1      14.769  40.972  18.297  0.00  0.00     0.172 C 
ATOM     46  H4  ALA d   1      14.967  40.887  17.218  0.00  0.00     0.098 H 
BRANCH  45  47
ATOM     47  N   ALA d   1      14.319  42.382  18.482  0.00  0.00    -0.067 N 
ATOM     48  H1  ALA d   1      15.058  43.010  18.207  0.00  0.00     0.275 HD
ATOM     49  H2  ALA d   1      14.090  42.537  19.451  0.00  0.00     0.275 HD
ATOM     50  H3  ALA d   1      13.505  42.552  17.913  0.00  0.00     0.275 HD
ENDBRANCH  45  47
BRANCH  45  51
ATOM     51  CB  ALA d   1      16.102  40.708  19.033  0.00  0.00    -0.042 C 
ATOM     52  H5  ALA d   1      16.406  39.662  18.877  0.00  0.00     0.030 H 
ATOM     53  H6  ALA d   1      15.970  40.895  20.109  0.00  0.00     0.030 H 
ATOM     54  H7  ALA d   1      16.879  41.378  18.637  0.00  0.00     0.030 H 
ENDBRANCH  45  51
ENDBRANCH  42  45
ENDBRANCH  39  41
BRANCH  39  55
ATOM     55  CB  ALA d   1      11.725  37.435  17.385  0.00  0.00    -0.049 C 
ATOM     56  H10 ALA d   1      11.229  36.506  17.701  0.00  0.00     0.030 H 
ATOM     57  H11 ALA d   1      11.882  37.415  16.296  0.00  0.00     0.030 H 
ATOM     58  H12 ALA d   1      11.093  38.296  17.648  0.00  0.00     0.030 H 
ENDBRANCH  39  55
ENDBRANCH   1  39
TORSDOF 12
