REMARK  8 active torsions:
REMARK  status: ('A' for Active; 'I' for Inactive)
REMARK    1  A    between atoms: N_1  and  CA_2 
REMARK    2  A    between atoms: CA_2  and  CB_3 
REMARK    3  A    between atoms: CA_2  and  C_9 
REMARK    4  A    between atoms: CB_3  and  CG_4 
REMARK    5  A    between atoms: CG_4  and  CD_5 
REMARK    6  A    between atoms: CD_5  and  CE_6 
REMARK    7  A    between atoms: CE_6  and  NZ_7 
REMARK    8  A    between atoms: NZ_7  and  CM_8 
ROOT
ATOM      1  CG  NON d   1      68.283 130.768  61.285  0.00  0.00    -0.061 C 
ATOM      2  H7  NON d   1      67.471 131.468  61.530  0.00  0.00     0.033 H 
ATOM      3  H8  NON d   1      67.940 129.736  61.450  0.00  0.00     0.033 H 
ENDROOT
BRANCH   1   4
ATOM      4  CB  NON d   1      69.475 131.050  62.165  0.00  0.00    -0.029 C 
ATOM      5  H5  NON d   1      70.261 130.326  61.903  0.00  0.00     0.036 H 
ATOM      6  H6  NON d   1      69.824 132.068  61.937  0.00  0.00     0.036 H 
BRANCH   4   7
ATOM      7  CA  NON d   1      69.253 130.965  63.660  0.00  0.00     0.182 C 
ATOM      8  H4  NON d   1      70.241 131.095  64.125  0.00  0.00     0.101 H 
BRANCH   7   9
ATOM      9  N   NON d   1      68.805 129.665  64.106  0.00  0.00    -0.065 N 
ATOM     10  H1  NON d   1      69.425 128.955  63.749  0.00  0.00     0.275 HD
ATOM     11  H2  NON d   1      67.871 129.497  63.767  0.00  0.00     0.275 HD
ATOM     12  H3  NON d   1      68.807 129.636  65.114  0.00  0.00     0.275 HD
ENDBRANCH   7   9
BRANCH   7  13
ATOM     13  C   NON d   1      68.416 132.179  64.116  0.00  0.00     0.204 C 
ATOM     14  O   NON d   1      67.420 131.969  64.877  0.00  0.00    -0.646 OA
ATOM     15  OXT NON d   1      68.796 133.251  63.720  0.00  0.00    -0.646 OA
ENDBRANCH   7  13
ENDBRANCH   4   7
ENDBRANCH   1   4
BRANCH   1  16
ATOM     16  CD  NON d   1      68.688 130.946  59.811  0.00  0.00    -0.043 C 
ATOM     17  H9  NON d   1      68.897 129.959  59.373  0.00  0.00     0.035 H 
ATOM     18  H10 NON d   1      69.593 131.569  59.759  0.00  0.00     0.035 H 
BRANCH  16  19
ATOM     19  CE  NON d   1      67.575 131.617  59.019  0.00  0.00     0.081 C 
ATOM     20  H11 NON d   1      67.999 132.489  58.499  0.00  0.00     0.075 H 
ATOM     21  H12 NON d   1      66.802 131.952  59.726  0.00  0.00     0.075 H 
BRANCH  19  22
ATOM     22  NZ  NON d   1      66.933 130.739  58.008  0.00  0.00    -0.079 N 
ATOM     23  H13 NON d   1      65.933 130.764  58.129  0.00  0.00     0.276 HD
ATOM     24  H14 NON d   1      67.262 129.794  58.128  0.00  0.00     0.276 HD
BRANCH  22  25
ATOM     25  CM  NON d   1      67.275 131.209  56.650  0.00  0.00     0.065 C 
ATOM     26  H15 NON d   1      66.797 130.556  55.905  0.00  0.00     0.067 H 
ATOM     27  H16 NON d   1      68.367 131.181  56.516  0.00  0.00     0.067 H 
ATOM     28  H17 NON d   1      66.916 132.240  56.517  0.00  0.00     0.067 H 
ENDBRANCH  22  25
ENDBRANCH  19  22
ENDBRANCH  16  19
ENDBRANCH   1  16
TORSDOF 8
