REMARK  14 active torsions:
REMARK  status: ('A' for Active; 'I' for Inactive)
REMARK    1  A    between atoms: N_1  and  CA_2 
REMARK    2  A    between atoms: CA_2  and  C_3 
REMARK    3  A    between atoms: CA_2  and  CB_5 
REMARK       I    between atoms: C_3  and  N_6 
REMARK    4  A    between atoms: N_6  and  CA_7 
REMARK    5  A    between atoms: CA_7  and  C_8 
REMARK    6  A    between atoms: CA_7  and  CB_10 
REMARK       I    between atoms: C_8  and  N_11 
REMARK    7  A    between atoms: CA_12  and  C_13 
REMARK       I    between atoms: C_13  and  N_18 
REMARK    8  A    between atoms: N_18  and  CA_19 
REMARK    9  A    between atoms: CA_19  and  CB_20 
REMARK   10  A    between atoms: CA_19  and  B_23 
REMARK   11  A    between atoms: CB_20  and  CG1_21 
REMARK   12  A    between atoms: CB_20  and  CG2_22 
REMARK   13  A    between atoms: B_23  and  O1_24 
REMARK   14  A    between atoms: B_23  and  O2_25 
ROOT
ATOM      1  C   ALA d   1      13.661  36.121  17.394  0.00  0.00     0.243 C 
ATOM      2  O   ALA d   1      14.504  36.376  16.529  0.00  0.00    -0.271 OA
ATOM      3  N   PRO d   1      13.394  34.975  17.967  0.00  0.00    -0.337 N 
ATOM      4  CA  PRO d   1      14.158  33.757  17.620  0.00  0.00     0.091 C 
ATOM      5  CB  PRO d   1      13.702  32.766  18.691  0.00  0.00    -0.036 C 
ATOM      6  CG  PRO d   1      12.923  33.509  19.709  0.00  0.00    -0.048 C 
ATOM      7  CD  PRO d   1      12.298  34.672  18.933  0.00  0.00    -0.001 C 
ATOM      8  H13 PRO d   1      15.239  33.937  17.713  0.00  0.00     0.087 H 
ATOM      9  H14 PRO d   1      14.579  32.298  19.162  0.00  0.00     0.036 H 
ATOM     10  H15 PRO d   1      13.072  31.988  18.235  0.00  0.00     0.036 H 
ATOM     11  H16 PRO d   1      13.581  33.882  20.507  0.00  0.00     0.035 H 
ATOM     12  H17 PRO d   1      12.143  32.869  20.146  0.00  0.00     0.035 H 
ATOM     13  H18 PRO d   1      11.375  34.367  18.418  0.00  0.00     0.064 H 
ATOM     14  H19 PRO d   1      12.086  35.530  19.588  0.00  0.00     0.064 H 
ENDROOT
BRANCH   1  15
ATOM     15  CA  ALA d   1      12.733  37.272  17.820  0.00  0.00     0.086 C 
ATOM     16  H9  ALA d   1      12.382  37.167  18.857  0.00  0.00     0.086 H 
BRANCH  15  17
ATOM     17  N   ALA d   1      13.520  38.514  17.646  0.00  0.00    -0.346 N 
ATOM     18  C   ALA d   1      13.470  39.506  18.533  0.00  0.00     0.248 C 
ATOM     19  O   ALA d   1      12.793  39.519  19.599  0.00  0.00    -0.271 OA
ATOM     20  H8  ALA d   1      14.105  38.611  16.841  0.00  0.00     0.163 HD
BRANCH  18  21
ATOM     21  CA  ALA d   1      14.407  40.654  18.190  0.00  0.00     0.172 C 
ATOM     22  H4  ALA d   1      14.679  40.592  17.126  0.00  0.00     0.098 H 
BRANCH  21  23
ATOM     23  N   ALA d   1      14.072  42.048  18.507  0.00  0.00    -0.067 N 
ATOM     24  H1  ALA d   1      14.819  42.651  18.200  0.00  0.00     0.275 HD
ATOM     25  H2  ALA d   1      13.949  42.146  19.503  0.00  0.00     0.275 HD
ATOM     26  H3  ALA d   1      13.218  42.304  18.036  0.00  0.00     0.275 HD
ENDBRANCH  21  23
BRANCH  21  27
ATOM     27  CB  ALA d   1      15.589  40.342  19.137  0.00  0.00    -0.042 C 
ATOM     28  H5  ALA d   1      15.922  39.306  18.979  0.00  0.00     0.030 H 
ATOM     29  H6  ALA d   1      15.266  40.468  20.181  0.00  0.00     0.030 H 
ATOM     30  H7  ALA d   1      16.420  41.031  18.925  0.00  0.00     0.030 H 
ENDBRANCH  21  27
ENDBRANCH  18  21
ENDBRANCH  15  17
BRANCH  15  31
ATOM     31  CB  ALA d   1      11.570  37.213  16.828  0.00  0.00    -0.049 C 
ATOM     32  H10 ALA d   1      11.005  36.282  16.981  0.00  0.00     0.030 H 
ATOM     33  H11 ALA d   1      11.963  37.239  15.801  0.00  0.00     0.030 H 
ATOM     34  H12 ALA d   1      10.906  38.075  16.989  0.00  0.00     0.030 H 
ENDBRANCH  15  31
ENDBRANCH   1  15
BRANCH   4  35
ATOM     35  C   PRO d   1      13.866  33.322  16.177  0.00  0.00     0.240 C 
ATOM     36  O   PRO d   1      12.690  33.487  15.714  0.00  0.00    -0.271 OA
ATOM     37  N   B2V d   1      14.876  32.791  15.500  0.00  0.00    -0.358 N 
ATOM     38  H20 B2V d   1      15.777  32.703  15.925  0.00  0.00     0.162 HD
BRANCH  37  39
ATOM     39  CA  B2V d   1      14.656  32.327  14.104  0.00  0.00     0.049 C 
ATOM     40  H21 B2V d   1      13.612  32.589  13.879  0.00  0.00     0.065 H 
BRANCH  39  41
ATOM     41  CB  B2V d   1      15.486  33.104  13.020  0.00  0.00    -0.044 C 
ATOM     42  H22 B2V d   1      15.395  32.534  12.084  0.00  0.00     0.041 H 
BRANCH  41  43
ATOM     43  CG1 B2V d   1      14.975  34.519  12.762  0.00  0.00    -0.072 C 
ATOM     44  H23 B2V d   1      15.600  35.001  11.996  0.00  0.00     0.028 H 
ATOM     45  H24 B2V d   1      15.023  35.102  13.694  0.00  0.00     0.028 H 
ATOM     46  H25 B2V d   1      13.934  34.474  12.410  0.00  0.00     0.028 H 
ENDBRANCH  41  43
BRANCH  41  47
ATOM     47  CG2 B2V d   1      16.973  33.223  13.356  0.00  0.00    -0.072 C 
ATOM     48  H26 B2V d   1      17.386  32.222  13.551  0.00  0.00     0.028 H 
ATOM     49  H27 B2V d   1      17.098  33.851  14.250  0.00  0.00     0.028 H 
ATOM     50  H28 B2V d   1      17.505  33.681  12.509  0.00  0.00     0.028 H 
ENDBRANCH  41  47
ENDBRANCH  39  41
BRANCH  39  51
ATOM     51  B   B2V d   1      14.702  30.759  14.012  0.00  0.00     0.515 B 
BRANCH  51  52
ATOM     52  O1  B2V d   1      14.916  30.180  12.655  0.00  0.00    -0.436 OA
ATOM     53  H29 B2V d   1      15.275  29.304  12.739  0.00  0.00     0.184 HD
ENDBRANCH  51  52
BRANCH  51  54
ATOM     54  O2  B2V d   1      13.807  30.139  15.014  0.00  0.00    -0.436 OA
ATOM     55  H30 B2V d   1      13.811  30.662  15.807  0.00  0.00     0.184 HD
ENDBRANCH  51  54
ENDBRANCH  39  51
ENDBRANCH  37  39
ENDBRANCH   4  35
TORSDOF 14
