REMARK  5 active torsions:
REMARK  status: ('A' for Active; 'I' for Inactive)
REMARK    1  A    between atoms: N22_1  and  C21_2 
REMARK    2  A    between atoms: C21_2  and  C20_3 
REMARK    3  A    between atoms: C20_3  and  N19_4 
REMARK    4  A    between atoms: N19_4  and  C7_5 
REMARK    5  A    between atoms: C9_7  and  C14_8 
ROOT
ATOM      1  C7  5BN d   1      14.058  -7.719  10.573  0.00  0.00     0.043 A 
ATOM      2  C8  5BN d   1      12.817  -8.351  10.207  0.00  0.00    -0.043 A 
ATOM      3  C9  5BN d   1      12.031  -9.281  11.066  0.00  0.00     0.009 A 
ATOM      4  C10 5BN d   1      12.638  -9.524  12.374  0.00  0.00     0.058 A 
ATOM      5  C11 5BN d   1      12.227 -10.376  13.555  0.00  0.00     0.258 A 
ATOM      6  O13 5BN d   1      11.249 -11.087  13.680  0.00  0.00    -0.267 OA
ATOM      7  N12 5BN d   1      13.220 -10.196  14.547  0.00  0.00    -0.322 N 
ATOM      8  C6  5BN d   1      14.186  -9.306  14.045  0.00  0.00     0.047 A 
ATOM      9  C1  5BN d   1      15.355  -8.791  14.606  0.00  0.00    -0.053 A 
ATOM     10  C2  5BN d   1      16.159  -7.885  13.837  0.00  0.00    -0.043 A 
ATOM     11  C3  5BN d   1      15.826  -7.480  12.523  0.00  0.00     0.129 A 
ATOM     12  F   5BN d   1      16.654  -6.625  11.892  0.00  0.00    -0.205 F 
ATOM     13  C4  5BN d   1      14.607  -7.995  11.902  0.00  0.00     0.042 A 
ATOM     14  C5  5BN d   1      13.831  -8.902  12.713  0.00  0.00     0.023 A 
ATOM     15  H9  5BN d   1      12.421  -8.131   9.222  0.00  0.00     0.088 H 
ATOM     16  H14 5BN d   1      13.233 -10.627  15.449  0.00  0.00     0.169 HD
ATOM     17  H15 5BN d   1      15.652  -9.072  15.610  0.00  0.00     0.087 H 
ATOM     18  H16 5BN d   1      17.065  -7.492  14.284  0.00  0.00     0.088 H 
ENDROOT
BRANCH   1  19
ATOM     19  N19 5BN d   1      14.654  -6.841   9.579  0.00  0.00    -0.388 N 
ATOM     20  H8  5BN d   1      15.456  -6.276   9.893  0.00  0.00     0.159 HD
BRANCH  19  21
ATOM     21  C20 5BN d   1      14.235  -6.663   8.146  0.00  0.00     0.015 C 
ATOM     22  H6  5BN d   1      14.752  -7.428   7.549  0.00  0.00     0.066 H 
ATOM     23  H7  5BN d   1      13.149  -6.828   8.092  0.00  0.00     0.066 H 
BRANCH  21  24
ATOM     24  C21 5BN d   1      14.535  -5.279   7.503  0.00  0.00     0.094 C 
ATOM     25  H4  5BN d   1      15.598  -5.242   7.224  0.00  0.00     0.077 H 
ATOM     26  H5  5BN d   1      13.915  -5.167   6.601  0.00  0.00     0.077 H 
BRANCH  24  27
ATOM     27  N22 5BN d   1      14.248  -4.165   8.414  0.00  0.00    -0.078 N 
ATOM     28  H1  5BN d   1      14.457  -3.293   7.954  0.00  0.00     0.274 HD
ATOM     29  H2  5BN d   1      14.816  -4.253   9.242  0.00  0.00     0.274 HD
ATOM     30  H3  5BN d   1      13.274  -4.184   8.671  0.00  0.00     0.274 HD
ENDBRANCH  24  27
ENDBRANCH  21  24
ENDBRANCH  19  21
ENDBRANCH   1  19
BRANCH   3  31
ATOM     31  C14 5BN d   1      10.788  -9.826  10.556  0.00  0.00     0.043 A 
ATOM     32  C15 5BN d   1      10.178  -9.591   9.285  0.00  0.00    -0.055 A 
ATOM     33  C16 5BN d   1       8.977 -10.317   9.216  0.00  0.00    -0.066 A 
ATOM     34  H10 5BN d   1      10.579  -8.953   8.498  0.00  0.00     0.087 H 
ATOM     35  C17 5BN d   1       8.844 -10.986  10.412  0.00  0.00    -0.022 A 
ATOM     36  H11 5BN d   1       8.284 -10.345   8.377  0.00  0.00     0.085 H 
ATOM     37  N18 5BN d   1       9.943 -10.670  11.186  0.00  0.00    -0.365 N 
ATOM     38  H12 5BN d   1       8.023 -11.643  10.695  0.00  0.00     0.111 H 
ATOM     39  H13 5BN d   1      10.100 -11.036  12.136  0.00  0.00     0.165 HD
ENDBRANCH   3  31
TORSDOF 5
