REMARK  32 active torsions:
REMARK  status: ('A' for Active; 'I' for Inactive)
REMARK    1  A    between atoms: C2_2  and  O2_7 
REMARK    2  A    between atoms: C3_3  and  O3_8 
REMARK    3  A    between atoms: C5_5  and  C6_6 
REMARK    4  A    between atoms: C6_6  and  O6_11 
REMARK    5  A    between atoms: C2_13  and  O2_18 
REMARK    6  A    between atoms: C3_14  and  O3_19 
REMARK    7  A    between atoms: C5_16  and  C6_17 
REMARK    8  A    between atoms: C6_17  and  O6_22 
REMARK    9  A    between atoms: C2_24  and  O2_29 
REMARK   10  A    between atoms: C3_25  and  O3_30 
REMARK   11  A    between atoms: C5_27  and  C6_28 
REMARK   12  A    between atoms: C6_28  and  O6_33 
REMARK   13  A    between atoms: C2_35  and  O2_40 
REMARK   14  A    between atoms: C3_36  and  O3_41 
REMARK   15  A    between atoms: C5_38  and  C6_39 
REMARK   16  A    between atoms: C6_39  and  O6_44 
REMARK   17  A    between atoms: C2_46  and  O2_51 
REMARK   18  A    between atoms: C3_47  and  O3_52 
REMARK   19  A    between atoms: C5_49  and  C6_50 
REMARK   20  A    between atoms: C6_50  and  O6_55 
REMARK   21  A    between atoms: C2_57  and  O2_62 
REMARK   22  A    between atoms: C3_58  and  O3_63 
REMARK   23  A    between atoms: C5_60  and  C6_61 
REMARK   24  A    between atoms: C6_61  and  O6_66 
REMARK   25  A    between atoms: C2_68  and  O2_73 
REMARK   26  A    between atoms: C3_69  and  O3_74 
REMARK   27  A    between atoms: C5_71  and  C6_72 
REMARK   28  A    between atoms: C6_72  and  O6_77 
REMARK   29  A    between atoms: C2_79  and  O2_84 
REMARK   30  A    between atoms: C3_80  and  O3_85 
REMARK   31  A    between atoms: C5_82  and  C6_83 
REMARK   32  A    between atoms: C6_83  and  O6_88 
ROOT
ATOM      1  C1  NON d   1      69.567  19.379  29.945  0.00  0.00     0.159 C 
ATOM      2  C2  NON d   1      69.836  20.849  29.603  0.00  0.00     0.110 C 
ATOM      3  C3  NON d   1      69.210  21.774  30.642  0.00  0.00     0.092 C 
ATOM      4  C4  NON d   1      67.769  21.384  30.977  0.00  0.00     0.096 C 
ATOM      5  C5  NON d   1      67.604  19.887  31.237  0.00  0.00     0.089 C 
ATOM      6  O4  NON d   1      67.350  22.109  32.151  0.00  0.00    -0.348 OA
ATOM      7  O5  NON d   1      68.174  19.140  30.146  0.00  0.00    -0.348 OA
ATOM      8  C1  NON d   1      66.269  22.958  31.929  0.00  0.00     0.159 C 
ATOM      9  C2  NON d   1      66.261  24.032  33.017  0.00  0.00     0.110 C 
ATOM     10  C3  NON d   1      65.869  23.450  34.364  0.00  0.00     0.092 C 
ATOM     11  C4  NON d   1      64.578  22.622  34.268  0.00  0.00     0.096 C 
ATOM     12  C5  NON d   1      64.651  21.602  33.130  0.00  0.00     0.089 C 
ATOM     13  O4  NON d   1      64.357  21.923  35.513  0.00  0.00    -0.348 OA
ATOM     14  O5  NON d   1      65.025  22.254  31.886  0.00  0.00    -0.348 OA
ATOM     15  C1  NON d   1      63.092  22.068  36.101  0.00  0.00     0.159 C 
ATOM     16  C2  NON d   1      63.209  23.031  37.275  0.00  0.00     0.110 C 
ATOM     17  C3  NON d   1      64.063  22.419  38.377  0.00  0.00     0.092 C 
ATOM     18  C4  NON d   1      63.595  21.023  38.739  0.00  0.00     0.096 C 
ATOM     19  C5  NON d   1      63.455  20.157  37.501  0.00  0.00     0.089 C 
ATOM     20  O4  NON d   1      64.540  20.423  39.644  0.00  0.00    -0.348 OA
ATOM     21  O5  NON d   1      62.584  20.813  36.563  0.00  0.00    -0.348 OA
ATOM     22  C1  NON d   1      63.984  20.033  40.866  0.00  0.00     0.159 C 
ATOM     23  C2  NON d   1      64.909  20.487  41.987  0.00  0.00     0.110 C 
ATOM     24  C3  NON d   1      66.218  19.727  41.875  0.00  0.00     0.092 C 
ATOM     25  C4  NON d   1      65.975  18.217  41.917  0.00  0.00     0.096 C 
ATOM     26  C5  NON d   1      64.990  17.835  40.798  0.00  0.00     0.089 C 
ATOM     27  O4  NON d   1      67.239  17.532  41.734  0.00  0.00    -0.348 OA
ATOM     28  O5  NON d   1      63.782  18.618  40.931  0.00  0.00    -0.348 OA
ATOM     29  C1  NON d   1      67.695  16.765  42.824  0.00  0.00     0.159 C 
ATOM     30  C2  NON d   1      69.231  16.710  42.802  0.00  0.00     0.110 C 
ATOM     31  C3  NON d   1      69.714  15.911  41.584  0.00  0.00     0.092 C 
ATOM     32  C4  NON d   1      69.019  14.536  41.472  0.00  0.00     0.096 C 
ATOM     33  C5  NON d   1      67.507  14.735  41.556  0.00  0.00     0.089 C 
ATOM     34  O4  NON d   1      69.340  13.932  40.190  0.00  0.00    -0.348 OA
ATOM     35  O5  NON d   1      67.174  15.438  42.772  0.00  0.00    -0.348 OA
ATOM     36  C1  NON d   1      69.924  12.642  40.232  0.00  0.00     0.159 C 
ATOM     37  C2  NON d   1      71.411  12.745  40.613  0.00  0.00     0.110 C 
ATOM     38  C3  NON d   1      72.174  13.493  39.507  0.00  0.00     0.092 C 
ATOM     39  C4  NON d   1      71.962  12.837  38.144  0.00  0.00     0.096 C 
ATOM     40  C5  NON d   1      70.455  12.674  37.874  0.00  0.00     0.089 C 
ATOM     41  O4  NON d   1      72.546  13.702  37.145  0.00  0.00    -0.348 OA
ATOM     42  O5  NON d   1      69.816  11.972  38.972  0.00  0.00    -0.348 OA
ATOM     43  C1  NON d   1      73.402  13.072  36.231  0.00  0.00     0.159 C 
ATOM     44  C2  NON d   1      74.529  14.043  35.794  0.00  0.00     0.110 C 
ATOM     45  C3  NON d   1      73.967  15.165  34.918  0.00  0.00     0.092 C 
ATOM     46  C4  NON d   1      73.180  14.594  33.756  0.00  0.00     0.096 C 
ATOM     47  C5  NON d   1      72.101  13.608  34.245  0.00  0.00     0.089 C 
ATOM     48  O4  NON d   1      72.568  15.686  33.031  0.00  0.00    -0.348 OA
ATOM     49  O5  NON d   1      72.694  12.582  35.085  0.00  0.00    -0.348 OA
ATOM     50  C1  NON d   1      72.851  15.726  31.657  0.00  0.00     0.159 C 
ATOM     51  C2  NON d   1      73.536  17.063  31.308  0.00  0.00     0.110 C 
ATOM     52  C3  NON d   1      72.547  18.210  31.575  0.00  0.00     0.092 C 
ATOM     53  C4  NON d   1      71.283  17.980  30.759  0.00  0.00     0.096 C 
ATOM     54  C5  NON d   1      70.669  16.607  31.065  0.00  0.00     0.089 C 
ATOM     55  O4  NON d   1      70.331  19.017  31.053  0.00  0.00    -0.348 OA
ATOM     56  O5  NON d   1      71.663  15.566  30.871  0.00  0.00    -0.348 OA
ATOM     57  H1  NON d   1      69.891  18.763  29.093  0.00  0.00     0.133 H 
ATOM     58  H2  NON d   1      69.419  21.077  28.611  0.00  0.00     0.094 H 
ATOM     59  H3  NON d   1      69.813  21.737  31.561  0.00  0.00     0.091 H 
ATOM     60  H4  NON d   1      67.126  21.663  30.129  0.00  0.00     0.091 H 
ATOM     61  H5  NON d   1      68.080  19.611  32.190  0.00  0.00     0.090 H 
ATOM     62  H11 NON d   1      66.410  23.449  30.955  0.00  0.00     0.133 H 
ATOM     63  H12 NON d   1      65.551  24.826  32.740  0.00  0.00     0.094 H 
ATOM     64  H13 NON d   1      66.681  22.802  34.726  0.00  0.00     0.091 H 
ATOM     65  H14 NON d   1      63.735  23.303  34.081  0.00  0.00     0.091 H 
ATOM     66  H15 NON d   1      65.367  20.805  33.379  0.00  0.00     0.090 H 
ATOM     67  H21 NON d   1      62.396  22.481  35.357  0.00  0.00     0.133 H 
ATOM     68  H22 NON d   1      62.205  23.247  37.670  0.00  0.00     0.094 H 
ATOM     69  H23 NON d   1      65.102  22.363  38.021  0.00  0.00     0.091 H 
ATOM     70  H24 NON d   1      62.616  21.094  39.235  0.00  0.00     0.091 H 
ATOM     71  H25 NON d   1      64.449  20.019  37.051  0.00  0.00     0.090 H 
ATOM     72  H31 NON d   1      63.009  20.528  40.984  0.00  0.00     0.133 H 
ATOM     73  H32 NON d   1      64.443  20.289  42.964  0.00  0.00     0.094 H 
ATOM     74  H33 NON d   1      66.687  19.980  40.913  0.00  0.00     0.091 H 
ATOM     75  H34 NON d   1      65.546  17.938  42.891  0.00  0.00     0.091 H 
ATOM     76  H35 NON d   1      65.470  18.064  39.835  0.00  0.00     0.090 H 
ATOM     77  H41 NON d   1      67.363  17.241  43.758  0.00  0.00     0.133 H 
ATOM     78  H42 NON d   1      69.592  16.229  43.723  0.00  0.00     0.094 H 
ATOM     79  H43 NON d   1      69.481  16.489  40.678  0.00  0.00     0.091 H 
ATOM     80  H44 NON d   1      69.357  13.881  42.288  0.00  0.00     0.091 H 
ATOM     81  H45 NON d   1      67.194  15.340  40.692  0.00  0.00     0.090 H 
ATOM     82  H51 NON d   1      69.399  12.047  40.994  0.00  0.00     0.133 H 
ATOM     83  H52 NON d   1      71.830  11.734  40.722  0.00  0.00     0.094 H 
ATOM     84  H53 NON d   1      71.799  14.526  39.465  0.00  0.00     0.091 H 
ATOM     85  H54 NON d   1      72.450  11.851  38.120  0.00  0.00     0.091 H 
ATOM     86  H55 NON d   1      70.021  13.681  37.785  0.00  0.00     0.090 H 
ATOM     87  H61 NON d   1      73.865  12.212  36.737  0.00  0.00     0.133 H 
ATOM     88  H62 NON d   1      75.284  13.483  35.223  0.00  0.00     0.094 H 
ATOM     89  H63 NON d   1      73.309  15.801  35.528  0.00  0.00     0.091 H 
ATOM     90  H64 NON d   1      73.869  14.058  33.087  0.00  0.00     0.091 H 
ATOM     91  H65 NON d   1      71.328  14.157  34.803  0.00  0.00     0.090 H 
ATOM     92  H71 NON d   1      73.539  14.902  31.418  0.00  0.00     0.133 H 
ATOM     93  H72 NON d   1      73.821  17.065  30.246  0.00  0.00     0.094 H 
ATOM     94  H73 NON d   1      72.297  18.235  32.646  0.00  0.00     0.091 H 
ATOM     95  H74 NON d   1      71.539  18.021  29.690  0.00  0.00     0.091 H 
ATOM     96  H75 NON d   1      70.319  16.599  32.108  0.00  0.00     0.090 H 
ENDROOT
BRANCH   5  97
ATOM     97  C6  NON d   1      66.134  19.557  31.253  0.00  0.00     0.043 C 
ATOM     98  H6  NON d   1      65.633  20.160  32.025  0.00  0.00     0.078 H 
ATOM     99  H7  NON d   1      66.002  18.489  31.480  0.00  0.00     0.078 H 
BRANCH  97 100
ATOM    100  O6  NON d   1      65.558  19.845  29.979  0.00  0.00    -0.398 OA
ATOM    101  H10 NON d   1      65.990  19.324  29.312  0.00  0.00     0.209 HD
ENDBRANCH  97 100
ENDBRANCH   5  97
BRANCH   3 102
ATOM    102  O3  NON d   1      69.202  23.104  30.125  0.00  0.00    -0.390 OA
ATOM    103  H9  NON d   1      68.847  23.695  30.779  0.00  0.00     0.210 HD
ENDBRANCH   3 102
BRANCH   2 104
ATOM    104  O2  NON d   1      71.249  21.059  29.599  0.00  0.00    -0.388 OA
ATOM    105  H8  NON d   1      71.600  20.863  30.460  0.00  0.00     0.210 HD
ENDBRANCH   2 104
BRANCH   9 106
ATOM    106  O2  NON d   1      67.573  24.572  33.134  0.00  0.00    -0.388 OA
ATOM    107  H18 NON d   1      68.177  23.882  33.382  0.00  0.00     0.210 HD
ENDBRANCH   9 106
BRANCH  10 108
ATOM    108  O3  NON d   1      65.674  24.523  35.277  0.00  0.00    -0.390 OA
ATOM    109  H19 NON d   1      65.456  24.173  36.133  0.00  0.00     0.210 HD
ENDBRANCH  10 108
BRANCH  12 110
ATOM    110  C6  NON d   1      63.270  21.042  32.914  0.00  0.00     0.043 C 
ATOM    111  H16 NON d   1      62.967  20.461  33.797  0.00  0.00     0.078 H 
ATOM    112  H17 NON d   1      63.273  20.389  32.029  0.00  0.00     0.078 H 
BRANCH 110 113
ATOM    113  O6  NON d   1      62.354  22.114  32.712  0.00  0.00    -0.398 OA
ATOM    114  H20 NON d   1      61.482  21.762  32.575  0.00  0.00     0.209 HD
ENDBRANCH 110 113
ENDBRANCH  12 110
BRANCH  52 115
ATOM    115  O3  NON d   1      73.123  19.462  31.192  0.00  0.00    -0.390 OA
ATOM    116  H79 NON d   1      72.501  20.160  31.359  0.00  0.00     0.210 HD
ENDBRANCH  52 115
BRANCH  54 117
ATOM    117  C6  NON d   1      69.506  16.287  30.137  0.00  0.00     0.043 C 
ATOM    118  H76 NON d   1      69.527  15.215  29.893  0.00  0.00     0.078 H 
ATOM    119  H77 NON d   1      69.612  16.876  29.214  0.00  0.00     0.078 H 
BRANCH 117 120
ATOM    120  O6  NON d   1      68.255  16.600  30.747  0.00  0.00    -0.398 OA
ATOM    121  H80 NON d   1      68.229  17.526  30.957  0.00  0.00     0.209 HD
ENDBRANCH 117 120
ENDBRANCH  54 117
BRANCH  51 122
ATOM    122  O2  NON d   1      74.708  17.226  32.113  0.00  0.00    -0.388 OA
ATOM    123  H78 NON d   1      74.464  17.220  33.031  0.00  0.00     0.210 HD
ENDBRANCH  51 122
BRANCH  16 124
ATOM    124  O2  NON d   1      63.814  24.234  36.832  0.00  0.00    -0.388 OA
ATOM    125  H28 NON d   1      64.682  24.045  36.496  0.00  0.00     0.210 HD
ENDBRANCH  16 124
BRANCH  17 126
ATOM    126  O3  NON d   1      64.016  23.225  39.548  0.00  0.00    -0.390 OA
ATOM    127  H29 NON d   1      64.585  22.852  40.211  0.00  0.00     0.210 HD
ENDBRANCH  17 126
BRANCH  19 128
ATOM    128  C6  NON d   1      62.858  18.800  37.807  0.00  0.00     0.043 C 
ATOM    129  H26 NON d   1      61.915  18.934  38.358  0.00  0.00     0.078 H 
ATOM    130  H27 NON d   1      63.564  18.224  38.423  0.00  0.00     0.078 H 
BRANCH 128 131
ATOM    131  O6  NON d   1      62.600  18.091  36.604  0.00  0.00    -0.398 OA
ATOM    132  H30 NON d   1      61.989  18.586  36.071  0.00  0.00     0.209 HD
ENDBRANCH 128 131
ENDBRANCH  19 128
BRANCH  45 133
ATOM    133  O3  NON d   1      75.034  15.952  34.385  0.00  0.00    -0.390 OA
ATOM    134  H69 NON d   1      74.674  16.654  33.855  0.00  0.00     0.210 HD
ENDBRANCH  45 133
BRANCH  47 135
ATOM    135  C6  NON d   1      71.484  12.884  33.066  0.00  0.00     0.043 C 
ATOM    136  H66 NON d   1      71.573  11.799  33.224  0.00  0.00     0.078 H 
ATOM    137  H67 NON d   1      72.022  13.167  32.149  0.00  0.00     0.078 H 
BRANCH 135 138
ATOM    138  O6  NON d   1      70.106  13.221  32.919  0.00  0.00    -0.398 OA
ATOM    139  H70 NON d   1      69.745  12.755  32.174  0.00  0.00     0.209 HD
ENDBRANCH 135 138
ENDBRANCH  47 135
BRANCH  44 140
ATOM    140  O2  NON d   1      75.138  14.616  36.948  0.00  0.00    -0.388 OA
ATOM    141  H68 NON d   1      74.489  15.109  37.436  0.00  0.00     0.210 HD
ENDBRANCH  44 140
BRANCH  23 142
ATOM    142  O2  NON d   1      65.156  21.881  41.843  0.00  0.00    -0.388 OA
ATOM    143  H38 NON d   1      65.547  22.046  40.993  0.00  0.00     0.210 HD
ENDBRANCH  23 142
BRANCH  24 144
ATOM    144  O3  NON d   1      67.100  20.103  42.924  0.00  0.00    -0.390 OA
ATOM    145  H39 NON d   1      67.927  19.648  42.819  0.00  0.00     0.210 HD
ENDBRANCH  24 144
BRANCH  26 146
ATOM    146  C6  NON d   1      64.568  16.370  40.786  0.00  0.00     0.043 C 
ATOM    147  H36 NON d   1      65.448  15.740  40.985  0.00  0.00     0.078 H 
ATOM    148  H37 NON d   1      64.156  16.122  39.797  0.00  0.00     0.078 H 
BRANCH 146 149
ATOM    149  O6  NON d   1      63.578  16.118  41.781  0.00  0.00    -0.398 OA
ATOM    150  H40 NON d   1      62.815  16.658  41.611  0.00  0.00     0.209 HD
ENDBRANCH 146 149
ENDBRANCH  26 146
BRANCH  38 151
ATOM    151  O3  NON d   1      73.571  13.519  39.791  0.00  0.00    -0.390 OA
ATOM    152  H59 NON d   1      74.020  14.018  39.119  0.00  0.00     0.210 HD
ENDBRANCH  38 151
BRANCH  40 153
ATOM    153  C6  NON d   1      70.122  11.895  36.616  0.00  0.00     0.043 C 
ATOM    154  H56 NON d   1      70.622  10.916  36.651  0.00  0.00     0.078 H 
ATOM    155  H57 NON d   1      70.473  12.455  35.737  0.00  0.00     0.078 H 
BRANCH 153 156
ATOM    156  O6  NON d   1      68.708  11.702  36.521  0.00  0.00    -0.398 OA
ATOM    157  H60 NON d   1      68.404  11.217  37.279  0.00  0.00     0.209 HD
ENDBRANCH 153 156
ENDBRANCH  40 153
BRANCH  37 158
ATOM    158  O2  NON d   1      71.538  13.443  41.850  0.00  0.00    -0.388 OA
ATOM    159  H58 NON d   1      71.178  14.317  41.757  0.00  0.00     0.210 HD
ENDBRANCH  37 158
BRANCH  30 160
ATOM    160  O2  NON d   1      69.753  18.041  42.718  0.00  0.00    -0.388 OA
ATOM    161  H48 NON d   1      69.443  18.452  41.919  0.00  0.00     0.210 HD
ENDBRANCH  30 160
BRANCH  31 162
ATOM    162  O3  NON d   1      71.120  15.732  41.664  0.00  0.00    -0.390 OA
ATOM    163  H49 NON d   1      71.329  15.210  42.430  0.00  0.00     0.210 HD
ENDBRANCH  31 162
BRANCH  33 164
ATOM    164  C6  NON d   1      66.728  13.439  41.538  0.00  0.00     0.043 C 
ATOM    165  H46 NON d   1      66.004  13.441  42.366  0.00  0.00     0.078 H 
ATOM    166  H47 NON d   1      67.425  12.597  41.661  0.00  0.00     0.078 H 
BRANCH 164 167
ATOM    167  O6  NON d   1      66.026  13.291  40.301  0.00  0.00    -0.398 OA
ATOM    168  H50 NON d   1      65.543  12.473  40.308  0.00  0.00     0.209 HD
ENDBRANCH 164 167
ENDBRANCH  33 164
TORSDOF 32
