REMARK  28 active torsions:
REMARK  status: ('A' for Active; 'I' for Inactive)
REMARK    1  A    between atoms: CA_2  and  N_1 
REMARK    2  A    between atoms: CA_2  and  CB_5 
REMARK    3  A    between atoms: C_3  and  CA_2 
REMARK       I    between atoms: N_9  and  C_3 
REMARK    4  A    between atoms: CB_5  and  CG_6 
REMARK    5  A    between atoms: CA_10  and  N_9 
REMARK    6  A    between atoms: CA_10  and  CB_13 
REMARK    7  A    between atoms: C_11  and  CA_10 
REMARK       I    between atoms: N_20  and  C_11 
REMARK    8  A    between atoms: CB_13  and  CG_14 
REMARK    9  A    between atoms: CA_21  and  N_20 
REMARK   10  A    between atoms: C_22  and  CA_21 
REMARK       I    between atoms: N_24  and  C_22 
REMARK   11  A    between atoms: C_26  and  CA_25 
REMARK       I    between atoms: N_31  and  C_26 
REMARK   12  A    between atoms: CA_32  and  N_31 
REMARK   13  A    between atoms: CA_32  and  CB_35 
REMARK   14  A    between atoms: C_33  and  CA_32 
REMARK       I    between atoms: N_39  and  C_33 
REMARK   15  A    between atoms: CB_35  and  CG_36 
REMARK   16  A    between atoms: CG_36  and  CD1_37 
REMARK   17  A    between atoms: CG_36  and  CD2_38 
REMARK   18  A    between atoms: CA_40  and  N_39 
REMARK   19  A    between atoms: CA_40  and  CB_43 
REMARK   20  A    between atoms: C_41  and  CA_40 
REMARK       I    between atoms: N_46  and  C_41 
REMARK   21  A    between atoms: CB_43  and  CG2_45 
REMARK   22  A    between atoms: CB_43  and  CG1_44 
REMARK   23  A    between atoms: CA_47  and  N_46 
REMARK   24  A    between atoms: C_48  and  CA_47 
REMARK       I    between atoms: C_48  and  N_50 
REMARK   25  A    between atoms: N_50  and  CA_51 
REMARK   26  A    between atoms: CA_51  and  CB_54 
REMARK   27  A    between atoms: CA_51  and  C_52 
REMARK   28  A    between atoms: C_52  and  O1_55 
ROOT
ATOM      1  C   PRO d   1      19.644  59.735  51.019  0.00  0.00     0.241 C 
ATOM      2  O   PRO d   1      18.665  59.321  50.392  0.00  0.00    -0.271 OA
ATOM      3  N   LEU d   1      20.897  59.486  50.650  0.00  0.00    -0.346 N 
ATOM      4  H26 LEU d   1      21.656  59.888  51.163  0.00  0.00     0.163 HD
ENDROOT
BRANCH   1   5
ATOM      5  CA  PRO d   1      19.468  60.587  52.273  0.00  0.00     0.091 C 
ATOM      6  CB  PRO d   1      19.691  59.766  53.530  0.00  0.00    -0.036 C 
ATOM      7  CG  PRO d   1      18.346  59.092  53.682  0.00  0.00    -0.048 C 
ATOM      8  H20 PRO d   1      19.921  60.406  54.394  0.00  0.00     0.036 H 
ATOM      9  H21 PRO d   1      20.497  59.031  53.394  0.00  0.00     0.036 H 
ATOM     10  CD  PRO d   1      17.372  60.240  53.437  0.00  0.00    -0.001 C 
ATOM     11  H22 PRO d   1      18.215  58.294  52.937  0.00  0.00     0.035 H 
ATOM     12  H23 PRO d   1      18.223  58.675  54.692  0.00  0.00     0.035 H 
ATOM     13  N   PRO d   1      18.086  61.053  52.436  0.00  0.00    -0.337 N 
ATOM     14  H24 PRO d   1      16.414  59.871  53.041  0.00  0.00     0.064 H 
ATOM     15  H25 PRO d   1      17.192  60.812  54.359  0.00  0.00     0.064 H 
ATOM     16  C   GLY d   1      17.624  62.073  51.704  0.00  0.00     0.238 C 
ATOM     17  O   GLY d   1      18.333  62.636  50.868  0.00  0.00    -0.272 OA
ATOM     18  H19 PRO d   1      20.164  61.438  52.230  0.00  0.00     0.087 H 
BRANCH  16  19
ATOM     19  CA  GLY d   1      16.191  62.526  51.902  0.00  0.00     0.069 C 
ATOM     20  H17 GLY d   1      15.507  61.669  51.816  0.00  0.00     0.078 H 
ATOM     21  H18 GLY d   1      16.073  62.991  52.892  0.00  0.00     0.078 H 
BRANCH  19  22
ATOM     22  N   GLY d   1      15.916  63.493  50.859  0.00  0.00    -0.351 N 
ATOM     23  C   PHE d   1      16.192  64.778  51.048  0.00  0.00     0.241 C 
ATOM     24  O   PHE d   1      16.654  65.214  52.100  0.00  0.00    -0.271 OA
ATOM     25  H16 GLY d   1      15.517  63.191  49.993  0.00  0.00     0.163 HD
BRANCH  23  26
ATOM     26  CA  PHE d   1      15.902  65.699  49.873  0.00  0.00     0.093 C 
ATOM     27  H8  PHE d   1      14.931  65.419  49.438  0.00  0.00     0.088 H 
BRANCH  26  28
ATOM     28  N   PHE d   1      15.833  67.107  50.258  0.00  0.00    -0.346 N 
ATOM     29  C   ASP d   1      14.685  67.778  50.353  0.00  0.00     0.249 C 
ATOM     30  O   ASP d   1      13.584  67.281  50.112  0.00  0.00    -0.271 OA
ATOM     31  H7  PHE d   1      16.686  67.589  50.459  0.00  0.00     0.163 HD
BRANCH  29  32
ATOM     32  CA  ASP d   1      14.804  69.245  50.760  0.00  0.00     0.185 C 
ATOM     33  H4  ASP d   1      15.818  69.435  51.143  0.00  0.00     0.100 H 
BRANCH  32  34
ATOM     34  N   ASP d   1      14.564  70.083  49.545  0.00  0.00    -0.066 N 
ATOM     35  H1  ASP d   1      14.638  71.058  49.789  0.00  0.00     0.275 HD
ATOM     36  H2  ASP d   1      13.642  69.896  49.184  0.00  0.00     0.275 HD
ATOM     37  H3  ASP d   1      15.251  69.860  48.842  0.00  0.00     0.275 HD
ENDBRANCH  32  34
BRANCH  32  38
ATOM     38  CB  ASP d   1      13.780  69.601  51.857  0.00  0.00     0.050 C 
ATOM     39  H5  ASP d   1      12.794  69.218  51.553  0.00  0.00     0.052 H 
ATOM     40  H6  ASP d   1      13.735  70.696  51.952  0.00  0.00     0.052 H 
BRANCH  38  41
ATOM     41  CG  ASP d   1      14.134  69.006  53.229  0.00  0.00     0.175 C 
ATOM     42  OD1 ASP d   1      15.246  68.458  53.401  0.00  0.00    -0.648 OA
ATOM     43  OD2 ASP d   1      13.295  69.095  54.151  0.00  0.00    -0.648 OA
ENDBRANCH  38  41
ENDBRANCH  32  38
ENDBRANCH  29  32
ENDBRANCH  26  28
BRANCH  26  44
ATOM     44  CB  PHE d   1      17.000  65.471  48.833  0.00  0.00    -0.014 C 
ATOM     45  H9  PHE d   1      17.261  64.402  48.834  0.00  0.00     0.043 H 
ATOM     46  H10 PHE d   1      17.880  66.064  49.124  0.00  0.00     0.043 H 
BRANCH  44  47
ATOM     47  CG  PHE d   1      16.612  65.858  47.442  0.00  0.00    -0.056 A 
ATOM     48  CD1 PHE d   1      16.482  67.194  47.086  0.00  0.00    -0.077 A 
ATOM     49  CE1 PHE d   1      16.122  67.554  45.787  0.00  0.00    -0.082 A 
ATOM     50  H11 PHE d   1      16.662  67.966  47.826  0.00  0.00     0.084 H 
ATOM     51  CZ  PHE d   1      15.889  66.568  44.833  0.00  0.00    -0.083 A 
ATOM     52  H13 PHE d   1      16.024  68.600  45.521  0.00  0.00     0.083 H 
ATOM     53  CE2 PHE d   1      16.017  65.224  45.180  0.00  0.00    -0.082 A 
ATOM     54  H15 PHE d   1      15.609  66.844  43.823  0.00  0.00     0.083 H 
ATOM     55  CD2 PHE d   1      16.377  64.877  46.478  0.00  0.00    -0.077 A 
ATOM     56  H14 PHE d   1      15.837  64.452  44.441  0.00  0.00     0.083 H 
ATOM     57  H12 PHE d   1      16.476  63.831  46.744  0.00  0.00     0.084 H 
ENDBRANCH  44  47
ENDBRANCH  26  44
ENDBRANCH  23  26
ENDBRANCH  19  22
ENDBRANCH  16  19
ENDBRANCH   1   5
BRANCH   3  58
ATOM     58  CA  LEU d   1      21.169  58.633  49.506  0.00  0.00     0.089 C 
ATOM     59  H27 LEU d   1      20.620  58.982  48.619  0.00  0.00     0.087 H 
BRANCH  58  60
ATOM     60  CB  LEU d   1      22.666  58.572  49.207  0.00  0.00    -0.035 C 
ATOM     61  H28 LEU d   1      22.894  57.533  48.926  0.00  0.00     0.037 H 
ATOM     62  H29 LEU d   1      23.189  58.822  50.142  0.00  0.00     0.037 H 
BRANCH  60  63
ATOM     63  CG  LEU d   1      23.254  59.465  48.117  0.00  0.00    -0.059 C 
ATOM     64  H30 LEU d   1      23.108  60.520  48.390  0.00  0.00     0.038 H 
BRANCH  63  65
ATOM     65  CD1 LEU d   1      24.755  59.176  47.998  0.00  0.00    -0.073 C 
ATOM     66  H31 LEU d   1      25.190  59.814  47.215  0.00  0.00     0.028 H 
ATOM     67  H32 LEU d   1      24.905  58.119  47.735  0.00  0.00     0.028 H 
ATOM     68  H33 LEU d   1      25.247  59.388  48.959  0.00  0.00     0.028 H 
ENDBRANCH  63  65
BRANCH  63  69
ATOM     69  CD2 LEU d   1      22.552  59.191  46.797  0.00  0.00    -0.073 C 
ATOM     70  H34 LEU d   1      21.478  59.404  46.902  0.00  0.00     0.028 H 
ATOM     71  H35 LEU d   1      22.691  58.136  46.520  0.00  0.00     0.028 H 
ATOM     72  H36 LEU d   1      22.979  59.835  46.014  0.00  0.00     0.028 H 
ENDBRANCH  63  69
ENDBRANCH  60  63
ENDBRANCH  58  60
BRANCH  58  73
ATOM     73  C   LEU d   1      20.707  57.248  49.934  0.00  0.00     0.241 C 
ATOM     74  O   LEU d   1      20.849  56.873  51.102  0.00  0.00    -0.271 OA
ATOM     75  N   VAL d   1      20.144  56.498  48.998  0.00  0.00    -0.346 N 
ATOM     76  H37 VAL d   1      20.037  56.865  48.074  0.00  0.00     0.163 HD
BRANCH  75  77
ATOM     77  CA  VAL d   1      19.680  55.153  49.288  0.00  0.00     0.092 C 
ATOM     78  H38 VAL d   1      20.028  54.866  50.291  0.00  0.00     0.088 H 
BRANCH  77  79
ATOM     79  CB  VAL d   1      18.133  55.083  49.263  0.00  0.00    -0.033 C 
ATOM     80  H39 VAL d   1      17.758  55.715  48.444  0.00  0.00     0.042 H 
BRANCH  79  81
ATOM     81  CG2 VAL d   1      17.590  55.593  50.581  0.00  0.00    -0.071 C 
ATOM     82  H43 VAL d   1      17.931  56.626  50.743  0.00  0.00     0.028 H 
ATOM     83  H44 VAL d   1      17.954  54.954  51.399  0.00  0.00     0.028 H 
ATOM     84  H45 VAL d   1      16.491  55.569  50.558  0.00  0.00     0.028 H 
ENDBRANCH  79  81
BRANCH  79  85
ATOM     85  CG1 VAL d   1      17.659  53.657  49.045  0.00  0.00    -0.071 C 
ATOM     86  H40 VAL d   1      16.559  53.634  49.031  0.00  0.00     0.028 H 
ATOM     87  H41 VAL d   1      18.029  53.019  49.861  0.00  0.00     0.028 H 
ATOM     88  H42 VAL d   1      18.045  53.285  48.085  0.00  0.00     0.028 H 
ENDBRANCH  79  85
ENDBRANCH  77  79
BRANCH  77  89
ATOM     89  C   VAL d   1      20.263  54.194  48.272  0.00  0.00     0.241 C 
ATOM     90  O   VAL d   1      20.331  54.499  47.081  0.00  0.00    -0.271 OA
ATOM     91  N   GLY d   1      20.697  53.035  48.751  0.00  0.00    -0.351 N 
ATOM     92  H46 GLY d   1      20.628  52.844  49.730  0.00  0.00     0.163 HD
BRANCH  91  93
ATOM     93  CA  GLY d   1      21.271  52.044  47.863  0.00  0.00     0.069 C 
ATOM     94  H47 GLY d   1      22.343  51.930  48.083  0.00  0.00     0.078 H 
ATOM     95  H48 GLY d   1      21.143  52.367  46.819  0.00  0.00     0.078 H 
BRANCH  93  96
ATOM     96  C   GLY d   1      20.571  50.724  48.071  0.00  0.00     0.236 C 
ATOM     97  O   GLY d   1      19.746  50.591  48.970  0.00  0.00    -0.272 OA
ATOM     98  N   ALA d   1      20.889  49.739  47.248  0.00  0.00    -0.346 N 
ATOM     99  H49 ALA d   1      21.568  49.888  46.529  0.00  0.00     0.163 HD
BRANCH  98 100
ATOM    100  CA  ALA d   1      20.252  48.439  47.388  0.00  0.00     0.090 C 
ATOM    101  H50 ALA d   1      19.161  48.573  47.434  0.00  0.00     0.088 H 
BRANCH 100 102
ATOM    102  CB  ALA d   1      20.591  47.560  46.188  0.00  0.00    -0.048 C 
ATOM    103  H51 ALA d   1      20.105  46.580  46.303  0.00  0.00     0.030 H 
ATOM    104  H52 ALA d   1      21.681  47.424  46.129  0.00  0.00     0.030 H 
ATOM    105  H53 ALA d   1      20.231  48.042  45.267  0.00  0.00     0.030 H 
ENDBRANCH 100 102
BRANCH 100 106
ATOM    106  C   ALA d   1      20.731  47.787  48.687  0.00  0.00     0.163 C 
ATOM    107  O   ALA d   1      21.751  48.261  49.240  0.00  0.00    -0.648 OA
BRANCH 106 108
ATOM    108  O1  ALA d   1      20.085  46.750  49.213  0.00  0.00    -0.775 OA
ATOM    109  H54 ALA d   1      20.674  46.006  49.266  0.00  0.00     0.167 HD
ENDBRANCH 106 108
ENDBRANCH 100 106
ENDBRANCH  98 100
ENDBRANCH  93  96
ENDBRANCH  91  93
ENDBRANCH  77  89
ENDBRANCH  75  77
ENDBRANCH  58  73
ENDBRANCH   3  58
TORSDOF 28
