REMARK  0 active torsions:
REMARK  status: ('A' for Active; 'I' for Inactive)
ROOT
ATOM      1  C1  TBS d   1       7.536  44.823  50.568  0.00  0.00     0.049 A 
ATOM      2  C2  TBS d   1       8.541  45.520  51.172  0.00  0.00     0.049 A 
ATOM      3  C3  TBS d   1       8.205  46.462  52.106  0.00  0.00     0.062 A 
ATOM      4  C4  TBS d   1       6.210  45.057  50.882  0.00  0.00     0.059 A 
ATOM      5  N5  TBS d   1       4.619  46.415  52.292  0.00  0.00    -0.279 N 
ATOM      6  C6  TBS d   1       5.849  46.004  51.817  0.00  0.00     0.096 A 
ATOM      7  C7  TBS d   1       6.905  46.744  52.464  0.00  0.00     0.122 A 
ATOM      8  N8  TBS d   1       6.371  47.648  53.362  0.00  0.00    -0.157 NA
ATOM      9  N9  TBS d   1       4.962  47.431  53.241  0.00  0.00     0.003 NA
ATOM     10 BR10 TBS d   1       4.858  44.086  50.030  0.00  0.00    -0.047 Br
ATOM     11 BR11 TBS d   1       8.072  43.545  49.311  0.00  0.00    -0.048 Br
ATOM     12 BR12 TBS d   1      10.349  45.157  50.717  0.00  0.00    -0.048 Br
ATOM     13 BR13 TBS d   1       9.598  47.386  52.901  0.00  0.00    -0.047 Br
ATOM     14  H1  TBS d   1       3.684  46.074  52.028  0.00  0.00     0.184 HD
ENDROOT
TORSDOF 0
