REMARK  1 active torsions:
REMARK  status: ('A' for Active; 'I' for Inactive)
REMARK    1  A    between atoms: N3_3  and  C3A_11 
ROOT
ATOM      1  N9  ADK d   1     139.844  20.396  -9.528  0.00  0.00    -0.224 NA
ATOM      2  C4  ADK d   1     140.540  20.973  -8.489  0.00  0.00     0.162 A 
ATOM      3  N3  ADK d   1     140.650  22.282  -8.220  0.00  0.00    -0.329 N 
ATOM      4  C2  ADK d   1     141.381  22.529  -7.154  0.00  0.00     0.069 A 
ATOM      5  N1  ADK d   1     141.974  21.631  -6.369  0.00  0.00    -0.224 NA
ATOM      6  C6  ADK d   1     141.861  20.316  -6.642  0.00  0.00     0.153 A 
ATOM      7  N6  ADK d   1     142.440  19.431  -5.831  0.00  0.00    -0.382 N 
ATOM      8  C5  ADK d   1     141.099  19.948  -7.764  0.00  0.00     0.126 A 
ATOM      9  N7  ADK d   1     140.776  18.715  -8.327  0.00  0.00    -0.345 N 
ATOM     10  C8  ADK d   1     140.052  19.068  -9.334  0.00  0.00     0.067 A 
ATOM     11  H1  ADK d   1     141.514  23.571  -6.887  0.00  0.00     0.143 H 
ATOM     12  H2  ADK d   1     142.361  18.423  -6.028  0.00  0.00     0.157 HD
ATOM     13  H3  ADK d   1     142.966  19.755  -5.007  0.00  0.00     0.157 HD
ATOM     14  H4  ADK d   1     141.045  17.770  -8.020  0.00  0.00     0.167 HD
ATOM     15  H5  ADK d   1     139.622  18.327 -10.006  0.00  0.00     0.143 H 
ENDROOT
BRANCH   3  16
ATOM     16  C3A ADK d   1     140.035  23.347  -9.028  0.00  0.00    -0.012 C 
ATOM     17  H6  ADK d   1     139.476  22.898  -9.862  0.00  0.00     0.057 H 
ATOM     18  H7  ADK d   1     140.821  24.005  -9.426  0.00  0.00     0.057 H 
ATOM     19  H8  ADK d   1     139.349  23.934  -8.400  0.00  0.00     0.057 H 
ENDBRANCH   3  16
TORSDOF 1
