REMARK  8 active torsions:
REMARK  status: ('A' for Active; 'I' for Inactive)
REMARK    1  A    between atoms: C10_10  and  C19_19 
REMARK    2  A    between atoms: C11_11  and  O2_25 
REMARK    3  A    between atoms: C13_13  and  C18_18 
REMARK    4  A    between atoms: C16_16  and  C22_22 
REMARK    5  A    between atoms: C17_17  and  C20_20 
REMARK    6  A    between atoms: C17_17  and  O3_26 
REMARK    7  A    between atoms: C20_20  and  C21_21 
REMARK    8  A    between atoms: C21_21  and  O5_28 
ROOT
ATOM      1  C1  DEX d   1      45.362  11.649   1.428  0.00  0.00    -0.084 A 
ATOM      2  C2  DEX d   1      44.508  11.606   2.558  0.00  0.00    -0.037 A 
ATOM      3  C3  DEX d   1      43.275  10.716   2.521  0.00  0.00     0.172 A 
ATOM      4  C4  DEX d   1      43.034   9.898   1.226  0.00  0.00    -0.031 A 
ATOM      5  C5  DEX d   1      43.868   9.934   0.111  0.00  0.00    -0.061 A 
ATOM      6  C6  DEX d   1      43.571   9.047  -1.239  0.00  0.00    -0.043 C 
ATOM      7  C7  DEX d   1      43.636   9.962  -2.501  0.00  0.00    -0.055 C 
ATOM      8  C8  DEX d   1      44.991  10.850  -2.616  0.00  0.00    -0.011 C 
ATOM      9  C9  DEX d   1      45.233  11.758  -1.312  0.00  0.00     0.147 C 
ATOM     10  C10 DEX d   1      45.193  10.843   0.049  0.00  0.00     0.036 A 
ATOM     11  C11 DEX d   1      46.545  12.690  -1.427  0.00  0.00     0.072 C 
ATOM     12  C12 DEX d   1      46.541  13.501  -2.756  0.00  0.00    -0.028 C 
ATOM     13  C13 DEX d   1      46.250  12.701  -4.127  0.00  0.00     0.001 C 
ATOM     14  C14 DEX d   1      44.976  11.795  -3.921  0.00  0.00    -0.037 C 
ATOM     15  C15 DEX d   1      44.800  11.128  -5.353  0.00  0.00    -0.054 C 
ATOM     16  C16 DEX d   1      44.844  12.355  -6.239  0.00  0.00    -0.020 C 
ATOM     17  C17 DEX d   1      45.750  13.413  -5.467  0.00  0.00     0.131 C 
ATOM     18  F1  DEX d   1      44.163  12.583  -1.172  0.00  0.00    -0.238 F 
ATOM     19  O1  DEX d   1      42.437  10.601   3.488  0.00  0.00    -0.289 OA
ATOM     20  H1  DEX d   1      46.230  12.302   1.503  0.00  0.00     0.078 H 
ATOM     21  H2  DEX d   1      44.731  12.202   3.441  0.00  0.00     0.089 H 
ATOM     22  H3  DEX d   1      42.157   9.254   1.186  0.00  0.00     0.090 H 
ATOM     23  H4  DEX d   1      42.570   8.597  -1.167  0.00  0.00     0.039 H 
ATOM     24  H5  DEX d   1      44.326   8.252  -1.326  0.00  0.00     0.039 H 
ATOM     25  H6  DEX d   1      42.776  10.648  -2.474  0.00  0.00     0.034 H 
ATOM     26  H7  DEX d   1      43.567   9.323  -3.393  0.00  0.00     0.034 H 
ATOM     27  H8  DEX d   1      45.837  10.153  -2.708  0.00  0.00     0.045 H 
ATOM     28  H9  DEX d   1      46.471  13.409  -0.598  0.00  0.00     0.088 H 
ATOM     29  H10 DEX d   1      47.530  13.972  -2.855  0.00  0.00     0.038 H 
ATOM     30  H11 DEX d   1      45.771  14.281  -2.662  0.00  0.00     0.038 H 
ATOM     31  H12 DEX d   1      44.114  12.461  -3.768  0.00  0.00     0.042 H 
ATOM     32  H13 DEX d   1      43.839  10.600  -5.439  0.00  0.00     0.034 H 
ATOM     33  H14 DEX d   1      45.622  10.434  -5.581  0.00  0.00     0.034 H 
ATOM     34  H15 DEX d   1      45.312  12.104  -7.202  0.00  0.00     0.044 H 
ENDROOT
BRANCH  17  35
ATOM     35  C20 DEX d   1      46.798  14.195  -6.325  0.00  0.00     0.185 C 
ATOM     36  O4  DEX d   1      46.878  13.944  -7.568  0.00  0.00    -0.292 OA
BRANCH  35  37
ATOM     37  C21 DEX d   1      47.682  15.220  -5.655  0.00  0.00     0.074 C 
ATOM     38  H22 DEX d   1      48.281  14.732  -4.872  0.00  0.00     0.086 H 
ATOM     39  H23 DEX d   1      47.056  16.003  -5.203  0.00  0.00     0.086 H 
BRANCH  37  40
ATOM     40  O5  DEX d   1      48.516  15.782  -6.582  0.00  0.00    -0.393 OA
ATOM     41  H29 DEX d   1      49.056  15.105  -6.972  0.00  0.00     0.209 HD
ENDBRANCH  37  40
ENDBRANCH  35  37
ENDBRANCH  17  35
BRANCH  17  42
ATOM     42  O3  DEX d   1      45.028  14.577  -5.218  0.00  0.00    -0.381 OA
ATOM     43  H28 DEX d   1      44.744  14.954  -6.042  0.00  0.00     0.211 HD
ENDBRANCH  17  42
BRANCH  13  44
ATOM     44  C18 DEX d   1      47.629  11.876  -4.442  0.00  0.00    -0.065 C 
ATOM     45  H16 DEX d   1      47.979  11.383  -3.523  0.00  0.00     0.028 H 
ATOM     46  H17 DEX d   1      48.400  12.574  -4.800  0.00  0.00     0.028 H 
ATOM     47  H18 DEX d   1      47.434  11.117  -5.214  0.00  0.00     0.028 H 
ENDBRANCH  13  44
BRANCH  16  48
ATOM     48  C22 DEX d   1      43.391  12.896  -6.515  0.00  0.00    -0.070 C 
ATOM     49  H24 DEX d   1      42.809  12.129  -7.048  0.00  0.00     0.028 H 
ATOM     50  H25 DEX d   1      43.449  13.806  -7.130  0.00  0.00     0.028 H 
ATOM     51  H26 DEX d   1      42.899  13.130  -5.559  0.00  0.00     0.028 H 
ENDBRANCH  16  48
BRANCH  11  52
ATOM     52  O2  DEX d   1      47.759  12.098  -1.308  0.00  0.00    -0.392 OA
ATOM     53  H27 DEX d   1      48.435  12.765  -1.290  0.00  0.00     0.210 HD
ENDBRANCH  11  52
BRANCH  10  54
ATOM     54  C19 DEX d   1      46.409   9.803   0.031  0.00  0.00    -0.059 C 
ATOM     55  H19 DEX d   1      46.381   9.190   0.944  0.00  0.00     0.029 H 
ATOM     56  H20 DEX d   1      47.361  10.352  -0.013  0.00  0.00     0.029 H 
ATOM     57  H21 DEX d   1      46.321   9.151  -0.851  0.00  0.00     0.029 H 
ENDBRANCH  10  54
TORSDOF 8
