REMARK  20 active torsions:
REMARK  status: ('A' for Active; 'I' for Inactive)
REMARK    1  A    between atoms: C_1  and  CH3_3 
REMARK       I    between atoms: C_1  and  N_4 
REMARK    2  A    between atoms: N_4  and  CA_5 
REMARK    3  A    between atoms: CA_5  and  C_6 
REMARK    4  A    between atoms: CA_5  and  CB_8 
REMARK       I    between atoms: C_6  and  N_12 
REMARK    5  A    between atoms: CB_8  and  CG_9 
REMARK    6  A    between atoms: N_12  and  CA_13 
REMARK    7  A    between atoms: CA_13  and  C_14 
REMARK    8  A    between atoms: CA_13  and  CB_16 
REMARK       I    between atoms: C_14  and  N_21 
REMARK    9  A    between atoms: CB_16  and  CG_17 
REMARK   10  A    between atoms: CG_17  and  CD_18 
REMARK   11  A    between atoms: N_21  and  CA_22 
REMARK   12  A    between atoms: CA_22  and  C_23 
REMARK   13  A    between atoms: CA_22  and  CB_25 
REMARK       I    between atoms: C_23  and  N_28 
REMARK   14  A    between atoms: CB_25  and  CG1_26 
REMARK   15  A    between atoms: CB_25  and  CG2_27 
REMARK   16  A    between atoms: N_28  and  CA_29 
REMARK   17  A    between atoms: CA_29  and  C_30 
REMARK   18  A    between atoms: CA_29  and  CB_32 
REMARK   19  A    between atoms: C_30  and  O_31 
REMARK   20  A    between atoms: CB_32  and  CG_33 
ROOT
ATOM      1  C   GLU d   1      39.766  95.349  21.553  0.00  0.00     0.241 C 
ATOM      2  O   GLU d   1      39.606  96.459  21.053  0.00  0.00    -0.271 OA
ATOM      3  N   VAL d   1      39.580  94.218  20.875  0.00  0.00    -0.346 N 
ATOM      4  H14 VAL d   1      39.713  93.344  21.343  0.00  0.00     0.163 HD
ENDROOT
BRANCH   1   5
ATOM      5  CA  GLU d   1      40.192  95.228  23.013  0.00  0.00     0.090 C 
ATOM      6  H9  GLU d   1      40.925  94.414  23.117  0.00  0.00     0.087 H 
BRANCH   5   7
ATOM      7  N   GLU d   1      40.804  96.490  23.415  0.00  0.00    -0.346 N 
ATOM      8  C   ASP d   1      41.871  96.574  24.207  0.00  0.00     0.241 C 
ATOM      9  O   ASP d   1      42.460  95.590  24.673  0.00  0.00    -0.271 OA
ATOM     10  H8  GLU d   1      40.399  97.340  23.077  0.00  0.00     0.163 HD
BRANCH   8  11
ATOM     11  CA  ASP d   1      42.363  97.990  24.504  0.00  0.00     0.098 C 
ATOM     12  H5  ASP d   1      41.542  98.683  24.267  0.00  0.00     0.088 H 
BRANCH  11  13
ATOM     13  N   ASP d   1      42.716  98.189  25.901  0.00  0.00    -0.348 N 
ATOM     14  C   ACE d   1      41.798  98.389  26.838  0.00  0.00     0.214 C 
ATOM     15  O   ACE d   1      40.588  98.401  26.607  0.00  0.00    -0.274 OA
ATOM     16  H4  ASP d   1      43.681  98.175  26.163  0.00  0.00     0.163 HD
BRANCH  14  17
ATOM     17  CH3 ACE d   1      42.308  98.596  28.251  0.00  0.00    -0.003 C 
ATOM     18  H1  ACE d   1      43.407  98.552  28.254  0.00  0.00     0.040 H 
ATOM     19  H2  ACE d   1      41.907  97.807  28.905  0.00  0.00     0.040 H 
ATOM     20  H3  ACE d   1      41.980  99.579  28.619  0.00  0.00     0.040 H 
ENDBRANCH  14  17
ENDBRANCH  11  13
BRANCH  11  21
ATOM     21  CB  ASP d   1      43.554  98.338  23.606  0.00  0.00     0.043 C 
ATOM     22  H6  ASP d   1      43.310  98.052  22.572  0.00  0.00     0.052 H 
ATOM     23  H7  ASP d   1      44.430  97.767  23.947  0.00  0.00     0.052 H 
BRANCH  21  24
ATOM     24  CG  ASP d   1      43.900  99.822  23.632  0.00  0.00     0.175 C 
ATOM     25  OD1 ASP d   1      43.017 100.655  23.926  0.00  0.00    -0.648 OA
ATOM     26  OD2 ASP d   1      45.061 100.161  23.341  0.00  0.00    -0.648 OA
ENDBRANCH  21  24
ENDBRANCH  11  21
ENDBRANCH   8  11
ENDBRANCH   5   7
BRANCH   5  27
ATOM     27  CB  GLU d   1      38.978  94.925  23.892  0.00  0.00    -0.029 C 
ATOM     28  H10 GLU d   1      38.482  94.025  23.501  0.00  0.00     0.037 H 
ATOM     29  H11 GLU d   1      38.286  95.779  23.835  0.00  0.00     0.037 H 
BRANCH  27  30
ATOM     30  CG  GLU d   1      39.326  94.685  25.353  0.00  0.00     0.018 C 
ATOM     31  H12 GLU d   1      39.788  95.598  25.756  0.00  0.00     0.049 H 
ATOM     32  H13 GLU d   1      40.046  93.855  25.408  0.00  0.00     0.049 H 
BRANCH  30  33
ATOM     33  CD  GLU d   1      38.124  94.336  26.210  0.00  0.00     0.172 C 
ATOM     34  OE1 GLU d   1      37.211  93.630  25.732  0.00  0.00    -0.648 OA
ATOM     35  OE2 GLU d   1      38.100  94.758  27.381  0.00  0.00    -0.648 OA
ENDBRANCH  30  33
ENDBRANCH  27  30
ENDBRANCH   5  27
ENDBRANCH   1   5
BRANCH   3  36
ATOM     36  CA  VAL d   1      39.186  94.215  19.464  0.00  0.00     0.092 C 
ATOM     37  H15 VAL d   1      39.368  95.228  19.075  0.00  0.00     0.088 H 
BRANCH  36  38
ATOM     38  C   VAL d   1      37.706  93.893  19.235  0.00  0.00     0.241 C 
ATOM     39  O   VAL d   1      37.055  93.321  20.105  0.00  0.00    -0.271 OA
ATOM     40  N   ASJ d   1      37.193  94.263  18.061  0.00  0.00    -0.352 N 
ATOM     41  H23 ASJ d   1      37.798  94.716  17.406  0.00  0.00     0.163 HD
BRANCH  40  42
ATOM     42  CA  ASJ d   1      35.791  94.045  17.671  0.00  0.00     0.041 C 
ATOM     43  H24 ASJ d   1      35.286  93.500  18.482  0.00  0.00     0.076 H 
BRANCH  42  44
ATOM     44  C   ASJ d   1      35.673  93.243  16.387  0.00  0.00     0.036 C 
ATOM     45  H25 ASJ d   1      36.637  93.253  15.858  0.00  0.00     0.077 H 
ATOM     46  H26 ASJ d   1      34.898  93.689  15.746  0.00  0.00     0.077 H 
BRANCH  44  47
ATOM     47  O   ASJ d   1      35.314  91.890  16.702  0.00  0.00    -0.399 OA
ATOM     48  H27 ASJ d   1      35.240  91.388  15.899  0.00  0.00     0.209 HD
ENDBRANCH  44  47
ENDBRANCH  42  44
BRANCH  42  49
ATOM     49  CB  ASJ d   1      35.086  95.376  17.443  0.00  0.00     0.036 C 
ATOM     50  H28 ASJ d   1      34.346  95.249  16.639  0.00  0.00     0.052 H 
ATOM     51  H29 ASJ d   1      35.834  96.122  17.138  0.00  0.00     0.052 H 
BRANCH  49  52
ATOM     52  CG  ASJ d   1      34.385  95.875  18.660  0.00  0.00     0.174 C 
ATOM     53  OD1 ASJ d   1      34.067  95.060  19.550  0.00  0.00    -0.648 OA
ATOM     54  OD2 ASJ d   1      34.128  97.089  18.714  0.00  0.00    -0.648 OA
ENDBRANCH  49  52
ENDBRANCH  42  49
ENDBRANCH  40  42
ENDBRANCH  36  38
BRANCH  36  55
ATOM     55  CB  VAL d   1      40.046  93.232  18.656  0.00  0.00    -0.033 C 
ATOM     56  H16 VAL d   1      39.635  93.160  17.638  0.00  0.00     0.042 H 
BRANCH  55  57
ATOM     57  CG1 VAL d   1      41.481  93.732  18.565  0.00  0.00    -0.071 C 
ATOM     58  H17 VAL d   1      42.082  93.017  17.984  0.00  0.00     0.028 H 
ATOM     59  H18 VAL d   1      41.901  93.827  19.577  0.00  0.00     0.028 H 
ATOM     60  H19 VAL d   1      41.497  94.713  18.068  0.00  0.00     0.028 H 
ENDBRANCH  55  57
BRANCH  55  61
ATOM     61  CG2 VAL d   1      40.003  91.852  19.295  0.00  0.00    -0.071 C 
ATOM     62  H20 VAL d   1      38.960  91.507  19.353  0.00  0.00     0.028 H 
ATOM     63  H21 VAL d   1      40.429  91.903  20.308  0.00  0.00     0.028 H 
ATOM     64  H22 VAL d   1      40.589  91.148  18.686  0.00  0.00     0.028 H 
ENDBRANCH  55  61
ENDBRANCH  36  55
ENDBRANCH   3  36
TORSDOF 20
