REMARK  19 active torsions:
REMARK  status: ('A' for Active; 'I' for Inactive)
REMARK    1  A    between atoms: C10_14  and  O6_16 
REMARK    2  A    between atoms: C11_17  and  C43_56 
REMARK    3  A    between atoms: C16_22  and  O7_23 
REMARK    4  A    between atoms: O7_23  and  C50_63 
REMARK    5  A    between atoms: C17_24  and  C44_57 
REMARK    6  A    between atoms: C23_30  and  C45_58 
REMARK    7  A    between atoms: C25_32  and  C46_59 
REMARK    8  A    between atoms: C27_35  and  O9_36 
REMARK    9  A    between atoms: O9_36  and  C51_64 
REMARK   10  A    between atoms: C28_37  and  O10_38 
REMARK   11  A    between atoms: C29_39  and  C47_60 
REMARK   12  A    between atoms: C31_41  and  C48_61 
REMARK   13  A    between atoms: C34_45  and  C35_46 
REMARK   14  A    between atoms: C35_46  and  C49_62 
REMARK   15  A    between atoms: C35_46  and  C36_47 
REMARK   16  A    between atoms: C36_47  and  C37_48 
REMARK   17  A    between atoms: C39_50  and  O12_51 
REMARK   18  A    between atoms: O12_51  and  C52_65 
REMARK   19  A    between atoms: C40_52  and  O13_53 
ROOT
ATOM      1  C1  RAP d   1      15.659  25.813  26.197  0.00  0.00     0.282 C 
ATOM      2  O1  RAP d   1      16.724  24.883  26.437  0.00  0.00    -0.314 OA
ATOM      3  O2  RAP d   1      14.512  25.396  26.120  0.00  0.00    -0.263 OA
ATOM      4  C2  RAP d   1      15.870  27.302  26.040  0.00  0.00     0.099 C 
ATOM      5  C3  RAP d   1      15.248  27.764  24.738  0.00  0.00    -0.037 C 
ATOM      6  C4  RAP d   1      16.078  27.444  23.506  0.00  0.00    -0.061 C 
ATOM      7  C5  RAP d   1      17.526  27.905  23.714  0.00  0.00    -0.050 C 
ATOM      8  C6  RAP d   1      18.092  27.277  24.983  0.00  0.00    -0.001 C 
ATOM      9  N7  RAP d   1      17.261  27.767  26.083  0.00  0.00    -0.331 N 
ATOM     10  C8  RAP d   1      17.779  28.308  27.208  0.00  0.00     0.296 C 
ATOM     11  O3  RAP d   1      17.048  28.580  28.173  0.00  0.00    -0.264 OA
ATOM     12  C9  RAP d   1      19.108  28.752  27.287  0.00  0.00     0.278 C 
ATOM     13  O4  RAP d   1      19.383  29.804  26.701  0.00  0.00    -0.281 OA
ATOM     14  C10 RAP d   1      20.225  27.919  27.944  0.00  0.00     0.238 C 
ATOM     15  O5  RAP d   1      20.701  27.177  26.834  0.00  0.00    -0.343 OA
ATOM     16  C11 RAP d   1      19.708  27.030  29.078  0.00  0.00     0.005 C 
ATOM     17  C12 RAP d   1      20.639  25.868  29.328  0.00  0.00    -0.054 C 
ATOM     18  C13 RAP d   1      21.051  25.143  28.044  0.00  0.00    -0.040 C 
ATOM     19  C14 RAP d   1      21.581  26.093  26.971  0.00  0.00     0.045 C 
ATOM     20  C15 RAP d   1      21.654  25.391  25.626  0.00  0.00    -0.013 C 
ATOM     21  C16 RAP d   1      22.831  24.414  25.505  0.00  0.00     0.061 C 
ATOM     22  C17 RAP d   1      22.660  23.420  24.365  0.00  0.00    -0.055 C 
ATOM     23  C18 RAP d   1      22.375  22.163  24.660  0.00  0.00    -0.079 C 
ATOM     24  C19 RAP d   1      22.140  21.095  23.679  0.00  0.00    -0.083 C 
ATOM     25  C20 RAP d   1      21.868  19.856  24.078  0.00  0.00    -0.083 C 
ATOM     26  C21 RAP d   1      21.524  18.864  23.058  0.00  0.00    -0.086 C 
ATOM     27  C22 RAP d   1      21.181  17.633  23.373  0.00  0.00    -0.099 C 
ATOM     28  C23 RAP d   1      20.716  16.574  22.374  0.00  0.00    -0.041 C 
ATOM     29  C24 RAP d   1      19.287  16.211  22.715  0.00  0.00    -0.050 C 
ATOM     30  C25 RAP d   1      18.266  17.320  22.738  0.00  0.00     0.004 C 
ATOM     31  C26 RAP d   1      16.995  16.781  23.380  0.00  0.00     0.162 C 
ATOM     32  O8  RAP d   1      16.207  16.093  22.732  0.00  0.00    -0.295 OA
ATOM     33  C27 RAP d   1      16.755  17.076  24.858  0.00  0.00     0.123 C 
ATOM     34  C28 RAP d   1      16.328  18.526  25.192  0.00  0.00     0.088 C 
ATOM     35  C29 RAP d   1      17.421  19.600  25.015  0.00  0.00    -0.056 C 
ATOM     36  C30 RAP d   1      17.378  20.506  24.027  0.00  0.00    -0.088 C 
ATOM     37  C31 RAP d   1      18.352  21.652  23.817  0.00  0.00     0.017 C 
ATOM     38  C32 RAP d   1      17.839  22.933  24.501  0.00  0.00     0.136 C 
ATOM     39  O11 RAP d   1      17.422  23.910  23.872  0.00  0.00    -0.297 OA
ATOM     40  C33 RAP d   1      17.862  22.986  26.015  0.00  0.00     0.016 C 
ATOM     41  C34 RAP d   1      16.579  23.518  26.602  0.00  0.00     0.057 C 
ATOM     42  H1  RAP d   1      15.340  27.790  26.871  0.00  0.00     0.088 H 
ATOM     43  H2  RAP d   1      15.111  28.854  24.788  0.00  0.00     0.036 H 
ATOM     44  H3  RAP d   1      14.268  27.276  24.631  0.00  0.00     0.036 H 
ATOM     45  H4  RAP d   1      15.652  27.963  22.635  0.00  0.00     0.033 H 
ATOM     46  H5  RAP d   1      16.063  26.358  23.329  0.00  0.00     0.033 H 
ATOM     47  H6  RAP d   1      17.550  29.001  23.807  0.00  0.00     0.035 H 
ATOM     48  H7  RAP d   1      18.135  27.596  22.851  0.00  0.00     0.035 H 
ATOM     49  H8  RAP d   1      18.038  26.180  24.923  0.00  0.00     0.064 H 
ATOM     50  H9  RAP d   1      19.138  27.585  25.128  0.00  0.00     0.064 H 
ATOM     51  H11 RAP d   1      18.735  26.627  28.760  0.00  0.00     0.048 H 
ATOM     52  H12 RAP d   1      20.133  25.149  29.989  0.00  0.00     0.034 H 
ATOM     53  H13 RAP d   1      21.546  26.246  29.823  0.00  0.00     0.034 H 
ATOM     54  H14 RAP d   1      21.838  24.415  28.289  0.00  0.00     0.036 H 
ATOM     55  H15 RAP d   1      20.174  24.614  27.643  0.00  0.00     0.036 H 
ATOM     56  H16 RAP d   1      22.580  26.452  27.260  0.00  0.00     0.083 H 
ATOM     57  H17 RAP d   1      20.720  24.830  25.476  0.00  0.00     0.041 H 
ATOM     58  H18 RAP d   1      21.754  26.154  24.840  0.00  0.00     0.041 H 
ATOM     59  H19 RAP d   1      22.950  23.858  26.447  0.00  0.00     0.090 H 
ATOM     60  H20 RAP d   1      22.309  21.898  25.714  0.00  0.00     0.083 H 
ATOM     61  H21 RAP d   1      22.189  21.320  22.615  0.00  0.00     0.083 H 
ATOM     62  H22 RAP d   1      21.900  19.587  25.133  0.00  0.00     0.083 H 
ATOM     63  H23 RAP d   1      21.553  19.153  22.008  0.00  0.00     0.083 H 
ATOM     64  H24 RAP d   1      21.232  17.348  24.423  0.00  0.00     0.077 H 
ATOM     65  H25 RAP d   1      20.800  16.957  21.346  0.00  0.00     0.045 H 
ATOM     66  H26 RAP d   1      18.951  15.471  21.974  0.00  0.00     0.035 H 
ATOM     67  H27 RAP d   1      19.295  15.752  23.714  0.00  0.00     0.035 H 
ATOM     68  H28 RAP d   1      18.657  18.148  23.347  0.00  0.00     0.051 H 
ATOM     69  H29 RAP d   1      17.656  16.814  25.433  0.00  0.00     0.100 H 
ATOM     70  H30 RAP d   1      16.011  18.554  26.245  0.00  0.00     0.094 H 
ATOM     71  H32 RAP d   1      16.567  20.411  23.306  0.00  0.00     0.078 H 
ATOM     72  H33 RAP d   1      19.329  21.383  24.244  0.00  0.00     0.057 H 
ATOM     73  H34 RAP d   1      18.029  21.969  26.399  0.00  0.00     0.048 H 
ATOM     74  H35 RAP d   1      18.690  23.638  26.331  0.00  0.00     0.048 H 
ATOM     75  H36 RAP d   1      15.716  23.120  26.047  0.00  0.00     0.085 H 
ENDROOT
BRANCH  41  76
ATOM     76  C35 RAP d   1      16.365  23.288  28.112  0.00  0.00    -0.031 C 
ATOM     77  H37 RAP d   1      15.616  24.016  28.457  0.00  0.00     0.043 H 
BRANCH  76  78
ATOM     78  C49 RAP d   1      17.638  23.487  28.904  0.00  0.00    -0.070 C 
ATOM     79  H68 RAP d   1      18.039  24.492  28.707  0.00  0.00     0.028 H 
ATOM     80  H69 RAP d   1      18.379  22.731  28.604  0.00  0.00     0.028 H 
ATOM     81  H70 RAP d   1      17.422  23.383  29.977  0.00  0.00     0.028 H 
ENDBRANCH  76  78
BRANCH  76  82
ATOM     82  C36 RAP d   1      15.867  21.895  28.426  0.00  0.00    -0.056 C 
ATOM     83  H38 RAP d   1      16.155  21.696  29.469  0.00  0.00     0.034 H 
ATOM     84  H39 RAP d   1      16.418  21.217  27.758  0.00  0.00     0.034 H 
BRANCH  82  85
ATOM     85  C37 RAP d   1      14.412  21.504  28.312  0.00  0.00    -0.051 C 
ATOM     86  C42 RAP d   1      13.535  22.038  29.458  0.00  0.00    -0.059 C 
ATOM     87  C41 RAP d   1      12.055  21.632  29.321  0.00  0.00    -0.038 C 
ATOM     88  H48 RAP d   1      13.598  23.136  29.466  0.00  0.00     0.033 H 
ATOM     89  H49 RAP d   1      13.921  21.642  30.409  0.00  0.00     0.033 H 
ATOM     90  C40 RAP d   1      11.832  20.128  29.043  0.00  0.00     0.060 C 
ATOM     91  H46 RAP d   1      11.539  21.890  30.258  0.00  0.00     0.036 H 
ATOM     92  H47 RAP d   1      11.616  22.205  28.491  0.00  0.00     0.036 H 
ATOM     93  C39 RAP d   1      12.830  19.543  28.034  0.00  0.00     0.063 C 
ATOM     94  H44 RAP d   1      11.895  19.583  29.997  0.00  0.00     0.086 H 
ATOM     95  C38 RAP d   1      14.274  19.986  28.269  0.00  0.00    -0.035 C 
ATOM     96  H43 RAP d   1      12.536  19.844  27.018  0.00  0.00     0.087 H 
ATOM     97  H41 RAP d   1      14.620  19.572  29.227  0.00  0.00     0.037 H 
ATOM     98  H42 RAP d   1      14.901  19.596  27.453  0.00  0.00     0.037 H 
ATOM     99  H40 RAP d   1      14.028  21.920  27.369  0.00  0.00     0.040 H 
BRANCH  90 100
ATOM    100  O13 RAP d   1      10.571  19.900  28.418  0.00  0.00    -0.393 OA
ATOM    101  H45 RAP d   1      10.539  20.369  27.593  0.00  0.00     0.210 HD
ENDBRANCH  90 100
BRANCH  93 102
ATOM    102  O12 RAP d   1      12.732  18.179  28.168  0.00  0.00    -0.388 OA
BRANCH 102 103
ATOM    103  C52 RAP d   1      12.625  17.526  26.949  0.00  0.00     0.005 C 
ATOM    104  H77 RAP d   1      12.550  16.442  27.119  0.00  0.00     0.066 H 
ATOM    105  H78 RAP d   1      13.515  17.741  26.339  0.00  0.00     0.066 H 
ATOM    106  H79 RAP d   1      11.726  17.878  26.422  0.00  0.00     0.066 H 
ENDBRANCH 102 103
ENDBRANCH  93 102
ENDBRANCH  82  85
ENDBRANCH  76  82
ENDBRANCH  41  76
BRANCH  37 107
ATOM    107  C48 RAP d   1      18.499  21.890  22.326  0.00  0.00    -0.063 C 
ATOM    108  H65 RAP d   1      19.202  22.718  22.154  0.00  0.00     0.028 H 
ATOM    109  H66 RAP d   1      17.519  22.146  21.897  0.00  0.00     0.028 H 
ATOM    110  H67 RAP d   1      18.882  20.978  21.845  0.00  0.00     0.028 H 
ENDBRANCH  37 107
BRANCH  35 111
ATOM    111  C47 RAP d   1      18.538  19.512  26.050  0.00  0.00    -0.052 C 
ATOM    112  H62 RAP d   1      19.276  20.305  25.861  0.00  0.00     0.033 H 
ATOM    113  H63 RAP d   1      19.028  18.530  25.978  0.00  0.00     0.033 H 
ATOM    114  H64 RAP d   1      18.115  19.637  27.058  0.00  0.00     0.033 H 
ENDBRANCH  35 111
BRANCH  34 115
ATOM    115  O10 RAP d   1      15.206  18.811  24.360  0.00  0.00    -0.388 OA
ATOM    116  H31 RAP d   1      14.847  19.659  24.594  0.00  0.00     0.210 HD
ENDBRANCH  34 115
BRANCH  14 117
ATOM    117  O6  RAP d   1      21.221  28.727  28.555  0.00  0.00    -0.359 OA
ATOM    118  H10 RAP d   1      21.557  29.349  27.920  0.00  0.00     0.213 HD
ENDBRANCH  14 117
BRANCH  33 119
ATOM    119  O9  RAP d   1      15.670  16.305  25.230  0.00  0.00    -0.380 OA
BRANCH 119 120
ATOM    120  C51 RAP d   1      16.068  15.351  26.125  0.00  0.00     0.005 C 
ATOM    121  H74 RAP d   1      15.202  14.740  26.419  0.00  0.00     0.066 H 
ATOM    122  H75 RAP d   1      16.492  15.838  27.016  0.00  0.00     0.066 H 
ATOM    123  H76 RAP d   1      16.830  14.708  25.661  0.00  0.00     0.066 H 
ENDBRANCH 119 120
ENDBRANCH  33 119
BRANCH  16 124
ATOM    124  C43 RAP d   1      19.492  27.787  30.388  0.00  0.00    -0.068 C 
ATOM    125  H50 RAP d   1      18.814  28.636  30.214  0.00  0.00     0.028 H 
ATOM    126  H51 RAP d   1      20.458  28.160  30.760  0.00  0.00     0.028 H 
ATOM    127  H52 RAP d   1      19.048  27.111  31.134  0.00  0.00     0.028 H 
ENDBRANCH  16 124
BRANCH  30 128
ATOM    128  C46 RAP d   1      17.960  17.853  21.337  0.00  0.00    -0.066 C 
ATOM    129  H59 RAP d   1      17.213  18.657  21.406  0.00  0.00     0.028 H 
ATOM    130  H60 RAP d   1      17.565  17.038  20.713  0.00  0.00     0.028 H 
ATOM    131  H61 RAP d   1      18.882  18.247  20.885  0.00  0.00     0.028 H 
ENDBRANCH  30 128
BRANCH  21 132
ATOM    132  O7  RAP d   1      23.934  25.205  25.272  0.00  0.00    -0.386 OA
BRANCH 132 133
ATOM    133  C50 RAP d   1      25.148  24.741  25.722  0.00  0.00     0.005 C 
ATOM    134  H71 RAP d   1      25.934  25.468  25.470  0.00  0.00     0.066 H 
ATOM    135  H72 RAP d   1      25.372  23.777  25.243  0.00  0.00     0.066 H 
ATOM    136  H73 RAP d   1      25.108  24.608  26.813  0.00  0.00     0.066 H 
ENDBRANCH 132 133
ENDBRANCH  21 132
BRANCH  28 137
ATOM    137  C45 RAP d   1      21.492  15.295  22.532  0.00  0.00    -0.070 C 
ATOM    138  H56 RAP d   1      22.551  15.478  22.299  0.00  0.00     0.028 H 
ATOM    139  H57 RAP d   1      21.091  14.536  21.844  0.00  0.00     0.028 H 
ATOM    140  H58 RAP d   1      21.401  14.936  23.568  0.00  0.00     0.028 H 
ENDBRANCH  28 137
BRANCH  22 141
ATOM    141  C44 RAP d   1      22.849  23.951  22.937  0.00  0.00    -0.052 C 
ATOM    142  H53 RAP d   1      22.698  23.132  22.218  0.00  0.00     0.033 H 
ATOM    143  H54 RAP d   1      23.867  24.352  22.827  0.00  0.00     0.033 H 
ATOM    144  H55 RAP d   1      22.117  24.749  22.743  0.00  0.00     0.033 H 
ENDBRANCH  22 141
TORSDOF 19
