REMARK WARNING: 32 MAX_TORS EXCEEDED!!!
REMARK  50 active torsions:
REMARK  status: ('A' for Active; 'I' for Inactive)
REMARK    1  A    between atoms: N_1  and  CA_2 
REMARK    2  A    between atoms: CA_2  and  C_3 
REMARK    3  A    between atoms: CA_2  and  CB_5 
REMARK       I    between atoms: C_3  and  N_10 
REMARK    4  A    between atoms: CB_5  and  CG_6 
REMARK    5  A    between atoms: CG_6  and  CD_7 
REMARK    6  A    between atoms: CD_7  and  CE_8 
REMARK    7  A    between atoms: CE_8  and  NZ_9 
REMARK    8  A    between atoms: N_10  and  CA_11 
REMARK    9  A    between atoms: CA_11  and  C_12 
REMARK   10  A    between atoms: CA_11  and  CB_14 
REMARK       I    between atoms: C_12  and  N_16 
REMARK   11  A    between atoms: CB_14  and  SG_15 
REMARK   12  A    between atoms: N_16  and  CA_17 
REMARK   13  A    between atoms: CA_17  and  C_18 
REMARK   14  A    between atoms: CA_17  and  CB_20 
REMARK       I    between atoms: C_18  and  N_24 
REMARK   15  A    between atoms: CB_20  and  CG1_21 
REMARK   16  A    between atoms: CB_20  and  CG2_22 
REMARK   17  A    between atoms: CG1_21  and  CD1_23 
REMARK   18  A    between atoms: N_24  and  CA_25 
REMARK   19  A    between atoms: CA_25  and  C_26 
REMARK   20  A    between atoms: CA_25  and  CB_28 
REMARK       I    between atoms: C_26  and  N_32 
REMARK   21  A    between atoms: CB_28  and  CG_29 
REMARK   22  A    between atoms: CG_29  and  CD1_30 
REMARK   23  A    between atoms: CG_29  and  CD2_31 
REMARK   24  A    between atoms: N_32  and  CA_33 
REMARK   25  A    between atoms: CA_33  and  C_34 
REMARK   26  A    between atoms: CA_33  and  CB_36 
REMARK       I    between atoms: C_34  and  N_38 
REMARK   27  A    between atoms: CB_36  and  SG_37 
REMARK   28  A    between atoms: N_38  and  CA_39 
REMARK   29  A    between atoms: CA_39  and  C_40 
REMARK   30  A    between atoms: CA_39  and  CB_42 
REMARK       I    between atoms: C_40  and  N_49 
REMARK   31  A    between atoms: CB_42  and  CG_43 
REMARK   32  A    between atoms: CG_43  and  CD_44 
REMARK   33  A    between atoms: CD_44  and  NE_45 
REMARK       I    between atoms: NE_45  and  CZ_46 
REMARK       I    between atoms: CZ_46  and  NH1_47 
REMARK   34  A    between atoms: N_49  and  CA_50 
REMARK   35  A    between atoms: CA_50  and  C_51 
REMARK   36  A    between atoms: CA_50  and  CB_53 
REMARK       I    between atoms: C_51  and  N_57 
REMARK   37  A    between atoms: CB_53  and  CG_54 
REMARK   38  A    between atoms: CG_54  and  CD1_55 
REMARK   39  A    between atoms: CG_54  and  CD2_56 
REMARK   40  A    between atoms: N_57  and  CA_58 
REMARK   41  A    between atoms: CA_58  and  C_59 
REMARK   42  A    between atoms: CA_58  and  CB_61 
REMARK       I    between atoms: C_59  and  N_65 
REMARK   43  A    between atoms: CB_61  and  CG_62 
REMARK   44  A    between atoms: CG_62  and  CD1_63 
REMARK   45  A    between atoms: CG_62  and  CD2_64 
REMARK   46  A    between atoms: N_65  and  CA_66 
REMARK   47  A    between atoms: CA_66  and  C_67 
REMARK   48  A    between atoms: CA_66  and  CB_69 
REMARK   49  A    between atoms: CB_69  and  CG_70 
REMARK   50  A    between atoms: CG_70  and  CD_71 
REMARK       I    between atoms: CD_71  and  NE2_73 
ROOT
ATOM      1  CA  CYS d   1       7.773  33.098  -1.843  0.00  0.00     0.097 C 
ATOM      2  H44 CYS d   1       7.990  32.231  -1.202  0.00  0.00     0.088 H 
ENDROOT
BRANCH   1   3
ATOM      3  N   CYS d   1       8.493  34.259  -1.317  0.00  0.00    -0.345 N 
ATOM      4  C   LEU d   1       9.815  34.220  -1.232  0.00  0.00     0.241 C 
ATOM      5  O   LEU d   1      10.462  33.214  -1.575  0.00  0.00    -0.271 OA
ATOM      6  H43 CYS d   1       7.992  35.074  -1.025  0.00  0.00     0.163 HD
BRANCH   4   7
ATOM      7  CA  LEU d   1      10.516  35.450  -0.678  0.00  0.00     0.089 C 
ATOM      8  H33 LEU d   1      11.581  35.347  -0.932  0.00  0.00     0.087 H 
BRANCH   7   9
ATOM      9  N   LEU d   1      10.075  36.711  -1.242  0.00  0.00    -0.346 N 
ATOM     10  C   ILE d   1      10.266  36.987  -2.521  0.00  0.00     0.241 C 
ATOM     11  O   ILE d   1      10.785  36.196  -3.304  0.00  0.00    -0.271 OA
ATOM     12  H32 LEU d   1       9.620  37.381  -0.656  0.00  0.00     0.163 HD
BRANCH  10  13
ATOM     13  CA  ILE d   1       9.770  38.347  -2.980  0.00  0.00     0.092 C 
ATOM     14  H22 ILE d   1       9.629  38.298  -4.070  0.00  0.00     0.088 H 
BRANCH  13  15
ATOM     15  N   ILE d   1       8.492  38.720  -2.384  0.00  0.00    -0.346 N 
ATOM     16  C   DCY d   1       7.441  37.908  -2.334  0.00  0.00     0.241 C 
ATOM     17  O   DCY d   1       7.446  36.768  -2.777  0.00  0.00    -0.271 OA
ATOM     18  H21 ILE d   1       8.402  39.636  -1.992  0.00  0.00     0.163 HD
BRANCH  16  19
ATOM     19  CA  DCY d   1       6.187  38.525  -1.730  0.00  0.00     0.097 C 
ATOM     20  H17 DCY d   1       5.575  38.849  -2.584  0.00  0.00     0.088 H 
BRANCH  19  21
ATOM     21  N   DCY d   1       6.428  39.711  -0.926  0.00  0.00    -0.345 N 
ATOM     22  C   LYS d   1       6.167  40.923  -1.404  0.00  0.00     0.249 C 
ATOM     23  O   LYS d   1       5.752  41.120  -2.542  0.00  0.00    -0.271 OA
ATOM     24  H16 DCY d   1       6.795  39.614  -0.001  0.00  0.00     0.163 HD
BRANCH  22  25
ATOM     25  CA  LYS d   1       6.407  42.083  -0.468  0.00  0.00     0.176 C 
ATOM     26  H4  LYS d   1       6.701  41.709   0.524  0.00  0.00     0.099 H 
BRANCH  25  27
ATOM     27  N   LYS d   1       7.497  42.944  -1.000  0.00  0.00    -0.067 N 
ATOM     28  H1  LYS d   1       7.652  43.716  -0.371  0.00  0.00     0.275 HD
ATOM     29  H2  LYS d   1       7.234  43.297  -1.907  0.00  0.00     0.275 HD
ATOM     30  H3  LYS d   1       8.343  42.402  -1.083  0.00  0.00     0.275 HD
ENDBRANCH  25  27
BRANCH  25  31
ATOM     31  CB  LYS d   1       5.083  42.840  -0.356  0.00  0.00    -0.030 C 
ATOM     32  H5  LYS d   1       4.323  42.135   0.013  0.00  0.00     0.036 H 
ATOM     33  H6  LYS d   1       4.806  43.184  -1.364  0.00  0.00     0.036 H 
BRANCH  31  34
ATOM     34  CG  LYS d   1       5.079  44.040   0.557  0.00  0.00    -0.061 C 
ATOM     35  H7  LYS d   1       5.812  44.776   0.196  0.00  0.00     0.033 H 
ATOM     36  H8  LYS d   1       5.347  43.725   1.576  0.00  0.00     0.033 H 
BRANCH  34  37
ATOM     37  CD  LYS d   1       3.697  44.670   0.571  0.00  0.00    -0.043 C 
ATOM     38  H9  LYS d   1       2.975  43.936   0.957  0.00  0.00     0.035 H 
ATOM     39  H10 LYS d   1       3.422  44.949  -0.457  0.00  0.00     0.035 H 
BRANCH  37  40
ATOM     40  CE  LYS d   1       3.653  45.911   1.446  0.00  0.00     0.080 C 
ATOM     41  H11 LYS d   1       4.353  46.658   1.044  0.00  0.00     0.075 H 
ATOM     42  H12 LYS d   1       3.954  45.639   2.468  0.00  0.00     0.075 H 
BRANCH  40  43
ATOM     43  NZ  LYS d   1       2.281  46.502   1.484  0.00  0.00    -0.079 N 
ATOM     44  H13 LYS d   1       2.284  47.322   2.071  0.00  0.00     0.274 HD
ATOM     45  H14 LYS d   1       1.634  45.825   1.856  0.00  0.00     0.274 HD
ATOM     46  H15 LYS d   1       2.000  46.758   0.551  0.00  0.00     0.274 HD
ENDBRANCH  40  43
ENDBRANCH  37  40
ENDBRANCH  34  37
ENDBRANCH  31  34
ENDBRANCH  25  31
ENDBRANCH  22  25
ENDBRANCH  19  21
BRANCH  19  47
ATOM     47  CB  DCY d   1       5.332  37.521  -0.933  0.00  0.00     0.001 C 
ATOM     48  H18 DCY d   1       4.782  36.902  -1.657  0.00  0.00     0.052 H 
ATOM     49  H19 DCY d   1       4.618  38.098  -0.327  0.00  0.00     0.052 H 
BRANCH  47  50
ATOM     50  SG  DCY d   1       6.223  36.402   0.184  0.00  0.00    -0.180 SA
ATOM     51  H20 DCY d   1       5.564  35.796   0.647  0.00  0.00     0.101 HD
ENDBRANCH  47  50
ENDBRANCH  19  47
ENDBRANCH  16  19
ENDBRANCH  13  15
BRANCH  13  52
ATOM     52  CB  ILE d   1      10.827  39.437  -2.678  0.00  0.00    -0.030 C 
ATOM     53  H23 ILE d   1      11.037  39.439  -1.598  0.00  0.00     0.043 H 
BRANCH  52  54
ATOM     54  CG1 ILE d   1      10.262  40.813  -3.070  0.00  0.00    -0.063 C 
ATOM     55  H24 ILE d   1       9.316  40.968  -2.531  0.00  0.00     0.033 H 
ATOM     56  H25 ILE d   1      10.072  40.816  -4.153  0.00  0.00     0.033 H 
BRANCH  54  57
ATOM     57  CD1 ILE d   1      11.195  41.961  -2.743  0.00  0.00    -0.076 C 
ATOM     58  H29 ILE d   1      10.730  42.910  -3.049  0.00  0.00     0.027 H 
ATOM     59  H30 ILE d   1      12.144  41.827  -3.283  0.00  0.00     0.027 H 
ATOM     60  H31 ILE d   1      11.388  41.979  -1.660  0.00  0.00     0.027 H 
ENDBRANCH  54  57
ENDBRANCH  52  54
BRANCH  52  61
ATOM     61  CG2 ILE d   1      12.118  39.135  -3.416  0.00  0.00    -0.071 C 
ATOM     62  H26 ILE d   1      12.492  38.146  -3.111  0.00  0.00     0.028 H 
ATOM     63  H27 ILE d   1      12.868  39.902  -3.172  0.00  0.00     0.028 H 
ATOM     64  H28 ILE d   1      11.930  39.138  -4.500  0.00  0.00     0.028 H 
ENDBRANCH  52  61
ENDBRANCH  13  52
ENDBRANCH  10  13
ENDBRANCH   7   9
BRANCH   7  65
ATOM     65  CB  LEU d   1      10.406  35.479   0.849  0.00  0.00    -0.035 C 
ATOM     66  H34 LEU d   1       9.341  35.587   1.103  0.00  0.00     0.037 H 
ATOM     67  H35 LEU d   1      10.959  36.361   1.204  0.00  0.00     0.037 H 
BRANCH  65  68
ATOM     68  CG  LEU d   1      10.941  34.260   1.612  0.00  0.00    -0.059 C 
ATOM     69  H36 LEU d   1      10.467  33.355   1.204  0.00  0.00     0.038 H 
BRANCH  68  70
ATOM     70  CD1 LEU d   1      12.443  34.150   1.446  0.00  0.00    -0.073 C 
ATOM     71  H37 LEU d   1      12.810  33.272   1.998  0.00  0.00     0.028 H 
ATOM     72  H38 LEU d   1      12.923  35.058   1.840  0.00  0.00     0.028 H 
ATOM     73  H39 LEU d   1      12.687  34.040   0.379  0.00  0.00     0.028 H 
ENDBRANCH  68  70
BRANCH  68  74
ATOM     74  CD2 LEU d   1      10.619  34.360   3.090  0.00  0.00    -0.073 C 
ATOM     75  H40 LEU d   1       9.530  34.440   3.223  0.00  0.00     0.028 H 
ATOM     76  H41 LEU d   1      11.107  35.251   3.512  0.00  0.00     0.028 H 
ATOM     77  H42 LEU d   1      10.986  33.461   3.607  0.00  0.00     0.028 H 
ENDBRANCH  68  74
ENDBRANCH  65  68
ENDBRANCH   7  65
ENDBRANCH   4   7
ENDBRANCH   1   3
BRANCH   1  78
ATOM     78  C   CYS d   1       8.185  32.771  -3.285  0.00  0.00     0.241 C 
ATOM     79  O   CYS d   1       8.055  31.631  -3.722  0.00  0.00    -0.271 OA
ATOM     80  N   ARG d   1       8.661  33.776  -4.019  0.00  0.00    -0.346 N 
ATOM     81  H48 ARG d   1       8.750  34.681  -3.604  0.00  0.00     0.163 HD
BRANCH  80  82
ATOM     82  CA  ARG d   1       9.059  33.591  -5.421  0.00  0.00     0.089 C 
ATOM     83  H49 ARG d   1       8.359  32.885  -5.891  0.00  0.00     0.087 H 
BRANCH  82  84
ATOM     84  C   ARG d   1      10.444  33.001  -5.489  0.00  0.00     0.241 C 
ATOM     85  O   ARG d   1      10.681  32.071  -6.248  0.00  0.00    -0.271 OA
ATOM     86  N   LEU d   1      11.357  33.527  -4.685  0.00  0.00    -0.346 N 
ATOM     87  H61 LEU d   1      11.110  34.287  -4.084  0.00  0.00     0.163 HD
BRANCH  86  88
ATOM     88  CA  LEU d   1      12.720  33.006  -4.670  0.00  0.00     0.089 C 
ATOM     89  H62 LEU d   1      13.128  33.077  -5.689  0.00  0.00     0.087 H 
BRANCH  88  90
ATOM     90  C   LEU d   1      12.747  31.532  -4.248  0.00  0.00     0.241 C 
ATOM     91  O   LEU d   1      13.559  30.749  -4.739  0.00  0.00    -0.271 OA
ATOM     92  N   LEU d   1      11.846  31.153  -3.350  0.00  0.00    -0.346 N 
ATOM     93  H72 LEU d   1      11.204  31.826  -2.984  0.00  0.00     0.163 HD
BRANCH  92  94
ATOM     94  CA  LEU d   1      11.777  29.771  -2.888  0.00  0.00     0.089 C 
ATOM     95  H73 LEU d   1      12.799  29.391  -2.743  0.00  0.00     0.087 H 
BRANCH  94  96
ATOM     96  C   LEU d   1      11.074  28.914  -3.936  0.00  0.00     0.241 C 
ATOM     97  O   LEU d   1      11.101  27.683  -3.873  0.00  0.00    -0.271 OA
ATOM     98  N   GLN d   1      10.453  29.595  -4.897  0.00  0.00    -0.345 N 
ATOM     99  H83 GLN d   1      10.491  30.594  -4.877  0.00  0.00     0.163 HD
BRANCH  98 100
ATOM    100  CA  GLN d   1       9.722  28.948  -5.974  0.00  0.00     0.096 C 
ATOM    101  H84 GLN d   1       9.101  28.142  -5.555  0.00  0.00     0.089 H 
BRANCH 100 102
ATOM    102  C   GLN d   1      10.709  28.356  -6.954  0.00  0.00     0.196 C 
ATOM    103  O   GLN d   1      11.539  29.136  -7.503  0.00  0.00    -0.646 OA
ATOM    104  OXT GLN d   1      10.637  27.124  -7.132  0.00  0.00    -0.646 OA
ENDBRANCH 100 102
BRANCH 100 105
ATOM    105  CB  GLN d   1       8.808  29.963  -6.686  0.00  0.00    -0.029 C 
ATOM    106  H85 GLN d   1       9.444  30.767  -7.084  0.00  0.00     0.037 H 
ATOM    107  H86 GLN d   1       8.118  30.378  -5.937  0.00  0.00     0.037 H 
BRANCH 105 108
ATOM    108  CG  GLN d   1       7.968  29.414  -7.843  0.00  0.00     0.011 C 
ATOM    109  H87 GLN d   1       8.648  29.050  -8.627  0.00  0.00     0.047 H 
ATOM    110  H88 GLN d   1       7.349  30.230  -8.244  0.00  0.00     0.047 H 
BRANCH 108 111
ATOM    111  CD  GLN d   1       7.052  28.272  -7.429  0.00  0.00     0.215 C 
ATOM    112  OE1 GLN d   1       7.510  27.258  -6.899  0.00  0.00    -0.274 OA
ATOM    113  NE2 GLN d   1       5.756  28.429  -7.677  0.00  0.00    -0.370 N 
ATOM    114  H89 GLN d   1       5.108  27.710  -7.426  0.00  0.00     0.159 HD
ATOM    115  H90 GLN d   1       5.428  29.266  -8.115  0.00  0.00     0.159 HD
ENDBRANCH 108 111
ENDBRANCH 105 108
ENDBRANCH 100 105
ENDBRANCH  98 100
ENDBRANCH  94  96
BRANCH  94 116
ATOM    116  CB  LEU d   1      11.028  29.700  -1.552  0.00  0.00    -0.035 C 
ATOM    117  H74 LEU d   1      10.766  28.648  -1.364  0.00  0.00     0.037 H 
ATOM    118  H75 LEU d   1      10.108  30.296  -1.645  0.00  0.00     0.037 H 
BRANCH 116 119
ATOM    119  CG  LEU d   1      11.806  30.217  -0.344  0.00  0.00    -0.059 C 
ATOM    120  H76 LEU d   1      12.149  31.241  -0.552  0.00  0.00     0.038 H 
BRANCH 119 121
ATOM    121  CD1 LEU d   1      10.920  30.229   0.873  0.00  0.00    -0.073 C 
ATOM    122  H77 LEU d   1      11.489  30.603   1.737  0.00  0.00     0.028 H 
ATOM    123  H78 LEU d   1      10.567  29.208   1.080  0.00  0.00     0.028 H 
ATOM    124  H79 LEU d   1      10.056  30.885   0.691  0.00  0.00     0.028 H 
ENDBRANCH 119 121
BRANCH 119 125
ATOM    125  CD2 LEU d   1      13.007  29.339  -0.075  0.00  0.00    -0.073 C 
ATOM    126  H80 LEU d   1      13.658  29.327  -0.962  0.00  0.00     0.028 H 
ATOM    127  H81 LEU d   1      12.671  28.316   0.147  0.00  0.00     0.028 H 
ATOM    128  H82 LEU d   1      13.566  29.736   0.785  0.00  0.00     0.028 H 
ENDBRANCH 119 125
ENDBRANCH 116 119
ENDBRANCH  94 116
ENDBRANCH  92  94
ENDBRANCH  88  90
BRANCH  88 129
ATOM    129  CB  LEU d   1      13.593  33.853  -3.741  0.00  0.00    -0.035 C 
ATOM    130  H63 LEU d   1      14.461  33.256  -3.424  0.00  0.00     0.037 H 
ATOM    131  H64 LEU d   1      13.002  34.139  -2.858  0.00  0.00     0.037 H 
BRANCH 129 132
ATOM    132  CG  LEU d   1      14.089  35.116  -4.435  0.00  0.00    -0.059 C 
ATOM    133  H65 LEU d   1      13.224  35.684  -4.808  0.00  0.00     0.038 H 
BRANCH 132 134
ATOM    134  CD1 LEU d   1      14.861  35.972  -3.475  0.00  0.00    -0.073 C 
ATOM    135  H66 LEU d   1      15.211  36.878  -3.991  0.00  0.00     0.028 H 
ATOM    136  H67 LEU d   1      15.726  35.409  -3.096  0.00  0.00     0.028 H 
ATOM    137  H68 LEU d   1      14.212  36.257  -2.634  0.00  0.00     0.028 H 
ENDBRANCH 132 134
BRANCH 132 138
ATOM    138  CD2 LEU d   1      14.977  34.738  -5.598  0.00  0.00    -0.073 C 
ATOM    139  H69 LEU d   1      14.411  34.110  -6.302  0.00  0.00     0.028 H 
ATOM    140  H70 LEU d   1      15.849  34.179  -5.227  0.00  0.00     0.028 H 
ATOM    141  H71 LEU d   1      15.317  35.650  -6.111  0.00  0.00     0.028 H 
ENDBRANCH 132 138
ENDBRANCH 129 132
ENDBRANCH  88 129
ENDBRANCH  86  88
ENDBRANCH  82  84
BRANCH  82 142
ATOM    142  CB  ARG d   1       8.983  34.917  -6.181  0.00  0.00    -0.036 C 
ATOM    143  H50 ARG d   1       8.844  34.708  -7.252  0.00  0.00     0.036 H 
ATOM    144  H51 ARG d   1       9.924  35.467  -6.034  0.00  0.00     0.036 H 
BRANCH 142 145
ATOM    145  CG  ARG d   1       7.841  35.765  -5.697  0.00  0.00    -0.048 C 
ATOM    146  H52 ARG d   1       8.245  36.523  -5.010  0.00  0.00     0.035 H 
ATOM    147  H53 ARG d   1       7.139  35.115  -5.154  0.00  0.00     0.035 H 
BRANCH 145 148
ATOM    148  CD  ARG d   1       7.084  36.470  -6.769  0.00  0.00     0.009 C 
ATOM    149  H54 ARG d   1       6.719  35.737  -7.503  0.00  0.00     0.064 H 
ATOM    150  H55 ARG d   1       7.744  37.193  -7.270  0.00  0.00     0.064 H 
BRANCH 148 151
ATOM    151  NE  ARG d   1       5.951  37.173  -6.177  0.00  0.00    -0.227 N 
ATOM    152  CZ  ARG d   1       5.065  37.854  -6.889  0.00  0.00     0.665 C 
ATOM    153  NH1 ARG d   1       5.196  37.912  -8.211  0.00  0.00    -0.235 N 
ATOM    154  NH2 ARG d   1       4.058  38.476  -6.294  0.00  0.00    -0.235 N 
ATOM    155  H57 ARG d   1       4.513  38.439  -8.774  0.00  0.00     0.174 HD
ATOM    156  H58 ARG d   1       5.981  37.430  -8.672  0.00  0.00     0.174 HD
ATOM    157  H59 ARG d   1       3.957  38.430  -5.270  0.00  0.00     0.174 HD
ATOM    158  H60 ARG d   1       3.376  39.005  -6.856  0.00  0.00     0.174 HD
ATOM    159  H56 ARG d   1       5.834  37.138  -5.154  0.00  0.00     0.177 HD
ENDBRANCH 148 151
ENDBRANCH 145 148
ENDBRANCH 142 145
ENDBRANCH  82 142
ENDBRANCH  80  82
ENDBRANCH   1  78
BRANCH   1 160
ATOM    160  CB  CYS d   1       6.281  33.369  -1.839  0.00  0.00     0.001 C 
ATOM    161  H45 CYS d   1       5.767  32.458  -2.180  0.00  0.00     0.052 H 
ATOM    162  H46 CYS d   1       6.081  34.189  -2.544  0.00  0.00     0.052 H 
BRANCH 160 163
ATOM    163  SG  CYS d   1       5.599  33.829  -0.239  0.00  0.00    -0.180 SA
ATOM    164  H47 CYS d   1       6.048  34.671   0.087  0.00  0.00     0.101 HD
ENDBRANCH 160 163
ENDBRANCH   1 160
TORSDOF 50
