REMARK WARNING: 32 MAX_TORS EXCEEDED!!!
REMARK  48 active torsions:
REMARK  status: ('A' for Active; 'I' for Inactive)
REMARK    1  A    between atoms: CA_2  and  N_1 
REMARK    2  A    between atoms: CA_2  and  CB_5 
REMARK    3  A    between atoms: C_3  and  CA_2 
REMARK       I    between atoms: N_9  and  C_3 
REMARK    4  A    between atoms: CB_5  and  CG_6 
REMARK    5  A    between atoms: CG_6  and  CD1_7 
REMARK    6  A    between atoms: CG_6  and  CD2_8 
REMARK    7  A    between atoms: CA_10  and  N_9 
REMARK    8  A    between atoms: CA_10  and  CB_13 
REMARK    9  A    between atoms: C_11  and  CA_10 
REMARK       I    between atoms: N_14  and  C_11 
REMARK   10  A    between atoms: CA_15  and  N_14 
REMARK   11  A    between atoms: CA_15  and  CB_18 
REMARK   12  A    between atoms: C_16  and  CA_15 
REMARK       I    between atoms: N_21  and  C_16 
REMARK   13  A    between atoms: CB_18  and  CG2_20 
REMARK   14  A    between atoms: CB_18  and  OG1_19 
REMARK   15  A    between atoms: CA_22  and  N_21 
REMARK   16  A    between atoms: CA_22  and  CB_25 
REMARK   17  A    between atoms: C_23  and  CA_22 
REMARK       I    between atoms: N_30  and  C_23 
REMARK   18  A    between atoms: CB_25  and  CG_26 
REMARK   19  A    between atoms: CG_26  and  CD_27 
REMARK   20  A    between atoms: CD_27  and  CE_28 
REMARK   21  A    between atoms: CE_28  and  NZ_29 
REMARK   22  A    between atoms: CA_31  and  N_30 
REMARK   23  A    between atoms: CA_31  and  CB_34 
REMARK   24  A    between atoms: C_32  and  CA_31 
REMARK       I    between atoms: N_35  and  C_32 
REMARK   25  A    between atoms: CA_36  and  N_35 
REMARK   26  A    between atoms: CA_36  and  CB_39 
REMARK   27  A    between atoms: C_37  and  CA_36 
REMARK       I    between atoms: N_40  and  C_37 
REMARK   28  A    between atoms: CA_41  and  N_40 
REMARK   29  A    between atoms: CA_41  and  CB_44 
REMARK   30  A    between atoms: C_42  and  CA_41 
REMARK       I    between atoms: N_51  and  C_42 
REMARK   31  A    between atoms: CB_44  and  CG_45 
REMARK   32  A    between atoms: CG_45  and  CD_46 
REMARK   33  A    between atoms: CD_46  and  NE_47 
REMARK       I    between atoms: NE_47  and  CZ_48 
REMARK       I    between atoms: CZ_48  and  NH1_49 
REMARK   34  A    between atoms: CA_52  and  N_51 
REMARK   35  A    between atoms: CA_52  and  CB_53 
REMARK   36  A    between atoms: C_58  and  CA_52 
REMARK   37  A    between atoms: CB_53  and  CG_54 
REMARK   38  A    between atoms: CG_54  and  CD_55 
REMARK   39  A    between atoms: CD_55  and  CE_56 
REMARK   40  A    between atoms: CE_56  and  NZ_57 
REMARK   41  A    between atoms: NZ_57  and  CM1_60 
REMARK   42  A    between atoms: NZ_57  and  CM2_61 
REMARK   43  A    between atoms: NZ_57  and  CM3_62 
REMARK       I    between atoms: C_58  and  N_63 
REMARK   44  A    between atoms: N_63  and  CA_64 
REMARK   45  A    between atoms: CA_64  and  CB_67 
REMARK   46  A    between atoms: CA_64  and  C_65 
REMARK   47  A    between atoms: C_65  and  O1_69 
REMARK   48  A    between atoms: CB_67  and  OG_68 
ROOT
ATOM      1  C   ALA d   1       3.853  35.847  24.888  0.00  0.00     0.240 C 
ATOM      2  O   ALA d   1       2.842  35.645  24.220  0.00  0.00    -0.271 OA
ATOM      3  N   ALA d   1       3.878  35.774  26.212  0.00  0.00    -0.346 N 
ATOM      4  H44 ALA d   1       4.744  35.934  26.686  0.00  0.00     0.163 HD
ENDROOT
BRANCH   3   5
ATOM      5  CA  ALA d   1       2.696  35.470  27.001  0.00  0.00     0.086 C 
ATOM      6  H45 ALA d   1       1.814  35.953  26.556  0.00  0.00     0.086 H 
BRANCH   5   7
ATOM      7  CB  ALA d   1       2.466  33.960  27.052  0.00  0.00    -0.049 C 
ATOM      8  H46 ALA d   1       1.569  33.746  27.652  0.00  0.00     0.030 H 
ATOM      9  H47 ALA d   1       3.339  33.471  27.510  0.00  0.00     0.030 H 
ATOM     10  H48 ALA d   1       2.325  33.576  26.031  0.00  0.00     0.030 H 
ENDBRANCH   5   7
BRANCH   5  11
ATOM     11  C   ALA d   1       2.943  36.033  28.398  0.00  0.00     0.240 C 
ATOM     12  O   ALA d   1       4.082  36.109  28.860  0.00  0.00    -0.271 OA
ATOM     13  N   ARG d   1       1.872  36.447  29.058  0.00  0.00    -0.346 N 
ATOM     14  H49 ARG d   1       0.974  36.368  28.626  0.00  0.00     0.163 HD
BRANCH  13  15
ATOM     15  CA  ARG d   1       1.967  37.013  30.394  0.00  0.00     0.089 C 
ATOM     16  H50 ARG d   1       2.953  37.485  30.522  0.00  0.00     0.087 H 
BRANCH  15  17
ATOM     17  CB  ARG d   1       0.872  38.070  30.558  0.00  0.00    -0.036 C 
ATOM     18  H51 ARG d   1      -0.074  37.549  30.767  0.00  0.00     0.036 H 
ATOM     19  H52 ARG d   1       0.786  38.619  29.609  0.00  0.00     0.036 H 
BRANCH  17  20
ATOM     20  CG  ARG d   1       1.101  39.078  31.660  0.00  0.00    -0.048 C 
ATOM     21  H53 ARG d   1       2.044  39.611  31.470  0.00  0.00     0.035 H 
ATOM     22  H54 ARG d   1       1.165  38.550  32.623  0.00  0.00     0.035 H 
BRANCH  20  23
ATOM     23  CD  ARG d   1      -0.040  40.089  31.720  0.00  0.00     0.009 C 
ATOM     24  H55 ARG d   1       0.127  40.756  32.579  0.00  0.00     0.064 H 
ATOM     25  H56 ARG d   1      -0.985  39.544  31.857  0.00  0.00     0.064 H 
BRANCH  23  26
ATOM     26  NE  ARG d   1      -0.142  40.902  30.511  0.00  0.00    -0.227 N 
ATOM     27  CZ  ARG d   1       0.730  41.843  30.163  0.00  0.00     0.665 C 
ATOM     28  NH2 ARG d   1       0.546  42.543  29.052  0.00  0.00    -0.235 N 
ATOM     29  NH1 ARG d   1       1.781  42.093  30.933  0.00  0.00    -0.235 N 
ATOM     30  H60 ARG d   1      -0.269  42.352  28.452  0.00  0.00     0.174 HD
ATOM     31  H61 ARG d   1       1.218  43.278  28.789  0.00  0.00     0.174 HD
ATOM     32  H58 ARG d   1       2.456  42.822  30.662  0.00  0.00     0.174 HD
ATOM     33  H59 ARG d   1       1.922  41.558  31.802  0.00  0.00     0.174 HD
ATOM     34  H57 ARG d   1      -0.944  40.735  29.886  0.00  0.00     0.177 HD
ENDBRANCH  23  26
ENDBRANCH  20  23
ENDBRANCH  17  20
ENDBRANCH  15  17
BRANCH  15  35
ATOM     35  C   ARG d   1       1.797  35.914  31.446  0.00  0.00     0.241 C 
ATOM     36  O   ARG d   1       0.973  35.016  31.280  0.00  0.00    -0.271 OA
ATOM     37  N   M3L d   1       2.581  35.979  32.520  0.00  0.00    -0.346 N 
ATOM     38  H62 M3L d   1       3.254  36.715  32.596  0.00  0.00     0.163 HD
BRANCH  37  39
ATOM     39  CA  M3L d   1       2.471  34.988  33.590  0.00  0.00     0.089 C 
ATOM     40  H63 M3L d   1       1.861  34.143  33.237  0.00  0.00     0.087 H 
BRANCH  39  41
ATOM     41  CB  M3L d   1       3.850  34.467  34.002  0.00  0.00    -0.038 C 
ATOM     42  H64 M3L d   1       4.328  35.215  34.651  0.00  0.00     0.036 H 
ATOM     43  H65 M3L d   1       4.457  34.326  33.096  0.00  0.00     0.036 H 
BRANCH  41  44
ATOM     44  CG  M3L d   1       3.782  33.136  34.757  0.00  0.00    -0.061 C 
ATOM     45  H66 M3L d   1       3.459  32.355  34.053  0.00  0.00     0.033 H 
ATOM     46  H67 M3L d   1       3.041  33.233  35.564  0.00  0.00     0.033 H 
BRANCH  44  47
ATOM     47  CD  M3L d   1       5.113  32.707  35.375  0.00  0.00    -0.042 C 
ATOM     48  H68 M3L d   1       4.977  31.732  35.866  0.00  0.00     0.035 H 
ATOM     49  H69 M3L d   1       5.414  33.456  36.123  0.00  0.00     0.035 H 
BRANCH  47  50
ATOM     50  CE  M3L d   1       6.219  32.582  34.334  0.00  0.00     0.084 C 
ATOM     51  H70 M3L d   1       6.644  33.578  34.142  0.00  0.00     0.076 H 
ATOM     52  H71 M3L d   1       5.791  32.181  33.404  0.00  0.00     0.076 H 
BRANCH  50  53
ATOM     53  NZ  M3L d   1       7.317  31.662  34.806  0.00  0.00    -0.079 N 
BRANCH  53  54
ATOM     54  CM1 M3L d   1       8.121  31.206  33.640  0.00  0.00     0.067 C 
ATOM     55  H72 M3L d   1       8.921  30.535  33.986  0.00  0.00     0.068 H 
ATOM     56  H73 M3L d   1       8.565  32.078  33.137  0.00  0.00     0.068 H 
ATOM     57  H74 M3L d   1       7.471  30.668  32.934  0.00  0.00     0.068 H 
ENDBRANCH  53  54
BRANCH  53  58
ATOM     58  CM2 M3L d   1       6.919  30.404  35.495  0.00  0.00     0.067 C 
ATOM     59  H75 M3L d   1       6.314  30.647  36.381  0.00  0.00     0.068 H 
ATOM     60  H76 M3L d   1       7.820  29.855  35.806  0.00  0.00     0.068 H 
ATOM     61  H77 M3L d   1       6.329  29.780  34.807  0.00  0.00     0.068 H 
ENDBRANCH  53  58
BRANCH  53  62
ATOM     62  CM3 M3L d   1       8.230  32.404  35.727  0.00  0.00     0.067 C 
ATOM     63  H78 M3L d   1       8.547  33.344  35.251  0.00  0.00     0.068 H 
ATOM     64  H79 M3L d   1       9.114  31.786  35.943  0.00  0.00     0.068 H 
ATOM     65  H80 M3L d   1       7.701  32.629  36.665  0.00  0.00     0.068 H 
ENDBRANCH  53  62
ENDBRANCH  50  53
ENDBRANCH  47  50
ENDBRANCH  44  47
ENDBRANCH  41  44
ENDBRANCH  39  41
BRANCH  39  66
ATOM     66  C   M3L d   1       1.789  35.638  34.793  0.00  0.00     0.241 C 
ATOM     67  O   M3L d   1       2.353  36.526  35.431  0.00  0.00    -0.271 OA
ATOM     68  N   SER d   1       0.578  35.180  35.097  0.00  0.00    -0.343 N 
ATOM     69  H81 SER d   1       0.191  34.441  34.545  0.00  0.00     0.163 HD
BRANCH  68  70
ATOM     70  CA  SER d   1      -0.210  35.715  36.206  0.00  0.00     0.113 C 
ATOM     71  H82 SER d   1      -0.134  36.812  36.169  0.00  0.00     0.092 H 
BRANCH  70  72
ATOM     72  CB  SER d   1      -1.681  35.324  36.033  0.00  0.00     0.045 C 
ATOM     73  H83 SER d   1      -2.052  35.736  35.083  0.00  0.00     0.077 H 
ATOM     74  H84 SER d   1      -2.264  35.742  36.867  0.00  0.00     0.077 H 
BRANCH  72  75
ATOM     75  OG  SER d   1      -1.841  33.915  36.019  0.00  0.00    -0.398 OA
ATOM     76  H85 SER d   1      -2.761  33.703  35.911  0.00  0.00     0.209 HD
ENDBRANCH  72  75
ENDBRANCH  70  72
BRANCH  70  77
ATOM     77  C   SER d   1       0.277  35.262  37.583  0.00  0.00     0.165 C 
ATOM     78  O   SER d   1       1.298  34.587  37.706  0.00  0.00    -0.648 OA
BRANCH  77  79
ATOM     79  O1  SER d   1      -0.415  35.604  38.666  0.00  0.00    -0.775 OA
ATOM     80  H86 SER d   1       0.137  36.116  39.245  0.00  0.00     0.167 HD
ENDBRANCH  77  79
ENDBRANCH  70  77
ENDBRANCH  68  70
ENDBRANCH  39  66
ENDBRANCH  37  39
ENDBRANCH  15  35
ENDBRANCH  13  15
ENDBRANCH   5  11
ENDBRANCH   3   5
BRANCH   1  81
ATOM     81  CA  ALA d   1       5.182  36.223  24.234  0.00  0.00     0.086 C 
ATOM     82  H40 ALA d   1       5.985  35.855  24.890  0.00  0.00     0.086 H 
BRANCH  81  83
ATOM     83  N   ALA d   1       5.398  35.644  22.916  0.00  0.00    -0.346 N 
ATOM     84  C   LYS d   1       5.721  34.368  22.763  0.00  0.00     0.241 C 
ATOM     85  O   LYS d   1       5.814  33.594  23.709  0.00  0.00    -0.271 OA
ATOM     86  H39 ALA d   1       5.300  36.223  22.107  0.00  0.00     0.163 HD
BRANCH  84  87
ATOM     87  CA  LYS d   1       5.958  33.890  21.333  0.00  0.00     0.089 C 
ATOM     88  H27 LYS d   1       5.692  34.696  20.633  0.00  0.00     0.087 H 
BRANCH  87  89
ATOM     89  N   LYS d   1       7.364  33.545  21.157  0.00  0.00    -0.346 N 
ATOM     90  C   THR d   1       8.130  34.131  20.240  0.00  0.00     0.243 C 
ATOM     91  O   THR d   1       7.715  34.998  19.478  0.00  0.00    -0.271 OA
ATOM     92  H26 LYS d   1       7.766  32.844  21.746  0.00  0.00     0.163 HD
BRANCH  90  93
ATOM     93  CA  THR d   1       9.582  33.663  20.172  0.00  0.00     0.113 C 
ATOM     94  H20 THR d   1       9.691  32.737  20.756  0.00  0.00     0.091 H 
BRANCH  93  95
ATOM     95  N   THR d   1       9.953  33.392  18.790  0.00  0.00    -0.344 N 
ATOM     96  C   ALA d   1       9.387  32.413  18.093  0.00  0.00     0.240 C 
ATOM     97  O   ALA d   1       8.519  31.669  18.555  0.00  0.00    -0.271 OA
ATOM     98  H19 THR d   1      10.653  33.958  18.354  0.00  0.00     0.163 HD
BRANCH  96  99
ATOM     99  CA  ALA d   1       9.873  32.250  16.658  0.00  0.00     0.086 C 
ATOM    100  H15 ALA d   1       9.023  31.947  16.029  0.00  0.00     0.086 H 
BRANCH  99 101
ATOM    101  N   ALA d   1      10.401  33.515  16.156  0.00  0.00    -0.346 N 
ATOM    102  C   LEU d   1       9.609  34.435  15.613  0.00  0.00     0.248 C 
ATOM    103  O   LEU d   1       8.393  34.287  15.492  0.00  0.00    -0.271 OA
ATOM    104  H14 ALA d   1      11.383  33.694  16.222  0.00  0.00     0.163 HD
BRANCH 102 105
ATOM    105  CA  LEU d   1      10.286  35.713  15.132  0.00  0.00     0.176 C 
ATOM    106  H4  LEU d   1       9.563  36.539  15.201  0.00  0.00     0.099 H 
BRANCH 105 107
ATOM    107  N   LEU d   1      11.469  36.052  15.972  0.00  0.00    -0.066 N 
ATOM    108  H1  LEU d   1      11.893  36.900  15.629  0.00  0.00     0.275 HD
ATOM    109  H2  LEU d   1      12.139  35.300  15.928  0.00  0.00     0.275 HD
ATOM    110  H3  LEU d   1      11.176  36.186  16.927  0.00  0.00     0.275 HD
ENDBRANCH 105 107
BRANCH 105 111
ATOM    111  CB  LEU d   1      10.706  35.545  13.668  0.00  0.00    -0.028 C 
ATOM    112  H5  LEU d   1      10.997  36.536  13.291  0.00  0.00     0.037 H 
ATOM    113  H6  LEU d   1       9.829  35.184  13.111  0.00  0.00     0.037 H 
BRANCH 111 114
ATOM    114  CG  LEU d   1      11.865  34.582  13.379  0.00  0.00    -0.059 C 
ATOM    115  H7  LEU d   1      11.754  33.690  14.012  0.00  0.00     0.038 H 
BRANCH 114 116
ATOM    116  CD1 LEU d   1      11.830  34.153  11.921  0.00  0.00    -0.073 C 
ATOM    117  H8  LEU d   1      12.663  33.463  11.722  0.00  0.00     0.028 H 
ATOM    118  H9  LEU d   1      11.925  35.039  11.276  0.00  0.00     0.028 H 
ATOM    119  H10 LEU d   1      10.877  33.647  11.711  0.00  0.00     0.028 H 
ENDBRANCH 114 116
BRANCH 114 120
ATOM    120  CD2 LEU d   1      13.186  35.254  13.711  0.00  0.00    -0.073 C 
ATOM    121  H11 LEU d   1      13.188  35.555  14.769  0.00  0.00     0.028 H 
ATOM    122  H12 LEU d   1      13.315  36.143  13.076  0.00  0.00     0.028 H 
ATOM    123  H13 LEU d   1      14.011  34.550  13.528  0.00  0.00     0.028 H 
ENDBRANCH 114 120
ENDBRANCH 111 114
ENDBRANCH 105 111
ENDBRANCH 102 105
ENDBRANCH  99 101
BRANCH  99 124
ATOM    124  CB  ALA d   1      10.944  31.170  16.589  0.00  0.00    -0.049 C 
ATOM    125  H16 ALA d   1      10.534  30.223  16.970  0.00  0.00     0.030 H 
ATOM    126  H17 ALA d   1      11.807  31.469  17.203  0.00  0.00     0.030 H 
ATOM    127  H18 ALA d   1      11.265  31.038  15.545  0.00  0.00     0.030 H 
ENDBRANCH  99 124
ENDBRANCH  96  99
ENDBRANCH  93  95
BRANCH  93 128
ATOM    128  CB  THR d   1      10.485  34.747  20.780  0.00  0.00     0.060 C 
ATOM    129  H21 THR d   1      10.314  35.697  20.252  0.00  0.00     0.086 H 
BRANCH 128 130
ATOM    130  CG2 THR d   1      10.173  34.932  22.258  0.00  0.00    -0.050 C 
ATOM    131  H23 THR d   1      10.828  35.711  22.676  0.00  0.00     0.031 H 
ATOM    132  H24 THR d   1      10.344  33.985  22.790  0.00  0.00     0.031 H 
ATOM    133  H25 THR d   1       9.122  35.235  22.376  0.00  0.00     0.031 H 
ENDBRANCH 128 130
BRANCH 128 134
ATOM    134  OG1 THR d   1      11.857  34.361  20.635  0.00  0.00    -0.393 OA
ATOM    135  H22 THR d   1      12.056  34.244  19.713  0.00  0.00     0.210 HD
ENDBRANCH 128 134
ENDBRANCH  93 128
ENDBRANCH  90  93
ENDBRANCH  87  89
BRANCH  87 136
ATOM    136  CB  LYS d   1       5.091  32.668  21.047  0.00  0.00    -0.038 C 
ATOM    137  H28 LYS d   1       4.036  32.971  21.111  0.00  0.00     0.036 H 
ATOM    138  H29 LYS d   1       5.302  31.908  21.814  0.00  0.00     0.036 H 
BRANCH 136 139
ATOM    139  CG  LYS d   1       5.324  32.047  19.688  0.00  0.00    -0.061 C 
ATOM    140  H30 LYS d   1       6.403  31.888  19.544  0.00  0.00     0.033 H 
ATOM    141  H31 LYS d   1       4.946  32.727  18.910  0.00  0.00     0.033 H 
BRANCH 139 142
ATOM    142  CD  LYS d   1       4.606  30.717  19.577  0.00  0.00    -0.043 C 
ATOM    143  H32 LYS d   1       3.522  30.898  19.524  0.00  0.00     0.035 H 
ATOM    144  H33 LYS d   1       4.833  30.111  20.467  0.00  0.00     0.035 H 
BRANCH 142 145
ATOM    145  CE  LYS d   1       5.043  29.957  18.335  0.00  0.00     0.080 C 
ATOM    146  H34 LYS d   1       4.858  30.580  17.447  0.00  0.00     0.075 H 
ATOM    147  H35 LYS d   1       4.461  29.026  18.258  0.00  0.00     0.075 H 
BRANCH 145 148
ATOM    148  NZ  LYS d   1       6.499  29.621  18.403  0.00  0.00    -0.079 N 
ATOM    149  H36 LYS d   1       6.767  29.118  17.571  0.00  0.00     0.274 HD
ATOM    150  H37 LYS d   1       6.674  29.047  19.213  0.00  0.00     0.274 HD
ATOM    151  H38 LYS d   1       7.037  30.471  18.470  0.00  0.00     0.274 HD
ENDBRANCH 145 148
ENDBRANCH 142 145
ENDBRANCH 139 142
ENDBRANCH 136 139
ENDBRANCH  87 136
ENDBRANCH  84  87
ENDBRANCH  81  83
BRANCH  81 152
ATOM    152  CB  ALA d   1       5.292  37.744  24.142  0.00  0.00    -0.049 C 
ATOM    153  H41 ALA d   1       5.129  38.184  25.137  0.00  0.00     0.030 H 
ATOM    154  H42 ALA d   1       4.532  38.125  23.444  0.00  0.00     0.030 H 
ATOM    155  H43 ALA d   1       6.294  38.018  23.779  0.00  0.00     0.030 H 
ENDBRANCH  81 152
ENDBRANCH   1  81
TORSDOF 48
