REMARK  4 active torsions:
REMARK  status: ('A' for Active; 'I' for Inactive)
REMARK    1  A    between atoms: C1'_5  and  C6'_6 
REMARK    2  A    between atoms: C6'_6  and  C9_7 
REMARK    3  A    between atoms: C2_14  and  O11_15 
REMARK    4  A    between atoms: O11_15  and  C12_16 
ROOT
ATOM      1  C9  SU9 d   1       1.505  30.855   8.634  0.00  0.00     0.047 A 
ATOM      2  C8  SU9 d   1       1.620  31.983   7.753  0.00  0.00     0.257 A 
ATOM      3  O10 SU9 d   1       2.497  32.160   6.941  0.00  0.00    -0.267 OA
ATOM      4  N7  SU9 d   1       0.667  32.876   7.881  0.00  0.00    -0.322 N 
ATOM      5  C5  SU9 d   1      -0.154  32.389   8.888  0.00  0.00     0.046 A 
ATOM      6  C6  SU9 d   1      -1.350  32.957   9.455  0.00  0.00    -0.054 A 
ATOM      7  C1  SU9 d   1      -2.013  32.265  10.496  0.00  0.00    -0.049 A 
ATOM      8  C2  SU9 d   1      -1.560  31.062  10.995  0.00  0.00     0.069 A 
ATOM      9  C3  SU9 d   1      -0.242  30.402  10.391  0.00  0.00    -0.038 A 
ATOM     10  C4  SU9 d   1       0.326  31.169   9.371  0.00  0.00     0.009 A 
ATOM     11  H5  SU9 d   1       0.556  33.725   7.364  0.00  0.00     0.169 HD
ATOM     12  H6  SU9 d   1      -1.737  33.901   9.089  0.00  0.00     0.087 H 
ATOM     13  H7  SU9 d   1      -2.913  32.698  10.918  0.00  0.00     0.087 H 
ATOM     14  H11 SU9 d   1       0.170  29.460  10.734  0.00  0.00     0.089 H 
ENDROOT
BRANCH   1  15
ATOM     15  C6' SU9 d   1       2.311  29.690   8.850  0.00  0.00    -0.040 C 
ATOM     16  H4  SU9 d   1       2.051  29.003   9.654  0.00  0.00     0.088 H 
BRANCH  15  17
ATOM     17  C1' SU9 d   1       3.229  29.465   8.189  0.00  0.00     0.051 C 
ATOM     18  N5' SU9 d   1       3.901  30.318   7.215  0.00  0.00    -0.350 N 
ATOM     19  C4' SU9 d   1       5.056  29.693   6.641  0.00  0.00     0.064 C 
ATOM     20  H1  SU9 d   1       3.581  31.265   6.967  0.00  0.00     0.166 HD
ATOM     21  N3' SU9 d   1       5.170  28.299   7.269  0.00  0.00    -0.254 NA
ATOM     22  H2  SU9 d   1       5.726  30.126   5.899  0.00  0.00     0.143 H 
ATOM     23  C2' SU9 d   1       4.116  28.241   8.388  0.00  0.00     0.029 C 
ATOM     24  H3  SU9 d   1       4.023  27.482   9.163  0.00  0.00     0.118 H 
ENDBRANCH  15  17
ENDBRANCH   1  15
BRANCH   8  25
ATOM     25  O11 SU9 d   1      -2.150  30.434  11.936  0.00  0.00    -0.356 OA
BRANCH  25  26
ATOM     26  C12 SU9 d   1      -1.777  29.365  12.406  0.00  0.00     0.010 C 
ATOM     27  H8  SU9 d   1      -2.469  29.053  13.202  0.00  0.00     0.066 H 
ATOM     28  H9  SU9 d   1      -0.766  29.481  12.824  0.00  0.00     0.066 H 
ATOM     29  H10 SU9 d   1      -1.761  28.602  11.614  0.00  0.00     0.066 H 
ENDBRANCH  25  26
ENDBRANCH   8  25
TORSDOF 4
