REMARK  6 active torsions:
REMARK  status: ('A' for Active; 'I' for Inactive)
REMARK    1  A    between atoms: N_1  and  CA_2 
REMARK    2  A    between atoms: CA_2  and  C_3 
REMARK    3  A    between atoms: CA_2  and  CB_5 
REMARK    4  A    between atoms: CB_5  and  CG_6 
REMARK    5  A    between atoms: CG_6  and  SD_7 
REMARK    6  A    between atoms: SD_7  and  CE_8 
ROOT
ATOM      1  CB  MET d   1      11.297  11.644  20.399  0.00  0.00    -0.021 C 
ATOM      2  H5  MET d   1      11.022  12.706  20.478  0.00  0.00     0.037 H 
ATOM      3  H6  MET d   1      11.215  11.169  21.388  0.00  0.00     0.037 H 
ENDROOT
BRANCH   1   4
ATOM      4  CA  MET d   1      12.772  11.557  19.939  0.00  0.00     0.183 C 
ATOM      5  H4  MET d   1      12.859  12.017  18.944  0.00  0.00     0.101 H 
BRANCH   4   6
ATOM      6  N   MET d   1      13.201  10.156  19.851  0.00  0.00    -0.065 N 
ATOM      7  H1  MET d   1      12.603   9.661  19.207  0.00  0.00     0.275 HD
ATOM      8  H2  MET d   1      13.141   9.728  20.762  0.00  0.00     0.275 HD
ATOM      9  H3  MET d   1      14.153  10.116  19.523  0.00  0.00     0.275 HD
ENDBRANCH   4   6
BRANCH   4  10
ATOM     10  C   MET d   1      13.687  12.325  20.928  0.00  0.00     0.204 C 
ATOM     11  O   MET d   1      14.524  11.437  21.604  0.00  0.00    -0.646 OA
ATOM     12  OXT MET d   1      13.700  13.416  21.079  0.00  0.00    -0.646 OA
ENDBRANCH   4  10
ENDBRANCH   1   4
BRANCH   1  13
ATOM     13  CG  MET d   1      10.319  10.970  19.468  0.00  0.00    -0.021 C 
ATOM     14  H7  MET d   1      10.570   9.902  19.392  0.00  0.00     0.049 H 
ATOM     15  H8  MET d   1      10.388  11.435  18.473  0.00  0.00     0.049 H 
BRANCH  13  16
ATOM     16  SD  MET d   1       8.647  11.137  20.078  0.00  0.00    -0.173 SA
BRANCH  16  17
ATOM     17  CE  MET d   1       7.692  10.312  18.790  0.00  0.00    -0.035 C 
ATOM     18  H9  MET d   1       6.623  10.345  19.048  0.00  0.00     0.041 H 
ATOM     19  H10 MET d   1       8.017   9.264  18.706  0.00  0.00     0.041 H 
ATOM     20  H11 MET d   1       7.853  10.824  17.830  0.00  0.00     0.041 H 
ENDBRANCH  16  17
ENDBRANCH  13  16
ENDBRANCH   1  13
TORSDOF 6
