REMARK  18 active torsions:
REMARK  status: ('A' for Active; 'I' for Inactive)
REMARK    1  A    between atoms: C24_2  and  C8_4 
REMARK       I    between atoms: C8_4  and  N4_6 
REMARK    2  A    between atoms: N4_6  and  C2_7 
REMARK    3  A    between atoms: N4_6  and  C26_38 
REMARK    4  A    between atoms: C5_10  and  C7_13 
REMARK    5  A    between atoms: C7_13  and  C9_14 
REMARK    6  A    between atoms: C9_14  and  N1_15 
REMARK    7  A    between atoms: C9_14  and  C11_19 
REMARK       I    between atoms: N1_15  and  C10_16 
REMARK       I    between atoms: C11_19  and  N2_21 
REMARK    8  A    between atoms: N2_21  and  C12_22 
REMARK    9  A    between atoms: C12_22  and  C13_23 
REMARK   10  A    between atoms: C13_23  and  C15_24 
REMARK   11  A    between atoms: C15_24  and  C14_25 
REMARK   12  A    between atoms: C14_25  and  O1_26 
REMARK   13  A    between atoms: O1_26  and  C32_27 
REMARK   14  A    between atoms: C36_31  and  O13_32 
REMARK   15  A    between atoms: C37_33  and  C38_34 
REMARK   16  A    between atoms: C38_34  and  O12_36 
REMARK   17  A    between atoms: O12_36  and  C39_37 
REMARK   18  A    between atoms: C25_43  and  C31_44 
ROOT
ATOM      1  C9  418 d   1      31.368  31.580  17.425  0.00  0.00     0.096 C 
ATOM      2  H7  418 d   1      32.192  31.292  16.756  0.00  0.00     0.088 H 
ENDROOT
BRANCH   1   3
ATOM      3  C7  418 d   1      31.999  32.018  18.793  0.00  0.00    -0.014 C 
ATOM      4  H5  418 d   1      32.752  32.796  18.597  0.00  0.00     0.043 H 
ATOM      5  H6  418 d   1      31.202  32.431  19.429  0.00  0.00     0.043 H 
BRANCH   3   6
ATOM      6  C5  418 d   1      32.671  30.871  19.543  0.00  0.00    -0.056 A 
ATOM      7  C4  418 d   1      31.922  30.288  20.611  0.00  0.00    -0.075 A 
ATOM      8  C3  418 d   1      32.467  29.202  21.327  0.00  0.00    -0.056 A 
ATOM      9  H2  418 d   1      30.944  30.677  20.869  0.00  0.00     0.084 H 
ATOM     10  C2  418 d   1      33.783  28.680  20.985  0.00  0.00     0.043 A 
ATOM     11  H1  418 d   1      31.903  28.753  22.137  0.00  0.00     0.087 H 
ATOM     12  C1  418 d   1      34.548  29.274  19.906  0.00  0.00    -0.056 A 
ATOM     13  C6  418 d   1      33.982  30.382  19.179  0.00  0.00    -0.075 A 
ATOM     14  H4  418 d   1      35.529  28.891  19.651  0.00  0.00     0.087 H 
ATOM     15  H3  418 d   1      34.533  30.844  18.368  0.00  0.00     0.084 H 
BRANCH  10  16
ATOM     16  N4  418 d   1      34.261  27.577  21.732  0.00  0.00    -0.272 N 
ATOM     17  C8  418 d   1      34.680  27.765  23.076  0.00  0.00     0.329 C 
ATOM     18  O5  418 d   1      34.913  26.814  23.831  0.00  0.00    -0.260 OA
BRANCH  17  19
ATOM     19  C24 418 d   1      34.813  29.177  23.711  0.00  0.00     0.270 C 
ATOM     20  O6  418 d   1      35.733  29.891  23.400  0.00  0.00    -0.640 OA
ATOM     21  O7  418 d   1      33.970  29.580  24.514  0.00  0.00    -0.640 OA
ENDBRANCH  17  19
BRANCH  16  22
ATOM     22  C26 418 d   1      34.193  26.256  21.148  0.00  0.00     0.060 A 
ATOM     23  C27 418 d   1      32.920  25.884  20.545  0.00  0.00    -0.056 A 
ATOM     24  C28 418 d   1      32.727  24.612  19.932  0.00  0.00    -0.081 A 
ATOM     25  H25 418 d   1      32.099  26.592  20.563  0.00  0.00     0.087 H 
ATOM     26  C29 418 d   1      33.793  23.674  19.870  0.00  0.00    -0.082 A 
ATOM     27  H26 418 d   1      31.761  24.358  19.510  0.00  0.00     0.083 H 
ATOM     28  C30 418 d   1      35.057  23.986  20.438  0.00  0.00    -0.064 A 
ATOM     29  H27 418 d   1      33.641  22.716  19.387  0.00  0.00     0.083 H 
ATOM     30  C25 418 d   1      35.291  25.272  21.064  0.00  0.00     0.068 A 
ATOM     31  H28 418 d   1      35.856  23.254  20.403  0.00  0.00     0.085 H 
BRANCH  30  32
ATOM     32  C31 418 d   1      36.665  25.462  21.605  0.00  0.00     0.211 C 
ATOM     33  O9  418 d   1      37.190  24.576  22.248  0.00  0.00    -0.644 OA
ATOM     34  O10 418 d   1      37.315  26.490  21.440  0.00  0.00    -0.644 OA
ENDBRANCH  30  32
ENDBRANCH  16  22
ENDBRANCH  10  16
ENDBRANCH   3   6
ENDBRANCH   1   3
BRANCH   1  35
ATOM     35  N1  418 d   1      30.718  32.764  16.817  0.00  0.00    -0.322 N 
ATOM     36  C10 418 d   1      30.657  32.942  15.474  0.00  0.00     0.284 C 
ATOM     37  O4  418 d   1      31.104  32.188  14.611  0.00  0.00    -0.630 OA
ATOM     38  O23 418 d   1      29.948  34.227  15.084  0.00  0.00    -0.630 OA
ATOM     39  H8  418 d   1      30.311  33.454  17.416  0.00  0.00     0.166 HD
ENDBRANCH   1  35
BRANCH   1  40
ATOM     40  C11 418 d   1      30.482  30.323  17.577  0.00  0.00     0.240 C 
ATOM     41  O8  418 d   1      30.958  29.192  17.430  0.00  0.00    -0.271 OA
ATOM     42  N2  418 d   1      29.193  30.586  17.909  0.00  0.00    -0.359 N 
ATOM     43  H9  418 d   1      28.879  31.529  18.015  0.00  0.00     0.162 HD
BRANCH  42  44
ATOM     44  C12 418 d   1      28.265  29.464  18.110  0.00  0.00    -0.005 C 
ATOM     45  H10 418 d   1      28.842  28.568  18.383  0.00  0.00     0.064 H 
ATOM     46  H11 418 d   1      27.720  29.279  17.173  0.00  0.00     0.064 H 
BRANCH  44  47
ATOM     47  C13 418 d   1      27.251  29.764  19.226  0.00  0.00    -0.048 C 
ATOM     48  H12 418 d   1      26.815  28.812  19.564  0.00  0.00     0.035 H 
ATOM     49  H13 418 d   1      26.458  30.404  18.812  0.00  0.00     0.035 H 
BRANCH  47  50
ATOM     50  C15 418 d   1      27.867  30.480  20.448  0.00  0.00    -0.043 C 
ATOM     51  H14 418 d   1      28.307  31.430  20.112  0.00  0.00     0.036 H 
ATOM     52  H15 418 d   1      28.656  29.839  20.868  0.00  0.00     0.036 H 
BRANCH  50  53
ATOM     53  C14 418 d   1      26.844  30.779  21.550  0.00  0.00     0.026 C 
ATOM     54  H16 418 d   1      26.114  31.516  21.183  0.00  0.00     0.075 H 
ATOM     55  H17 418 d   1      27.363  31.185  22.431  0.00  0.00     0.075 H 
BRANCH  53  56
ATOM     56  O1  418 d   1      26.158  29.565  21.914  0.00  0.00    -0.350 OA
BRANCH  56  57
ATOM     57  C32 418 d   1      24.855  29.623  22.461  0.00  0.00     0.087 A 
ATOM     58  C33 418 d   1      24.159  30.860  22.697  0.00  0.00    -0.050 A 
ATOM     59  C34 418 d   1      22.851  30.845  23.248  0.00  0.00    -0.078 A 
ATOM     60  H18 418 d   1      24.634  31.804  22.454  0.00  0.00     0.087 H 
ATOM     61  C35 418 d   1      22.233  29.615  23.577  0.00  0.00    -0.050 A 
ATOM     62  H19 418 d   1      22.325  31.777  23.417  0.00  0.00     0.083 H 
ATOM     63  C36 418 d   1      22.888  28.380  23.359  0.00  0.00     0.084 A 
ATOM     64  H20 418 d   1      21.237  29.619  24.005  0.00  0.00     0.087 H 
ATOM     65  C37 418 d   1      24.214  28.380  22.809  0.00  0.00     0.105 A 
BRANCH  63  66
ATOM     66  O13 418 d   1      22.291  27.350  23.669  0.00  0.00    -0.360 OA
ATOM     67  H21 418 d   1      22.837  26.598  23.473  0.00  0.00     0.217 HD
ENDBRANCH  63  66
BRANCH  65  68
ATOM     68  C38 418 d   1      24.920  27.098  22.578  0.00  0.00     0.298 C 
ATOM     69  O11 418 d   1      25.169  26.330  23.480  0.00  0.00    -0.259 OA
BRANCH  68  70
ATOM     70  O12 418 d   1      25.245  26.900  21.292  0.00  0.00    -0.322 OA
BRANCH  70  71
ATOM     71  C39 418 d   1      25.956  25.696  20.836  0.00  0.00     0.013 C 
ATOM     72  H22 418 d   1      26.113  25.753  19.749  0.00  0.00     0.067 H 
ATOM     73  H23 418 d   1      25.357  24.804  21.074  0.00  0.00     0.067 H 
ATOM     74  H24 418 d   1      26.929  25.631  21.344  0.00  0.00     0.067 H 
ENDBRANCH  70  71
ENDBRANCH  68  70
ENDBRANCH  65  68
ENDBRANCH  56  57
ENDBRANCH  53  56
ENDBRANCH  50  53
ENDBRANCH  47  50
ENDBRANCH  44  47
ENDBRANCH  42  44
ENDBRANCH   1  40
TORSDOF 18
