REMARK  7 active torsions:
REMARK  status: ('A' for Active; 'I' for Inactive)
REMARK    1  A    between atoms: CAE_5  and  CAG_6 
REMARK    2  A    between atoms: CAG_6  and  CAH_7 
REMARK       I    between atoms: CAH_7  and  NAJ_9 
REMARK    3  A    between atoms: NAJ_9  and  CAK_10 
REMARK    4  A    between atoms: CAK_10  and  B_11 
REMARK    5  A    between atoms: CAK_10  and  CAL_14 
REMARK    6  A    between atoms: B_11  and  OAT_12 
REMARK    7  A    between atoms: B_11  and  OAO_13 
ROOT
ATOM      1  CAK SM3 d   1      26.274   5.826  15.007  0.00  0.00     0.071 C 
ATOM      2  H7  SM3 d   1      27.157   6.034  14.385  0.00  0.00     0.072 H 
ENDROOT
BRANCH   1   3
ATOM      3  NAJ SM3 d   1      25.364   4.968  14.236  0.00  0.00    -0.355 N 
ATOM      4  CAH SM3 d   1      24.963   5.204  12.944  0.00  0.00     0.222 C 
ATOM      5  OAI SM3 d   1      25.359   6.196  12.304  0.00  0.00    -0.273 OA
ATOM      6  H6  SM3 d   1      25.009   4.149  14.687  0.00  0.00     0.162 HD
BRANCH   4   7
ATOM      7  CAG SM3 d   1      24.002   4.194  12.317  0.00  0.00     0.039 C 
ATOM      8  H4  SM3 d   1      24.413   3.846  11.358  0.00  0.00     0.055 H 
ATOM      9  H5  SM3 d   1      23.879   3.337  12.996  0.00  0.00     0.055 H 
BRANCH   7  10
ATOM     10  CAE SM3 d   1      22.651   4.847  12.079  0.00  0.00    -0.009 A 
ATOM     11  CAF SM3 d   1      21.897   4.837  10.930  0.00  0.00    -0.069 A 
ATOM     12  CAC SM3 d   1      20.685   5.558  11.103  0.00  0.00    -0.076 A 
ATOM     13  H1  SM3 d   1      22.191   4.341  10.006  0.00  0.00     0.085 H 
ATOM     14  CAB SM3 d   1      20.541   6.079  12.338  0.00  0.00    -0.045 A 
ATOM     15  H2  SM3 d   1      19.944   5.678  10.314  0.00  0.00     0.084 H 
ATOM     16  SAD SM3 d   1      21.871   5.719  13.331  0.00  0.00    -0.106 SA
ATOM     17  H3  SM3 d   1      19.678   6.660  12.660  0.00  0.00     0.095 H 
ENDBRANCH   7  10
ENDBRANCH   4   7
ENDBRANCH   1   3
BRANCH   1  18
ATOM     18  B   SM3 d   1      26.795   5.061  16.339  0.00  0.00     0.519 B 
BRANCH  18  19
ATOM     19  OAT SM3 d   1      25.732   4.165  16.863  0.00  0.00    -0.436 OA
ATOM     20  H8  SM3 d   1      25.490   3.537  16.193  0.00  0.00     0.184 HD
ENDBRANCH  18  19
BRANCH  18  21
ATOM     21  OAO SM3 d   1      27.173   6.035  17.373  0.00  0.00    -0.436 OA
ATOM     22  H9  SM3 d   1      27.853   6.606  17.035  0.00  0.00     0.184 HD
ENDBRANCH  18  21
ENDBRANCH   1  18
BRANCH   1  23
ATOM     23  CAL SM3 d   1      25.585   7.160  15.288  0.00  0.00    -0.039 A 
ATOM     24  CAQ SM3 d   1      24.251   7.243  15.821  0.00  0.00    -0.075 A 
ATOM     25  CAR SM3 d   1      23.586   8.492  15.907  0.00  0.00    -0.082 A 
ATOM     26  H10 SM3 d   1      23.750   6.343  16.160  0.00  0.00     0.084 H 
ATOM     27  CAS SM3 d   1      24.260   9.664  15.490  0.00  0.00    -0.083 A 
ATOM     28  H14 SM3 d   1      22.573   8.549  16.288  0.00  0.00     0.083 H 
ATOM     29  CAN SM3 d   1      25.588   9.592  15.007  0.00  0.00    -0.082 A 
ATOM     30  H13 SM3 d   1      23.756  10.623  15.541  0.00  0.00     0.083 H 
ATOM     31  CAM SM3 d   1      26.263   8.355  14.913  0.00  0.00    -0.075 A 
ATOM     32  H12 SM3 d   1      26.095  10.501  14.704  0.00  0.00     0.083 H 
ATOM     33  H11 SM3 d   1      27.287   8.316  14.559  0.00  0.00     0.084 H 
ENDBRANCH   1  23
TORSDOF 7
