REMARK  8 active torsions:
REMARK  status: ('A' for Active; 'I' for Inactive)
REMARK    1  A    between atoms: CAE_5  and  CAG_6 
REMARK    2  A    between atoms: CAG_6  and  CAH_7 
REMARK       I    between atoms: CAH_7  and  NAJ_9 
REMARK    3  A    between atoms: NAJ_9  and  CAK_10 
REMARK    4  A    between atoms: CAK_10  and  B_11 
REMARK    5  A    between atoms: CAK_10  and  CAL_14 
REMARK    6  A    between atoms: B_11  and  OAT_12 
REMARK    7  A    between atoms: B_11  and  OAO_13 
REMARK    8  A    between atoms: CAR_19  and  CAU_20 
ROOT
ATOM      1  CAK SM2 d   1      26.493   5.771  14.971  0.00  0.00     0.071 C 
ATOM      2  H7  SM2 d   1      27.362   5.990  14.333  0.00  0.00     0.072 H 
ENDROOT
BRANCH   1   3
ATOM      3  NAJ SM2 d   1      25.562   4.921  14.214  0.00  0.00    -0.355 N 
ATOM      4  CAH SM2 d   1      25.205   5.134  12.900  0.00  0.00     0.222 C 
ATOM      5  OAI SM2 d   1      25.658   6.077  12.229  0.00  0.00    -0.273 OA
ATOM      6  H6  SM2 d   1      25.161   4.135  14.684  0.00  0.00     0.162 HD
BRANCH   4   7
ATOM      7  CAG SM2 d   1      24.184   4.163  12.291  0.00  0.00     0.039 C 
ATOM      8  H4  SM2 d   1      24.511   3.866  11.284  0.00  0.00     0.055 H 
ATOM      9  H5  SM2 d   1      24.098   3.269  12.927  0.00  0.00     0.055 H 
BRANCH   7  10
ATOM     10  CAE SM2 d   1      22.823   4.871  12.206  0.00  0.00    -0.009 A 
ATOM     11  CAF SM2 d   1      22.013   5.021  11.110  0.00  0.00    -0.069 A 
ATOM     12  CAC SM2 d   1      20.826   5.734  11.425  0.00  0.00    -0.076 A 
ATOM     13  H1  SM2 d   1      22.251   4.640  10.118  0.00  0.00     0.085 H 
ATOM     14  CAB SM2 d   1      20.750   6.105  12.716  0.00  0.00    -0.045 A 
ATOM     15  H2  SM2 d   1      20.052   5.959  10.693  0.00  0.00     0.084 H 
ATOM     16  SAD SM2 d   1      22.122   5.601  13.593  0.00  0.00    -0.106 SA
ATOM     17  H3  SM2 d   1      19.916   6.658  13.147  0.00  0.00     0.095 H 
ENDBRANCH   7  10
ENDBRANCH   4   7
ENDBRANCH   1   3
BRANCH   1  18
ATOM     18  B   SM2 d   1      27.048   5.017  16.299  0.00  0.00     0.519 B 
BRANCH  18  19
ATOM     19  OAT SM2 d   1      26.004   4.151  16.858  0.00  0.00    -0.436 OA
ATOM     20  H8  SM2 d   1      26.342   3.704  17.625  0.00  0.00     0.184 HD
ENDBRANCH  18  19
BRANCH  18  21
ATOM     21  OAO SM2 d   1      27.455   6.013  17.313  0.00  0.00    -0.436 OA
ATOM     22  H9  SM2 d   1      27.791   5.564  18.079  0.00  0.00     0.184 HD
ENDBRANCH  18  21
ENDBRANCH   1  18
BRANCH   1  23
ATOM     23  CAL SM2 d   1      25.776   7.093  15.268  0.00  0.00    -0.038 A 
ATOM     24  CAQ SM2 d   1      24.416   7.144  15.737  0.00  0.00    -0.059 A 
ATOM     25  CAR SM2 d   1      23.731   8.380  15.845  0.00  0.00     0.041 A 
ATOM     26  H10 SM2 d   1      23.910   6.226  16.011  0.00  0.00     0.086 H 
ATOM     27  CAS SM2 d   1      24.404   9.573  15.506  0.00  0.00    -0.066 A 
ATOM     28  CAN SM2 d   1      25.747   9.530  15.074  0.00  0.00    -0.081 A 
ATOM     29  H13 SM2 d   1      23.889  10.524  15.578  0.00  0.00     0.085 H 
ATOM     30  CAM SM2 d   1      26.443   8.303  14.960  0.00  0.00    -0.075 A 
ATOM     31  H12 SM2 d   1      26.255  10.454  14.825  0.00  0.00     0.083 H 
ATOM     32  H11 SM2 d   1      27.478   8.290  14.639  0.00  0.00     0.084 H 
BRANCH  25  33
ATOM     33  CAU SM2 d   1      22.298   8.403  16.318  0.00  0.00     0.209 C 
ATOM     34  OAW SM2 d   1      21.413   7.929  15.571  0.00  0.00    -0.644 OA
ATOM     35  OAV SM2 d   1      22.042   8.895  17.438  0.00  0.00    -0.644 OA
ENDBRANCH  25  33
ENDBRANCH   1  23
TORSDOF 8
