REMARK WARNING: 32 MAX_TORS EXCEEDED!!!
REMARK  34 active torsions:
REMARK  status: ('A' for Active; 'I' for Inactive)
REMARK    1  A    between atoms: O4_28  and  C1_10 
REMARK    2  A    between atoms: C2_11  and  O2_16 
REMARK    3  A    between atoms: C3_12  and  O3_17 
REMARK    4  A    between atoms: C4_13  and  N4_18 
REMARK    5  A    between atoms: C5_14  and  C6_15 
REMARK    6  A    between atoms: O4_37  and  C1_20 
REMARK    7  A    between atoms: C2_21  and  O2_26 
REMARK    8  A    between atoms: C3_22  and  O3_27 
REMARK    9  A    between atoms: C4_23  and  O4_28 
REMARK   10  A    between atoms: C5_24  and  C6_25 
REMARK   11  A    between atoms: C6_25  and  O6_30 
REMARK   12  A    between atoms: N4_50  and  C1_31 
REMARK   13  A    between atoms: C2_32  and  O2_33 
REMARK   14  A    between atoms: C3_34  and  O3_35 
REMARK   15  A    between atoms: C4_36  and  O4_37 
REMARK   16  A    between atoms: C5_38  and  C7_40 
REMARK   17  A    between atoms: C7_40  and  O7_41 
REMARK   18  A    between atoms: O4_60  and  C1_42 
REMARK   19  A    between atoms: C2_43  and  O2_48 
REMARK   20  A    between atoms: C3_44  and  O3_49 
REMARK   21  A    between atoms: C4_45  and  N4_50 
REMARK   22  A    between atoms: C5_46  and  C6_47 
REMARK   23  A    between atoms: O4_72  and  C1_52 
REMARK   24  A    between atoms: C2_53  and  O2_58 
REMARK   25  A    between atoms: C3_54  and  O3_59 
REMARK   26  A    between atoms: C4_55  and  O4_60 
REMARK   27  A    between atoms: C5_56  and  C6_57 
REMARK   28  A    between atoms: C6_57  and  O6_62 
REMARK   29  A    between atoms: C1_63  and  O1_69 
REMARK   30  A    between atoms: C2_64  and  O2_70 
REMARK   31  A    between atoms: C3_65  and  O3_71 
REMARK   32  A    between atoms: O4_72  and  C4_66 
REMARK   33  A    between atoms: C5_67  and  C6_68 
REMARK   34  A    between atoms: C6_68  and  O6_74 
ROOT
ATOM      1  N4  AGL d   1      36.968  21.108  54.670  0.00  0.00    -0.056 N 
ATOM      2  H44 AGL d   1      37.544  21.305  53.866  0.00  0.00     0.278 HD
ATOM      3  H45 AGL d   1      36.466  21.941  54.936  0.00  0.00     0.278 HD
ENDROOT
BRANCH   1   4
ATOM      4  C4  AGL d   1      37.855  20.748  55.778  0.00  0.00     0.154 C 
ATOM      5  C3  AGL d   1      39.212  20.256  55.251  0.00  0.00     0.094 C 
ATOM      6  C2  AGL d   1      40.168  19.947  56.411  0.00  0.00     0.110 C 
ATOM      7  H36 AGL d   1      39.654  21.043  54.623  0.00  0.00     0.090 H 
ATOM      8  C1  AGL d   1      40.283  21.106  57.399  0.00  0.00     0.159 C 
ATOM      9  H35 AGL d   1      39.788  19.067  56.950  0.00  0.00     0.094 H 
ATOM     10  O5  AGL d   1      39.005  21.611  57.759  0.00  0.00    -0.351 OA
ATOM     11  H34 AGL d   1      40.746  20.714  58.316  0.00  0.00     0.133 H 
ATOM     12  C5  AGL d   1      38.145  21.980  56.664  0.00  0.00     0.068 C 
ATOM     13  H38 AGL d   1      38.645  22.736  56.040  0.00  0.00     0.086 H 
ATOM     14  H37 AGL d   1      37.379  19.959  56.378  0.00  0.00     0.092 H 
BRANCH   5  15
ATOM     15  O3  AGL d   1      39.035  19.083  54.470  0.00  0.00    -0.391 OA
ATOM     16  H43 AGL d   1      38.444  19.269  53.750  0.00  0.00     0.210 HD
ENDBRANCH   5  15
BRANCH   6  17
ATOM     17  O2  AGL d   1      41.450  19.652  55.888  0.00  0.00    -0.388 OA
ATOM     18  H42 AGL d   1      41.793  20.418  55.443  0.00  0.00     0.210 HD
ENDBRANCH   6  17
BRANCH   8  19
ATOM     19  O4  GLC d   1      41.134  22.100  56.896  0.00  0.00    -0.348 OA
BRANCH  19  20
ATOM     20  C4  GLC d   1      42.258  22.467  57.733  0.00  0.00     0.096 C 
ATOM     21  C3  GLC d   1      43.541  22.423  56.918  0.00  0.00     0.092 C 
ATOM     22  C2  GLC d   1      44.727  22.875  57.767  0.00  0.00     0.110 C 
ATOM     23  H48 AGL d   1      43.442  23.095  56.053  0.00  0.00     0.091 H 
ATOM     24  C1  GLC d   1      44.452  24.208  58.451  0.00  0.00     0.159 C 
ATOM     25  H47 AGL d   1      44.921  22.114  58.538  0.00  0.00     0.094 H 
ATOM     26  O5  GLC d   1      43.202  24.200  59.118  0.00  0.00    -0.348 OA
ATOM     27  H46 AGL d   1      45.232  24.367  59.210  0.00  0.00     0.133 H 
ATOM     28  C5  GLC d   1      42.085  23.880  58.281  0.00  0.00     0.089 C 
ATOM     29  H50 AGL d   1      42.040  24.579  57.432  0.00  0.00     0.090 H 
ATOM     30  H49 AGL d   1      42.329  21.758  58.571  0.00  0.00     0.091 H 
BRANCH  21  31
ATOM     31  O3  GLC d   1      43.759  21.100  56.461  0.00  0.00    -0.390 OA
ATOM     32  H54 AGL d   1      43.019  20.823  55.933  0.00  0.00     0.210 HD
ENDBRANCH  21  31
BRANCH  22  33
ATOM     33  O2  GLC d   1      45.871  23.006  56.940  0.00  0.00    -0.388 OA
ATOM     34  H53 AGL d   1      46.618  23.253  57.472  0.00  0.00     0.210 HD
ENDBRANCH  22  33
BRANCH  24  35
ATOM     35  O4  BGC d   1      44.542  25.247  57.518  0.00  0.00    -0.348 OA
BRANCH  35  36
ATOM     36  C4  BGC d   1      45.427  26.321  57.897  0.00  0.00     0.096 C 
ATOM     37  C3  BGC d   1      46.498  26.510  56.843  0.00  0.00     0.092 C 
ATOM     38  C2  BGC d   1      47.393  27.639  57.316  0.00  0.00     0.110 C 
ATOM     39  H58 AGL d   1      46.035  26.772  55.880  0.00  0.00     0.091 H 
ATOM     40  C1  BGC d   1      46.563  28.923  57.441  0.00  0.00     0.156 C 
ATOM     41  H57 AGL d   1      47.803  27.384  58.304  0.00  0.00     0.094 H 
ATOM     42  O5  BGC d   1      45.555  28.697  58.434  0.00  0.00    -0.349 OA
ATOM     43  H56 AGL d   1      46.136  29.228  56.474  0.00  0.00     0.133 H 
ATOM     44  C5  BGC d   1      44.650  27.627  58.081  0.00  0.00     0.089 C 
ATOM     45  H60 AGL d   1      44.131  27.870  57.142  0.00  0.00     0.090 H 
ATOM     46  H59 AGL d   1      45.909  26.059  58.851  0.00  0.00     0.091 H 
BRANCH  37  47
ATOM     47  O3  BGC d   1      47.266  25.324  56.690  0.00  0.00    -0.390 OA
ATOM     48  H65 AGL d   1      46.702  24.619  56.394  0.00  0.00     0.210 HD
ENDBRANCH  37  47
BRANCH  38  49
ATOM     49  O2  BGC d   1      48.466  27.810  56.409  0.00  0.00    -0.388 OA
ATOM     50  H64 AGL d   1      48.962  27.002  56.351  0.00  0.00     0.210 HD
ENDBRANCH  38  49
BRANCH  40  51
ATOM     51  O1  BGC d   1      47.384  29.901  57.990  0.00  0.00    -0.369 OA
ATOM     52  H63 AGL d   1      47.755  29.581  58.804  0.00  0.00     0.212 HD
ENDBRANCH  40  51
BRANCH  44  53
ATOM     53  C6  BGC d   1      43.640  27.517  59.207  0.00  0.00     0.043 C 
ATOM     54  H61 AGL d   1      42.781  26.920  58.866  0.00  0.00     0.078 H 
ATOM     55  H62 AGL d   1      43.298  28.525  59.486  0.00  0.00     0.078 H 
BRANCH  53  56
ATOM     56  O6  BGC d   1      44.223  26.890  60.342  0.00  0.00    -0.398 OA
ATOM     57  H66 AGL d   1      44.517  26.018  60.105  0.00  0.00     0.209 HD
ENDBRANCH  53  56
ENDBRANCH  44  53
ENDBRANCH  35  36
ENDBRANCH  24  35
BRANCH  28  58
ATOM     58  C6  GLC d   1      40.848  24.061  59.132  0.00  0.00     0.043 C 
ATOM     59  H51 AGL d   1      39.976  23.663  58.592  0.00  0.00     0.078 H 
ATOM     60  H52 AGL d   1      40.699  25.133  59.331  0.00  0.00     0.078 H 
BRANCH  58  61
ATOM     61  O6  GLC d   1      40.988  23.372  60.365  0.00  0.00    -0.398 OA
ATOM     62  H55 AGL d   1      41.739  23.715  60.835  0.00  0.00     0.209 HD
ENDBRANCH  58  61
ENDBRANCH  28  58
ENDBRANCH  19  20
ENDBRANCH   8  19
BRANCH  12  63
ATOM     63  C6  AGL d   1      36.909  22.606  57.295  0.00  0.00    -0.050 C 
ATOM     64  H39 AGL d   1      37.207  23.471  57.905  0.00  0.00     0.031 H 
ATOM     65  H40 AGL d   1      36.407  21.864  57.933  0.00  0.00     0.031 H 
ATOM     66  H41 AGL d   1      36.220  22.935  56.503  0.00  0.00     0.031 H 
ENDBRANCH  12  63
ENDBRANCH   1   4
BRANCH   1  67
ATOM     67  C1  HMC d   1      35.977  20.093  54.275  0.00  0.00     0.146 C 
ATOM     68  C6  HMC d   1      35.903  18.884  55.190  0.00  0.00    -0.064 C 
ATOM     69  C5  HMC d   1      34.869  18.775  56.049  0.00  0.00    -0.027 C 
ATOM     70  H30 AGL d   1      36.674  18.116  55.153  0.00  0.00     0.080 H 
ATOM     71  C4  HMC d   1      33.792  19.886  56.102  0.00  0.00     0.092 C 
ATOM     72  C3  HMC d   1      33.972  21.178  55.203  0.00  0.00     0.091 C 
ATOM     73  H29 AGL d   1      32.848  19.421  55.781  0.00  0.00     0.095 H 
ATOM     74  C2  HMC d   1      34.658  20.791  53.876  0.00  0.00     0.093 C 
ATOM     75  H27 AGL d   1      34.617  21.890  55.739  0.00  0.00     0.091 H 
ATOM     76  H25 AGL d   1      34.020  20.073  53.340  0.00  0.00     0.090 H 
ATOM     77  H24 AGL d   1      36.359  19.674  53.332  0.00  0.00     0.095 H 
BRANCH  69  78
ATOM     78  C7  HMC d   1      34.757  17.563  56.969  0.00  0.00     0.039 C 
ATOM     79  H31 AGL d   1      34.366  17.871  57.950  0.00  0.00     0.081 H 
ATOM     80  H32 AGL d   1      35.745  17.097  57.098  0.00  0.00     0.081 H 
BRANCH  78  81
ATOM     81  O7  HMC d   1      33.875  16.655  56.367  0.00  0.00    -0.397 OA
ATOM     82  H33 AGL d   1      33.786  15.888  56.920  0.00  0.00     0.209 HD
ENDBRANCH  78  81
ENDBRANCH  69  78
BRANCH  71  83
ATOM     83  O4  HMC d   1      33.663  20.274  57.441  0.00  0.00    -0.346 OA
BRANCH  83  84
ATOM     84  C1  GLC d   1      32.398  20.664  57.924  0.00  0.00     0.159 C 
ATOM     85  O5  GLC d   1      31.629  19.568  58.412  0.00  0.00    -0.348 OA
ATOM     86  C5  GLC d   1      32.060  19.034  59.686  0.00  0.00     0.089 C 
ATOM     87  C4  GLC d   1      31.936  20.106  60.753  0.00  0.00     0.096 C 
ATOM     88  H18 AGL d   1      33.119  18.743  59.617  0.00  0.00     0.090 H 
ATOM     89  C3  GLC d   1      32.904  21.234  60.378  0.00  0.00     0.092 C 
ATOM     90  H17 AGL d   1      30.907  20.496  60.768  0.00  0.00     0.091 H 
ATOM     91  C2  GLC d   1      32.543  21.777  58.987  0.00  0.00     0.110 C 
ATOM     92  H16 AGL d   1      33.929  20.836  60.357  0.00  0.00     0.091 H 
ATOM     93  H15 AGL d   1      31.582  22.307  59.063  0.00  0.00     0.094 H 
ATOM     94  H14 AGL d   1      31.844  21.091  57.075  0.00  0.00     0.133 H 
BRANCH  86  95
ATOM     95  C6  GLC d   1      31.240  17.789  59.971  0.00  0.00     0.043 C 
ATOM     96  H19 AGL d   1      31.668  17.270  60.841  0.00  0.00     0.078 H 
ATOM     97  H20 AGL d   1      31.279  17.127  59.094  0.00  0.00     0.078 H 
BRANCH  95  98
ATOM     98  O6  GLC d   1      29.887  18.110  60.246  0.00  0.00    -0.398 OA
ATOM     99  H23 AGL d   1      29.509  18.554  59.496  0.00  0.00     0.209 HD
ENDBRANCH  95  98
ENDBRANCH  86  95
BRANCH  87 100
ATOM    100  O4  GLC d   1      32.247  19.558  62.057  0.00  0.00    -0.348 OA
BRANCH 100 101
ATOM    101  C1  AGL d   1      31.164  19.436  62.948  0.00  0.00     0.159 C 
ATOM    102  H1  AGL d   1      30.253  19.768  62.428  0.00  0.00     0.133 H 
ATOM    103  O5  AGL d   1      30.964  18.094  63.380  0.00  0.00    -0.351 OA
ATOM    104  C5  AGL d   1      32.061  17.535  64.134  0.00  0.00     0.068 C 
ATOM    105  H5  AGL d   1      32.973  17.552  63.520  0.00  0.00     0.086 H 
ATOM    106  C4  AGL d   1      32.319  18.369  65.399  0.00  0.00     0.151 C 
ATOM    107  H4  AGL d   1      31.375  18.376  65.964  0.00  0.00     0.092 H 
ATOM    108  C3  AGL d   1      32.568  19.810  64.959  0.00  0.00     0.094 C 
ATOM    109  H3  AGL d   1      33.473  19.843  64.335  0.00  0.00     0.090 H 
ATOM    110  C2  AGL d   1      31.390  20.329  64.153  0.00  0.00     0.109 C 
ATOM    111  H2  AGL d   1      30.488  20.324  64.782  0.00  0.00     0.094 H 
BRANCH 104 112
ATOM    112  C6  AGL d   1      31.698  16.091  64.434  0.00  0.00    -0.050 C 
ATOM    113  H6  AGL d   1      31.527  15.552  63.490  0.00  0.00     0.031 H 
ATOM    114  H7  AGL d   1      30.783  16.062  65.044  0.00  0.00     0.031 H 
ATOM    115  H8  AGL d   1      32.521  15.613  64.985  0.00  0.00     0.031 H 
ENDBRANCH 104 112
BRANCH 106 116
ATOM    116  N4  AGL d   1      33.219  17.864  66.242  0.00  0.00    -0.070 N 
ATOM    117  H11 AGL d   1      33.318  18.478  67.035  0.00  0.00     0.274 HD
ATOM    118  H12 AGL d   1      34.107  17.776  65.773  0.00  0.00     0.274 HD
ATOM    119  H13 AGL d   1      32.913  16.956  66.556  0.00  0.00     0.274 HD
ENDBRANCH 106 116
BRANCH 108 120
ATOM    120  O3  AGL d   1      32.757  20.627  66.098  0.00  0.00    -0.391 OA
ATOM    121  H10 AGL d   1      32.931  21.519  65.821  0.00  0.00     0.210 HD
ENDBRANCH 108 120
BRANCH 110 122
ATOM    122  O2  AGL d   1      31.657  21.651  63.730  0.00  0.00    -0.388 OA
ATOM    123  H9  AGL d   1      32.435  21.657  63.185  0.00  0.00     0.210 HD
ENDBRANCH 110 122
ENDBRANCH 100 101
ENDBRANCH  87 100
BRANCH  89 124
ATOM    124  O3  GLC d   1      32.834  22.285  61.333  0.00  0.00    -0.390 OA
ATOM    125  H22 AGL d   1      33.058  21.946  62.192  0.00  0.00     0.210 HD
ENDBRANCH  89 124
BRANCH  91 126
ATOM    126  O2  GLC d   1      33.545  22.694  58.573  0.00  0.00    -0.388 OA
ATOM    127  H21 AGL d   1      33.635  23.379  59.225  0.00  0.00     0.210 HD
ENDBRANCH  91 126
ENDBRANCH  83  84
ENDBRANCH  71  83
BRANCH  72 128
ATOM    128  O3  HMC d   1      32.725  21.806  54.951  0.00  0.00    -0.390 OA
ATOM    129  H28 AGL d   1      32.863  22.576  54.411  0.00  0.00     0.210 HD
ENDBRANCH  72 128
BRANCH  74 130
ATOM    130  O2  HMC d   1      34.868  21.898  53.022  0.00  0.00    -0.390 OA
ATOM    131  H26 AGL d   1      35.422  22.534  53.460  0.00  0.00     0.210 HD
ENDBRANCH  74 130
ENDBRANCH   1  67
TORSDOF 34
