REMARK  26 active torsions:
REMARK  status: ('A' for Active; 'I' for Inactive)
REMARK    1  A    between atoms: C2_4  and  C1_1 
REMARK    2  A    between atoms: C3_5  and  C2_4 
REMARK    3  A    between atoms: C4_6  and  C3_5 
REMARK       I    between atoms: N_8  and  C4_6 
REMARK    4  A    between atoms: CA_9  and  N_8 
REMARK    5  A    between atoms: C_10  and  CA_9 
REMARK    6  A    between atoms: CA_9  and  CB_12 
REMARK       I    between atoms: N_17  and  C_10 
REMARK    7  A    between atoms: CB_12  and  CG_13 
REMARK    8  A    between atoms: CG_13  and  CD_14 
REMARK       I    between atoms: CD_14  and  NE2_16 
REMARK    9  A    between atoms: CA_18  and  N_17 
REMARK   10  A    between atoms: C_19  and  CA_18 
REMARK   11  A    between atoms: CA_18  and  CB_21 
REMARK       I    between atoms: N_24  and  C_19 
REMARK   12  A    between atoms: CB_21  and  CG1_22 
REMARK   13  A    between atoms: CB_21  and  CG2_23 
REMARK   14  A    between atoms: CA_25  and  N_24 
REMARK   15  A    between atoms: C_26  and  CA_25 
REMARK   16  A    between atoms: CA_25  and  CB_28 
REMARK       I    between atoms: N_31  and  C_26 
REMARK   17  A    between atoms: CB_28  and  CG1_29 
REMARK   18  A    between atoms: CB_28  and  CG2_30 
REMARK   19  A    between atoms: CA_32  and  N_31 
REMARK   20  A    between atoms: C_33  and  CA_32 
REMARK   21  A    between atoms: CA_32  and  CB_35 
REMARK       I    between atoms: N_36  and  C_33 
REMARK   22  A    between atoms: CA_37  and  N_36 
REMARK   23  A    between atoms: C_38  and  CA_37 
REMARK   24  A    between atoms: CA_37  and  CB_40 
REMARK       I    between atoms: C_38  and  N1_41 
REMARK   25  A    between atoms: N1_41  and  C1_42 
REMARK   26  A    between atoms: C4_45  and  N4_46 
ROOT
ATOM      1  CA  VAL d   1      55.313  51.335  22.168  0.00  0.00     0.092 C 
ATOM      2  H23 VAL d   1      55.842  51.905  22.946  0.00  0.00     0.088 H 
ENDROOT
BRANCH   1   3
ATOM      3  C   VAL d   1      55.071  49.870  22.634  0.00  0.00     0.241 C 
ATOM      4  O   VAL d   1      55.437  48.965  21.887  0.00  0.00    -0.271 OA
ATOM      5  N   ALA d   1      54.416  49.565  23.767  0.00  0.00    -0.346 N 
ATOM      6  H31 ALA d   1      54.090  50.334  24.316  0.00  0.00     0.163 HD
BRANCH   5   7
ATOM      7  CA  ALA d   1      54.127  48.213  24.286  0.00  0.00     0.086 C 
ATOM      8  H32 ALA d   1      55.043  47.950  24.835  0.00  0.00     0.086 H 
BRANCH   7   9
ATOM      9  C   ALA d   1      53.819  46.910  23.479  0.00  0.00     0.240 C 
ATOM     10  O   ALA d   1      52.712  46.346  23.576  0.00  0.00    -0.271 OA
ATOM     11  N   ALA d   1      54.877  46.422  22.795  0.00  0.00    -0.346 N 
ATOM     12  H36 ALA d   1      55.687  47.007  22.822  0.00  0.00     0.163 HD
BRANCH  11  13
ATOM     13  CA  ALA d   1      55.055  45.174  22.010  0.00  0.00     0.086 C 
ATOM     14  H37 ALA d   1      55.927  44.658  22.438  0.00  0.00     0.086 H 
BRANCH  13  15
ATOM     15  C   ALA d   1      55.322  45.451  20.517  0.00  0.00     0.244 C 
ATOM     16  O   ALA d   1      54.489  46.064  19.825  0.00  0.00    -0.271 OA
ATOM     17  N1  NIT d   1      55.910  44.351  19.845  0.00  0.00    -0.325 N 
ATOM     18  H41 NIT d   1      55.372  43.531  19.650  0.00  0.00     0.169 HD
BRANCH  17  19
ATOM     19  C1  NIT d   1      57.190  44.422  19.476  0.00  0.00     0.034 A 
ATOM     20  C6  NIT d   1      58.120  43.390  19.723  0.00  0.00    -0.055 A 
ATOM     21  C5  NIT d   1      59.468  43.458  19.334  0.00  0.00    -0.049 A 
ATOM     22  H45 NIT d   1      57.777  42.500  20.239  0.00  0.00     0.087 H 
ATOM     23  C4  NIT d   1      59.979  44.575  18.651  0.00  0.00     0.103 A 
ATOM     24  H44 NIT d   1      60.129  42.631  19.566  0.00  0.00     0.087 H 
ATOM     25  C3  NIT d   1      59.043  45.579  18.350  0.00  0.00    -0.049 A 
ATOM     26  C2  NIT d   1      57.695  45.498  18.731  0.00  0.00    -0.055 A 
ATOM     27  H43 NIT d   1      59.376  46.452  17.801  0.00  0.00     0.087 H 
ATOM     28  H42 NIT d   1      57.020  46.295  18.439  0.00  0.00     0.087 H 
BRANCH  23  29
ATOM     29  N4  NIT d   1      61.259  44.669  18.296  0.00  0.00    -0.116 N 
ATOM     30  ON2 NIT d   1      62.092  43.678  18.607  0.00  0.00    -0.532 OA
ATOM     31  ON1 NIT d   1      61.671  45.754  17.641  0.00  0.00    -0.532 OA
ENDBRANCH  23  29
ENDBRANCH  17  19
ENDBRANCH  13  15
BRANCH  13  32
ATOM     32  CB  ALA d   1      53.860  44.178  22.008  0.00  0.00    -0.049 C 
ATOM     33  H38 ALA d   1      54.115  43.301  21.395  0.00  0.00     0.030 H 
ATOM     34  H39 ALA d   1      52.971  44.672  21.588  0.00  0.00     0.030 H 
ATOM     35  H40 ALA d   1      53.649  43.857  23.039  0.00  0.00     0.030 H 
ENDBRANCH  13  32
ENDBRANCH  11  13
ENDBRANCH   7   9
BRANCH   7  36
ATOM     36  CB  ALA d   1      53.002  48.409  25.325  0.00  0.00    -0.049 C 
ATOM     37  H33 ALA d   1      52.730  47.436  25.759  0.00  0.00     0.030 H 
ATOM     38  H34 ALA d   1      52.122  48.850  24.834  0.00  0.00     0.030 H 
ATOM     39  H35 ALA d   1      53.352  49.081  26.122  0.00  0.00     0.030 H 
ENDBRANCH   7  36
ENDBRANCH   5   7
ENDBRANCH   1   3
BRANCH   1  40
ATOM     40  CB  VAL d   1      53.979  52.037  21.788  0.00  0.00    -0.033 C 
ATOM     41  H24 VAL d   1      54.210  52.963  21.241  0.00  0.00     0.042 H 
BRANCH  40  42
ATOM     42  CG1 VAL d   1      53.253  51.051  20.832  0.00  0.00    -0.071 C 
ATOM     43  H25 VAL d   1      52.292  51.485  20.519  0.00  0.00     0.028 H 
ATOM     44  H26 VAL d   1      53.073  50.100  21.354  0.00  0.00     0.028 H 
ATOM     45  H27 VAL d   1      53.880  50.870  19.946  0.00  0.00     0.028 H 
ENDBRANCH  40  42
BRANCH  40  46
ATOM     46  CG2 VAL d   1      53.112  52.422  22.999  0.00  0.00    -0.071 C 
ATOM     47  H28 VAL d   1      53.669  53.119  23.642  0.00  0.00     0.028 H 
ATOM     48  H29 VAL d   1      52.859  51.517  23.571  0.00  0.00     0.028 H 
ATOM     49  H30 VAL d   1      52.188  52.905  22.649  0.00  0.00     0.028 H 
ENDBRANCH  40  46
ENDBRANCH   1  40
BRANCH   1  50
ATOM     50  N   VAL d   1      56.102  51.253  20.927  0.00  0.00    -0.346 N 
ATOM     51  C   VAL d   1      56.701  52.257  20.262  0.00  0.00     0.241 C 
ATOM     52  O   VAL d   1      56.791  53.444  20.598  0.00  0.00    -0.271 OA
ATOM     53  H22 VAL d   1      56.205  50.340  20.531  0.00  0.00     0.163 HD
BRANCH  51  54
ATOM     54  CA  VAL d   1      56.975  51.731  18.835  0.00  0.00     0.092 C 
ATOM     55  H14 VAL d   1      56.464  50.762  18.739  0.00  0.00     0.088 H 
BRANCH  54  56
ATOM     56  CB  VAL d   1      58.478  51.504  18.479  0.00  0.00    -0.033 C 
ATOM     57  H15 VAL d   1      58.813  52.326  17.829  0.00  0.00     0.042 H 
BRANCH  56  58
ATOM     58  CG1 VAL d   1      59.503  51.421  19.594  0.00  0.00    -0.071 C 
ATOM     59  H16 VAL d   1      60.502  51.260  19.163  0.00  0.00     0.028 H 
ATOM     60  H17 VAL d   1      59.252  50.583  20.261  0.00  0.00     0.028 H 
ATOM     61  H18 VAL d   1      59.498  52.360  20.167  0.00  0.00     0.028 H 
ENDBRANCH  56  58
BRANCH  56  62
ATOM     62  CG2 VAL d   1      58.327  50.226  17.654  0.00  0.00    -0.071 C 
ATOM     63  H19 VAL d   1      57.566  50.381  16.874  0.00  0.00     0.028 H 
ATOM     64  H20 VAL d   1      58.016  49.400  18.311  0.00  0.00     0.028 H 
ATOM     65  H21 VAL d   1      59.290  49.978  17.183  0.00  0.00     0.028 H 
ENDBRANCH  56  62
ENDBRANCH  54  56
BRANCH  54  66
ATOM     66  N   VAL d   1      56.396  52.672  17.854  0.00  0.00    -0.346 N 
ATOM     67  C   GLN d   1      56.973  53.541  16.999  0.00  0.00     0.241 C 
ATOM     68  O   GLN d   1      58.159  53.755  16.749  0.00  0.00    -0.271 OA
ATOM     69  H13 VAL d   1      55.397  52.663  17.817  0.00  0.00     0.163 HD
BRANCH  67  70
ATOM     70  CA  GLN d   1      56.007  54.362  16.198  0.00  0.00     0.089 C 
ATOM     71  H6  GLN d   1      54.999  54.415  16.635  0.00  0.00     0.087 H 
BRANCH  70  72
ATOM     72  CB  GLN d   1      55.956  53.711  14.806  0.00  0.00    -0.030 C 
ATOM     73  H7  GLN d   1      56.982  53.663  14.412  0.00  0.00     0.037 H 
ATOM     74  H8  GLN d   1      55.341  54.347  14.152  0.00  0.00     0.037 H 
BRANCH  72  75
ATOM     75  CG  GLN d   1      55.362  52.277  14.784  0.00  0.00     0.011 C 
ATOM     76  H9  GLN d   1      54.280  52.357  14.964  0.00  0.00     0.047 H 
ATOM     77  H10 GLN d   1      55.828  51.706  15.601  0.00  0.00     0.047 H 
BRANCH  75  78
ATOM     78  CD  GLN d   1      55.565  51.495  13.491  0.00  0.00     0.215 C 
ATOM     79  OE1 GLN d   1      56.239  50.472  13.514  0.00  0.00    -0.274 OA
ATOM     80  NE2 GLN d   1      55.053  51.843  12.317  0.00  0.00    -0.370 N 
ATOM     81  H11 GLN d   1      55.228  51.281  11.509  0.00  0.00     0.159 HD
ATOM     82  H12 GLN d   1      54.492  52.667  12.241  0.00  0.00     0.159 HD
ENDBRANCH  75  78
ENDBRANCH  72  75
ENDBRANCH  70  72
BRANCH  70  83
ATOM     83  N   GLN d   1      56.696  55.650  16.266  0.00  0.00    -0.348 N 
ATOM     84  C4  SIN d   1      56.192  56.510  17.185  0.00  0.00     0.218 C 
ATOM     85  O4A SIN d   1      55.808  56.179  18.283  0.00  0.00    -0.274 OA
ATOM     86  H5  GLN d   1      57.475  55.878  15.682  0.00  0.00     0.163 HD
BRANCH  84  87
ATOM     87  C3  SIN d   1      57.398  57.501  17.098  0.00  0.00     0.018 C 
ATOM     88  H3  SIN d   1      57.918  57.283  16.154  0.00  0.00     0.047 H 
ATOM     89  H4  SIN d   1      56.972  58.514  17.056  0.00  0.00     0.047 H 
BRANCH  87  90
ATOM     90  C2  SIN d   1      58.492  57.519  18.221  0.00  0.00     0.024 C 
ATOM     91  H1  SIN d   1      57.991  57.236  19.159  0.00  0.00     0.049 H 
ATOM     92  H2  SIN d   1      59.234  56.752  17.956  0.00  0.00     0.049 H 
BRANCH  90  93
ATOM     93  C1  SIN d   1      59.276  58.823  18.506  0.00  0.00     0.172 C 
ATOM     94  O1B SIN d   1      59.020  59.815  17.864  0.00  0.00    -0.648 OA
ATOM     95  O1A SIN d   1      60.147  58.834  19.358  0.00  0.00    -0.648 OA
ENDBRANCH  90  93
ENDBRANCH  87  90
ENDBRANCH  84  87
ENDBRANCH  70  83
ENDBRANCH  67  70
ENDBRANCH  54  66
ENDBRANCH  51  54
ENDBRANCH   1  50
TORSDOF 26
