REMARK  9 active torsions:
REMARK  status: ('A' for Active; 'I' for Inactive)
REMARK    1  A    between atoms: O3B_8  and  PG_1 
REMARK    2  A    between atoms: PB_5  and  O3B_8 
REMARK    3  A    between atoms: O3A_12  and  PB_5 
REMARK    4  A    between atoms: PA_9  and  O3A_12 
REMARK    5  A    between atoms: PA_9  and  C5_13 
REMARK    6  A    between atoms: C5_13  and  O5_14 
REMARK    7  A    between atoms: O5_14  and  C4_15 
REMARK    8  A    between atoms: C4_15  and  C1_16 
REMARK    9  A    between atoms: C1_16  and  N9_17 
ROOT
ATOM      1  C4  EMA d   1      35.139  65.946  41.735  0.00  0.00     0.035 C 
ATOM      2  H3  EMA d   1      34.312  66.443  41.206  0.00  0.00     0.076 H 
ATOM      3  H4  EMA d   1      34.765  65.512  42.674  0.00  0.00     0.076 H 
ENDROOT
BRANCH   1   4
ATOM      4  O5  EMA d   1      36.103  66.996  42.103  0.00  0.00    -0.377 OA
BRANCH   4   5
ATOM      5  C5  EMA d   1      35.601  67.540  43.349  0.00  0.00     0.115 C 
ATOM      6  H1  EMA d   1      35.765  66.748  44.095  0.00  0.00     0.094 H 
ATOM      7  H2  EMA d   1      36.255  68.396  43.573  0.00  0.00     0.094 H 
BRANCH   5   8
ATOM      8  PA  EMA d   1      34.110  68.069  43.620  0.00  0.00     0.283 P 
ATOM      9  O1A EMA d   1      34.074  68.461  45.035  0.00  0.00    -0.645 OA
ATOM     10  O2A EMA d   1      33.075  67.114  43.136  0.00  0.00    -0.645 OA
BRANCH   8  11
ATOM     11  O3A EMA d   1      34.058  69.414  42.825  0.00  0.00    -0.202 OA
BRANCH  11  12
ATOM     12  PB  EMA d   1      33.008  70.534  42.556  0.00  0.00     0.426 P 
ATOM     13  O1B EMA d   1      31.676  69.873  42.312  0.00  0.00    -0.624 OA
ATOM     14  O2B EMA d   1      33.512  71.441  41.524  0.00  0.00    -0.624 OA
BRANCH  12  15
ATOM     15  O3B EMA d   1      32.958  71.347  44.009  0.00  0.00    -0.173 OA
BRANCH  15  16
ATOM     16  PG  EMA d   1      31.831  72.358  44.652  0.00  0.00     0.431 P 
ATOM     17  O1G EMA d   1      30.650  71.509  44.828  0.00  0.00    -0.616 OA
ATOM     18  O2G EMA d   1      32.514  72.712  45.904  0.00  0.00    -0.616 OA
ATOM     19  O3G EMA d   1      31.569  73.494  43.698  0.00  0.00    -0.616 OA
ENDBRANCH  15  16
ENDBRANCH  12  15
ENDBRANCH  11  12
ENDBRANCH   8  11
ENDBRANCH   5   8
ENDBRANCH   4   5
ENDBRANCH   1   4
BRANCH   1  20
ATOM     20  C1  EMA d   1      35.592  64.775  40.853  0.00  0.00     0.022 C 
ATOM     21  H5  EMA d   1      34.934  64.791  39.971  0.00  0.00     0.068 H 
ATOM     22  H6  EMA d   1      35.398  63.865  41.439  0.00  0.00     0.068 H 
BRANCH  20  23
ATOM     23  N9  EMA d   1      36.985  64.630  40.322  0.00  0.00    -0.322 N 
ATOM     24  C8  EMA d   1      37.678  65.381  39.395  0.00  0.00     0.068 A 
ATOM     25  N7  EMA d   1      38.876  64.947  39.114  0.00  0.00    -0.236 NA
ATOM     26  H7  EMA d   1      37.256  66.271  38.931  0.00  0.00     0.143 H 
ATOM     27  C5  EMA d   1      38.953  63.819  39.885  0.00  0.00     0.149 A 
ATOM     28  C6  EMA d   1      40.027  62.855  40.070  0.00  0.00     0.155 A 
ATOM     29  C4  EMA d   1      37.837  63.611  40.642  0.00  0.00     0.165 A 
ATOM     30  N6  EMA d   1      41.111  62.970  39.362  0.00  0.00    -0.382 N 
ATOM     31  N1  EMA d   1      39.809  61.846  40.916  0.00  0.00    -0.222 NA
ATOM     32  H8  EMA d   1      41.879  62.294  39.483  0.00  0.00     0.157 HD
ATOM     33  H9  EMA d   1      41.202  63.737  38.680  0.00  0.00     0.157 HD
ATOM     34  C2  EMA d   1      38.666  61.744  41.604  0.00  0.00     0.091 A 
ATOM     35  N3  EMA d   1      37.605  62.597  41.537  0.00  0.00    -0.222 NA
ATOM     36  H10 EMA d   1      38.575  60.901  42.280  0.00  0.00     0.146 H 
ENDBRANCH  20  23
ENDBRANCH   1  20
TORSDOF 9
