REMARK  9 active torsions:
REMARK  status: ('A' for Active; 'I' for Inactive)
REMARK    1  A    between atoms: N1_1  and  C6_6 
REMARK    2  A    between atoms: C2_2  and  C16_9 
REMARK    3  A    between atoms: C4_4  and  C35_16 
REMARK    4  A    between atoms: C5_5  and  C36_17 
REMARK    5  A    between atoms: C6_6  and  C7_7 
REMARK    6  A    between atoms: C7_7  and  C10_8 
REMARK    7  A    between atoms: N19_12  and  C31_15 
REMARK    8  A    between atoms: C50_28  and  N54_30 
REMARK    9  A    between atoms: N54_30  and  C55_31 
ROOT
ATOM      1  N1  984 d   1      22.929  10.681  31.054  0.00  0.00    -0.331 N 
ATOM      2  C2  984 d   1      23.012  12.032  30.959  0.00  0.00     0.111 A 
ATOM      3  N3  984 d   1      22.099  12.689  31.761  0.00  0.00    -0.232 NA
ATOM      4  C4  984 d   1      21.286  11.715  32.506  0.00  0.00     0.098 A 
ATOM      5  C5  984 d   1      21.818  10.391  32.070  0.00  0.00     0.095 A 
ENDROOT
BRANCH   2   6
ATOM      6  C16 984 d   1      23.755  12.832  30.259  0.00  0.00     0.007 C 
ATOM      7  C17 984 d   1      22.993  13.755  29.246  0.00  0.00    -0.032 C 
ATOM      8  C18 984 d   1      23.949  14.690  28.421  0.00  0.00     0.084 C 
ATOM      9  H9  984 d   1      22.288  14.385  29.809  0.00  0.00     0.036 H 
ATOM     10  H10 984 d   1      22.435  13.118  28.544  0.00  0.00     0.036 H 
ATOM     11  N19 984 d   1      24.867  15.478  29.304  0.00  0.00    -0.075 N 
ATOM     12  H11 984 d   1      23.339  15.389  27.830  0.00  0.00     0.076 H 
ATOM     13  H12 984 d   1      24.554  14.069  27.744  0.00  0.00     0.076 H 
ATOM     14  C20 984 d   1      25.646  14.618  30.217  0.00  0.00     0.084 C 
ATOM     15  H13 984 d   1      24.296  16.085  29.871  0.00  0.00     0.279 HD
ATOM     16  C21 984 d   1      24.742  13.694  31.104  0.00  0.00    -0.032 C 
ATOM     17  H14 984 d   1      26.246  15.261  30.878  0.00  0.00     0.076 H 
ATOM     18  H15 984 d   1      26.314  13.983  29.617  0.00  0.00     0.076 H 
ATOM     19  H16 984 d   1      25.389  13.021  31.685  0.00  0.00     0.036 H 
ATOM     20  H17 984 d   1      24.159  14.325  31.791  0.00  0.00     0.036 H 
ATOM     21  H8  984 d   1      24.381  12.168  29.645  0.00  0.00     0.052 H 
BRANCH  11  22
ATOM     22  C31 984 d   1      25.771  16.330  28.490  0.00  0.00     0.066 C 
ATOM     23  H18 984 d   1      25.172  16.962  27.818  0.00  0.00     0.068 H 
ATOM     24  H19 984 d   1      26.439  15.691  27.894  0.00  0.00     0.068 H 
ATOM     25  H20 984 d   1      26.371  16.968  29.155  0.00  0.00     0.068 H 
ENDBRANCH  11  22
ENDBRANCH   2   6
BRANCH   1  26
ATOM     26  C6  984 d   1      23.810   9.773  30.284  0.00  0.00     0.001 C 
ATOM     27  H1  984 d   1      24.130  10.290  29.367  0.00  0.00     0.065 H 
ATOM     28  H2  984 d   1      23.237   8.873  30.017  0.00  0.00     0.065 H 
BRANCH  26  29
ATOM     29  C7  984 d   1      25.052   9.346  31.058  0.00  0.00    -0.053 C 
ATOM     30  H3  984 d   1      24.822   8.415  31.596  0.00  0.00     0.034 H 
ATOM     31  H4  984 d   1      25.299  10.137  31.782  0.00  0.00     0.034 H 
BRANCH  29  32
ATOM     32  C10 984 d   1      26.273   9.103  30.175  0.00  0.00    -0.075 C 
ATOM     33  H5  984 d   1      27.124   8.800  30.802  0.00  0.00     0.027 H 
ATOM     34  H6  984 d   1      26.526  10.028  29.636  0.00  0.00     0.027 H 
ATOM     35  H7  984 d   1      26.049   8.306  29.451  0.00  0.00     0.027 H 
ENDBRANCH  29  32
ENDBRANCH  26  29
ENDBRANCH   1  26
BRANCH   5  36
ATOM     36  C36 984 d   1      21.478   8.914  32.226  0.00  0.00     0.106 A 
ATOM     37  C47 984 d   1      20.240   8.598  32.848  0.00  0.00    -0.035 A 
ATOM     38  C48 984 d   1      19.962   7.222  33.017  0.00  0.00     0.023 A 
ATOM     39  H24 984 d   1      19.549   9.367  33.174  0.00  0.00     0.089 H 
ATOM     40  N49 984 d   1      20.831   6.265  32.634  0.00  0.00    -0.075 NA
ATOM     41  H25 984 d   1      19.021   6.928  33.468  0.00  0.00     0.115 H 
ATOM     42  C50 984 d   1      21.978   6.679  32.078  0.00  0.00     0.723 A 
ATOM     43  N51 984 d   1      22.318   7.950  31.867  0.00  0.00    -0.061 NA
BRANCH  42  44
ATOM     44  N54 984 d   1      22.907   5.776  31.683  0.00  0.00    -0.218 N 
ATOM     45  H26 984 d   1      23.538   5.369  32.388  0.00  0.00     0.178 HD
BRANCH  44  46
ATOM     46  C55 984 d   1      23.040   5.365  30.301  0.00  0.00     0.026 A 
ATOM     47  C56 984 d   1      24.372   4.720  30.671  0.00  0.00    -0.044 A 
ATOM     48  C57 984 d   1      24.257   5.791  29.633  0.00  0.00    -0.044 A 
ATOM     49  H28 984 d   1      24.588   3.682  30.378  0.00  0.00     0.036 H 
ATOM     50  H29 984 d   1      24.844   4.934  31.642  0.00  0.00     0.036 H 
ATOM     51  H30 984 d   1      24.667   6.791  29.836  0.00  0.00     0.036 H 
ATOM     52  H31 984 d   1      24.412   5.540  28.573  0.00  0.00     0.036 H 
ATOM     53  H27 984 d   1      22.152   4.998  29.765  0.00  0.00     0.073 H 
ENDBRANCH  44  46
ENDBRANCH  42  44
ENDBRANCH   5  36
BRANCH   4  54
ATOM     54  C35 984 d   1      20.233  12.113  33.484  0.00  0.00    -0.003 A 
ATOM     55  C37 984 d   1      20.149  11.487  34.750  0.00  0.00    -0.048 A 
ATOM     56  C38 984 d   1      19.164  11.823  35.678  0.00  0.00     0.056 A 
ATOM     57  H21 984 d   1      20.873  10.722  35.007  0.00  0.00     0.087 H 
ATOM     58  C39 984 d   1      18.187  12.800  35.352  0.00  0.00     0.055 A 
ATOM     59 CL45 984 d   1      19.205  10.973  37.165  0.00  0.00    -0.083 Cl
ATOM     60  C40 984 d   1      18.251  13.461  34.084  0.00  0.00    -0.059 A 
ATOM     61 CL46 984 d   1      16.917  13.246  36.437  0.00  0.00    -0.083 Cl
ATOM     62  C41 984 d   1      19.283  13.102  33.140  0.00  0.00    -0.069 A 
ATOM     63  H22 984 d   1      17.527  14.228  33.833  0.00  0.00     0.086 H 
ATOM     64  H23 984 d   1      19.329  13.588  32.172  0.00  0.00     0.085 H 
ENDBRANCH   4  54
TORSDOF 9
