REMARK  2 active torsions:
REMARK  status: ('A' for Active; 'I' for Inactive)
REMARK    1  A    between atoms: C24_17  and  C17_12 
REMARK    2  A    between atoms: C27_20  and  O32_21 
ROOT
ATOM      1  C1  9HP d   1      22.311  23.479  47.097  0.00  0.00     0.004 A 
ATOM      2  C2  9HP d   1      23.530  23.488  47.930  0.00  0.00    -0.022 A 
ATOM      3  C3  9HP d   1      23.540  22.816  49.195  0.00  0.00    -0.055 A 
ATOM      4  C4  9HP d   1      22.364  22.163  49.605  0.00  0.00     0.003 A 
ATOM      5  N5  9HP d   1      21.222  22.149  48.847  0.00  0.00    -0.272 NA
ATOM      6  C6  9HP d   1      21.177  22.777  47.634  0.00  0.00     0.013 A 
ATOM      7  C10 9HP d   1      22.353  24.191  45.806  0.00  0.00     0.006 A 
ATOM      8  C11 9HP d   1      23.634  24.833  45.470  0.00  0.00     0.067 A 
ATOM      9  C12 9HP d   1      24.777  24.819  46.308  0.00  0.00    -0.053 A 
ATOM     10  C13 9HP d   1      24.741  24.145  47.538  0.00  0.00    -0.070 A 
ATOM     11  C16 9HP d   1      21.280  24.286  44.861  0.00  0.00    -0.058 A 
ATOM     12  C17 9HP d   1      21.418  24.988  43.646  0.00  0.00    -0.007 A 
ATOM     13  C18 9HP d   1      22.667  25.590  43.376  0.00  0.00     0.013 A 
ATOM     14  N19 9HP d   1      23.704  25.509  44.262  0.00  0.00    -0.259 NA
ATOM     15  H1  9HP d   1      24.427  22.811  49.818  0.00  0.00     0.087 H 
ATOM     16  H2  9HP d   1      22.360  21.650  50.560  0.00  0.00     0.114 H 
ATOM     17  H3  9HP d   1      20.258  22.745  47.059  0.00  0.00     0.116 H 
ATOM     18  H4  9HP d   1      25.681  25.330  45.998  0.00  0.00     0.087 H 
ATOM     19  H5  9HP d   1      25.614  24.122  48.180  0.00  0.00     0.084 H 
ATOM     20  H6  9HP d   1      20.335  23.805  45.087  0.00  0.00     0.086 H 
ATOM     21  H7  9HP d   1      22.806  26.128  42.445  0.00  0.00     0.116 H 
ENDROOT
BRANCH  12  22
ATOM     22  C24 9HP d   1      20.277  25.113  42.679  0.00  0.00    -0.024 A 
ATOM     23  C23 9HP d   1      19.538  24.002  42.201  0.00  0.00    -0.070 A 
ATOM     24  C22 9HP d   1      18.454  24.192  41.303  0.00  0.00    -0.050 A 
ATOM     25  H9  9HP d   1      19.802  23.001  42.523  0.00  0.00     0.085 H 
ATOM     26  C27 9HP d   1      18.113  25.511  40.890  0.00  0.00     0.065 A 
ATOM     27  H8  9HP d   1      17.892  23.341  40.936  0.00  0.00     0.087 H 
ATOM     28  C26 9HP d   1      18.851  26.601  41.363  0.00  0.00    -0.050 A 
ATOM     29  C25 9HP d   1      19.913  26.400  42.244  0.00  0.00    -0.070 A 
ATOM     30  H11 9HP d   1      18.596  27.605  41.044  0.00  0.00     0.087 H 
ATOM     31  H10 9HP d   1      20.472  27.257  42.602  0.00  0.00     0.085 H 
BRANCH  26  32
ATOM     32  O32 9HP d   1      17.073  25.759  40.036  0.00  0.00    -0.361 OA
ATOM     33  H12 9HP d   1      16.661  24.938  39.794  0.00  0.00     0.217 HD
ENDBRANCH  26  32
ENDBRANCH  12  22
TORSDOF 2
