REMARK  0 active torsions:
REMARK  status: ('A' for Active; 'I' for Inactive)
ROOT
ATOM      1  C1  537 d   1      22.016  31.290  21.128  0.00  0.00    -0.082 A 
ATOM      2  C2  537 d   1      20.912  31.009  20.271  0.00  0.00    -0.070 A 
ATOM      3  C3  537 d   1      20.529  29.681  20.012  0.00  0.00     0.009 A 
ATOM      4  C4  537 d   1      21.262  28.580  20.629  0.00  0.00     0.028 A 
ATOM      5  C5  537 d   1      22.366  28.883  21.485  0.00  0.00    -0.068 A 
ATOM      6  C6  537 d   1      22.746  30.233  21.735  0.00  0.00    -0.082 A 
ATOM      7  C11 537 d   1      19.057  28.006  18.917  0.00  0.00     0.038 A 
ATOM      8  C12 537 d   1      17.980  27.811  18.086  0.00  0.00     0.063 A 
ATOM      9  C13 537 d   1      17.497  26.544  17.753  0.00  0.00    -0.055 A 
ATOM     10  C14 537 d   1      18.149  25.389  18.305  0.00  0.00    -0.080 A 
ATOM     11  C15 537 d   1      19.270  25.531  19.179  0.00  0.00    -0.068 A 
ATOM     12  C16 537 d   1      19.741  26.848  19.498  0.00  0.00     0.030 A 
ATOM     13  C20 537 d   1      20.891  27.138  20.399  0.00  0.00     0.194 A 
ATOM     14  C21 537 d   1      19.357  29.372  19.111  0.00  0.00     0.101 A 
ATOM     15  O22 537 d   1      21.522  26.216  20.930  0.00  0.00    -0.287 OA
ATOM     16  N23 537 d   1      18.449  30.098  18.371  0.00  0.00    -0.173 NA
ATOM     17  N24 537 d   1      17.637  29.107  17.770  0.00  0.00    -0.277 N 
ATOM     18  H1  537 d   1      22.301  32.319  21.318  0.00  0.00     0.083 H 
ATOM     19  H2  537 d   1      20.363  31.826  19.815  0.00  0.00     0.084 H 
ATOM     20  H3  537 d   1      22.921  28.076  21.950  0.00  0.00     0.085 H 
ATOM     21  H4  537 d   1      23.586  30.452  22.384  0.00  0.00     0.083 H 
ATOM     22  H5  537 d   1      16.646  26.434  17.090  0.00  0.00     0.087 H 
ATOM     23  H6  537 d   1      17.786  24.398  18.055  0.00  0.00     0.083 H 
ATOM     24  H7  537 d   1      19.758  24.657  19.595  0.00  0.00     0.085 H 
ATOM     25  H8  537 d   1      16.851  29.337  17.145  0.00  0.00     0.189 HD
ENDROOT
TORSDOF 0
