REMARK WARNING: 32 MAX_TORS EXCEEDED!!!
REMARK  49 active torsions:
REMARK  status: ('A' for Active; 'I' for Inactive)
REMARK    1  A    between atoms: N_1  and  CA_2 
REMARK    2  A    between atoms: CA_2  and  C_3 
REMARK    3  A    between atoms: CA_2  and  CB_5 
REMARK       I    between atoms: C_3  and  N_12 
REMARK    4  A    between atoms: CB_5  and  CG_6 
REMARK    5  A    between atoms: CG_6  and  CD_7 
REMARK    6  A    between atoms: CD_7  and  NE_8 
REMARK       I    between atoms: NE_8  and  CZ_9 
REMARK       I    between atoms: CZ_9  and  NH1_10 
REMARK       I    between atoms: CZ_9  and  NH2_11 
REMARK    7  A    between atoms: N_12  and  CA_13 
REMARK    8  A    between atoms: CA_13  and  C_14 
REMARK    9  A    between atoms: CA_13  and  CB_16 
REMARK       I    between atoms: C_14  and  N_20 
REMARK   10  A    between atoms: CB_16  and  CG_17 
REMARK       I    between atoms: CG_17  and  ND2_19 
REMARK   11  A    between atoms: N_20  and  CA_21 
REMARK   12  A    between atoms: CA_27  and  CB_30 
REMARK   13  A    between atoms: CB_30  and  CG_31 
REMARK   14  A    between atoms: CA_38  and  CB_41 
REMARK   15  A    between atoms: CB_41  and  CG_42 
REMARK   16  A    between atoms: CG_42  and  CD_43 
REMARK   17  A    between atoms: CA_47  and  CB_50 
REMARK   18  A    between atoms: CB_50  and  OG_51 
REMARK   19  A    between atoms: CA_53  and  CB_56 
REMARK   20  A    between atoms: CB_56  and  CG1_57 
REMARK   21  A    between atoms: CB_56  and  CG2_58 
REMARK   22  A    between atoms: CA_60  and  CB_63 
REMARK   23  A    between atoms: CA_65  and  CB_68 
REMARK   24  A    between atoms: CA_70  and  CB_73 
REMARK   25  A    between atoms: CB_73  and  CG_74 
REMARK   26  A    between atoms: CG_74  and  CD1_75 
REMARK   27  A    between atoms: CG_74  and  CD2_76 
REMARK   28  A    between atoms: CA_78  and  CB_81 
REMARK   29  A    between atoms: CB_81  and  CG_82 
REMARK   30  A    between atoms: CG_82  and  CD_83 
REMARK   31  A    between atoms: CD_83  and  NE_84 
REMARK       I    between atoms: NE_84  and  CZ_85 
REMARK       I    between atoms: CZ_85  and  NH1_86 
REMARK       I    between atoms: CZ_85  and  NH2_87 
REMARK   32  A    between atoms: CA_89  and  CB_92 
REMARK   33  A    between atoms: CB_92  and  CG_93 
REMARK   34  A    between atoms: CG_93  and  CD_94 
REMARK   35  A    between atoms: CD_94  and  NE_95 
REMARK       I    between atoms: NE_95  and  CZ_96 
REMARK       I    between atoms: CZ_96  and  NH1_97 
REMARK   36  A    between atoms: CA_100  and  C_101 
REMARK       I    between atoms: C_101  and  N_105 
REMARK   37  A    between atoms: N_105  and  CA_106 
REMARK   38  A    between atoms: CA_106  and  C_107 
REMARK   39  A    between atoms: CA_106  and  CB_109 
REMARK       I    between atoms: C_107  and  N_113 
REMARK   40  A    between atoms: CB_109  and  CG_110 
REMARK   41  A    between atoms: CG_110  and  SD_111 
REMARK   42  A    between atoms: SD_111  and  CE_112 
REMARK   43  A    between atoms: N_113  and  CA_114 
REMARK   44  A    between atoms: CA_114  and  C_115 
REMARK   45  A    between atoms: CA_114  and  CB_117 
REMARK       I    between atoms: C_115  and  N_125 
REMARK   46  A    between atoms: CB_117  and  CG_118 
REMARK   47  A    between atoms: CZ_123  and  OH_124 
REMARK   48  A    between atoms: N_125  and  CA_126 
REMARK   49  A    between atoms: CA_126  and  C_127 
ROOT
ATOM      1  N   ARG d   1      -4.606  -3.184  -7.896  0.00  0.00    -0.346 N 
ATOM      2  CA  ARG d   1      -5.931  -3.794  -7.907  0.00  0.00     0.089 C 
ATOM      3  C   ARG d   1      -6.682  -3.488  -6.615  0.00  0.00     0.241 C 
ATOM      4  O   ARG d   1      -7.824  -3.028  -6.643  0.00  0.00    -0.271 OA
ATOM      5  N   ARG d   1      -6.035  -3.748  -5.484  0.00  0.00    -0.346 N 
ATOM      6  CA  ARG d   1      -6.642  -3.500  -4.181  0.00  0.00     0.089 C 
ATOM      7  C   ARG d   1      -7.005  -2.029  -4.015  0.00  0.00     0.241 C 
ATOM      8  O   ARG d   1      -8.060  -1.696  -3.474  0.00  0.00    -0.271 OA
ATOM      9  H76 ARG d   1      -3.797  -3.772  -7.900  0.00  0.00     0.163 HD
ATOM     10  H77 ARG d   1      -6.500  -3.376  -8.750  0.00  0.00     0.087 H 
ATOM     11  H89 ARG d   1      -5.109  -4.123  -5.527  0.00  0.00     0.163 HD
ATOM     12  H90 ARG d   1      -7.564  -4.096  -4.109  0.00  0.00     0.087 H 
ATOM     13  CA  CYS d   1      -0.468   2.248  -3.999  0.00  0.00     0.098 C 
ATOM     14  C   CYS d   1       0.459   1.735  -5.096  0.00  0.00     0.242 C 
ATOM     15  O   CYS d   1       0.372   0.578  -5.505  0.00  0.00    -0.271 OA
ATOM     16  CB  CYS d   1      -1.614   3.049  -4.619  0.00  0.00     0.013 C 
ATOM     17  SG  CYS d   1      -3.160   3.008  -3.652  0.00  0.00    -0.095 SA
ATOM     18  N   CYS d   1      -6.123  -1.150  -4.482  0.00  0.00    -0.345 N 
ATOM     19  CA  CYS d   1      -6.351   0.288  -4.384  0.00  0.00     0.098 C 
ATOM     20  CB  CYS d   1      -5.126   1.055  -4.886  0.00  0.00     0.013 C 
ATOM     21  SG  CYS d   1      -3.724   1.059  -3.723  0.00  0.00    -0.095 SA
ATOM     22  H23 CYS d   1      -0.891   1.384  -3.466  0.00  0.00     0.088 H 
ATOM     23  H24 CYS d   1      -1.821   2.639  -5.619  0.00  0.00     0.053 H 
ATOM     24  H25 CYS d   1      -1.292   4.097  -4.712  0.00  0.00     0.053 H 
ATOM     25 2H10 CYS d   1      -5.283  -1.483  -4.911  0.00  0.00     0.163 HD
ATOM     26 3H10 CYS d   1      -6.516   0.543  -3.327  0.00  0.00     0.088 H 
ATOM     27 4H10 CYS d   1      -5.423   2.098  -5.072  0.00  0.00     0.053 H 
ATOM     28 5H10 CYS d   1      -4.792   0.595  -5.828  0.00  0.00     0.053 H 
ATOM     29  N   PHE d   1       1.348   2.605  -5.568  0.00  0.00    -0.346 N 
ATOM     30  CA  PHE d   1       2.290   2.238  -6.618  0.00  0.00     0.093 C 
ATOM     31  C   PHE d   1       3.494   1.500  -6.035  0.00  0.00     0.241 C 
ATOM     32  O   PHE d   1       4.600   2.040  -5.968  0.00  0.00    -0.271 OA
ATOM     33  H26 PHE d   1       1.371   3.532  -5.194  0.00  0.00     0.163 HD
ATOM     34  H27 PHE d   1       1.779   1.565  -7.323  0.00  0.00     0.088 H 
ATOM     35  N   GLU d   1       3.268   0.259  -5.618  0.00  0.00    -0.346 N 
ATOM     36  CA  GLU d   1       4.327  -0.562  -5.040  0.00  0.00     0.090 C 
ATOM     37  C   GLU d   1       4.441  -1.891  -5.780  0.00  0.00     0.241 C 
ATOM     38  O   GLU d   1       5.540  -2.337  -6.114  0.00  0.00    -0.271 OA
ATOM     39  H35 GLU d   1       2.348  -0.123  -5.702  0.00  0.00     0.163 HD
ATOM     40  H36 GLU d   1       5.281  -0.022  -5.137  0.00  0.00     0.087 H 
ATOM     41  N   SER d   1       3.298  -2.518  -6.036  0.00  0.00    -0.344 N 
ATOM     42  CA  SER d   1       3.264  -3.795  -6.739  0.00  0.00     0.109 C 
ATOM     43  C   SER d   1       2.032  -3.888  -7.634  0.00  0.00     0.243 C 
ATOM     44  O   SER d   1       1.175  -3.004  -7.619  0.00  0.00    -0.271 OA
ATOM     45  H41 SER d   1       2.438  -2.103  -5.739  0.00  0.00     0.163 HD
ATOM     46  H42 SER d   1       4.162  -3.870  -7.370  0.00  0.00     0.090 H 
ATOM     47  N   VAL d   1       1.948  -4.962  -8.411  0.00  0.00    -0.346 N 
ATOM     48  CA  VAL d   1       0.819  -5.167  -9.312  0.00  0.00     0.092 C 
ATOM     49  C   VAL d   1      -0.465  -5.441  -8.531  0.00  0.00     0.241 C 
ATOM     50  O   VAL d   1      -1.559  -5.099  -8.977  0.00  0.00    -0.271 OA
ATOM     51  H46 VAL d   1       2.676  -5.647  -8.378  0.00  0.00     0.163 HD
ATOM     52  H47 VAL d   1       0.679  -4.248  -9.900  0.00  0.00     0.088 H 
ATOM     53  N   ALA d   1      -0.322  -6.061  -7.363  0.00  0.00    -0.346 N 
ATOM     54  CA  ALA d   1      -1.470  -6.381  -6.522  0.00  0.00     0.086 C 
ATOM     55  C   ALA d   1      -2.035  -5.130  -5.858  0.00  0.00     0.240 C 
ATOM     56  O   ALA d   1      -3.251  -4.974  -5.738  0.00  0.00    -0.271 OA
ATOM     57  N   ALA d   1      -1.145  -4.244  -5.423  0.00  0.00    -0.346 N 
ATOM     58  CA  ALA d   1      -1.549  -3.006  -4.763  0.00  0.00     0.086 C 
ATOM     59  C   ALA d   1      -2.482  -2.174  -5.639  0.00  0.00     0.240 C 
ATOM     60  O   ALA d   1      -3.447  -1.586  -5.149  0.00  0.00    -0.271 OA
ATOM     61  H55 ALA d   1       0.595  -6.314  -7.054  0.00  0.00     0.163 HD
ATOM     62  H56 ALA d   1      -2.254  -6.816  -7.160  0.00  0.00     0.086 H 
ATOM     63  H60 ALA d   1      -0.171  -4.431  -5.551  0.00  0.00     0.163 HD
ATOM     64  H61 ALA d   1      -2.091  -3.271  -3.843  0.00  0.00     0.086 H 
ATOM     65  N   LEU d   1      -2.190  -2.123  -6.935  0.00  0.00    -0.346 N 
ATOM     66  CA  LEU d   1      -3.006  -1.357  -7.871  0.00  0.00     0.089 C 
ATOM     67  C   LEU d   1      -4.449  -1.863  -7.881  0.00  0.00     0.241 C 
ATOM     68  O   LEU d   1      -5.394  -1.075  -7.876  0.00  0.00    -0.271 OA
ATOM     69  H65 LEU d   1      -1.393  -2.621  -7.276  0.00  0.00     0.163 HD
ATOM     70  H66 LEU d   1      -3.012  -0.307  -7.544  0.00  0.00     0.087 H 
ENDROOT
BRANCH  19  71
ATOM     71  C   CYS d   1      -7.586   0.701  -5.180  0.00  0.00     0.241 C 
ATOM     72  O   CYS d   1      -8.436   1.442  -4.684  0.00  0.00    -0.271 OA
ATOM     73  N   MET d   1      -7.678   0.218  -6.414  0.00  0.00    -0.346 N 
ATOM     74 6H10 MET d   1      -6.955  -0.380  -6.759  0.00  0.00     0.163 HD
BRANCH  73  75
ATOM     75  CA  MET d   1      -8.808   0.539  -7.278  0.00  0.00     0.090 C 
ATOM     76 7H10 MET d   1      -8.991   1.622  -7.223  0.00  0.00     0.087 H 
BRANCH  75  77
ATOM     77  C   MET d   1     -10.070  -0.190  -6.822  0.00  0.00     0.241 C 
ATOM     78  O   MET d   1     -11.117   0.426  -6.628  0.00  0.00    -0.271 OA
ATOM     79  N   TYR d   1      -9.960  -1.503  -6.656  0.00  0.00    -0.346 N 
ATOM     80 5H11 TYR d   1      -9.080  -1.945  -6.831  0.00  0.00     0.163 HD
BRANCH  79  81
ATOM     81  CA  TYR d   1     -11.091  -2.316  -6.225  0.00  0.00     0.093 C 
ATOM     82 6H11 TYR d   1     -11.975  -2.018  -6.808  0.00  0.00     0.088 H 
BRANCH  81  83
ATOM     83  C   TYR d   1     -11.392  -2.089  -4.743  0.00  0.00     0.241 C 
ATOM     84  O   TYR d   1     -11.149  -2.958  -3.904  0.00  0.00    -0.271 OA
ATOM     85  N   GLY d   1     -11.923  -0.912  -4.429  0.00  0.00    -0.349 N 
ATOM     86 4H12 GLY d   1     -12.101  -0.242  -5.150  0.00  0.00     0.163 HD
BRANCH  85  87
ATOM     87  CA  GLY d   1     -12.248  -0.587  -3.054  0.00  0.00     0.075 C 
ATOM     88 5H12 GLY d   1     -11.373  -0.109  -2.588  0.00  0.00     0.080 H 
ATOM     89 6H12 GLY d   1     -12.486  -1.518  -2.518  0.00  0.00     0.080 H 
BRANCH  87  90
ATOM     90  C   GLY d   1     -13.433   0.354  -2.943  0.00  0.00     0.191 C 
ATOM     91  O   GLY d   1     -14.355   0.247  -3.778  0.00  0.00    -0.647 OA
ATOM     92  OXT GLY d   1     -13.436   1.198  -2.023  0.00  0.00    -0.647 OA
ENDBRANCH  87  90
ENDBRANCH  85  87
ENDBRANCH  81  83
BRANCH  81  93
ATOM     93  CB  TYR d   1     -10.810  -3.799  -6.490  0.00  0.00    -0.014 C 
ATOM     94 7H11 TYR d   1     -11.496  -4.399  -5.873  0.00  0.00     0.043 H 
ATOM     95 8H11 TYR d   1      -9.771  -4.014  -6.198  0.00  0.00     0.043 H 
BRANCH  93  96
ATOM     96  CG  TYR d   1     -10.993  -4.200  -7.937  0.00  0.00    -0.056 A 
ATOM     97  CD1 TYR d   1     -12.260  -4.437  -8.457  0.00  0.00    -0.074 A 
ATOM     98  CE1 TYR d   1     -12.431  -4.803  -9.778  0.00  0.00    -0.051 A 
ATOM     99 9H11 TYR d   1     -13.128  -4.333  -7.816  0.00  0.00     0.084 H 
ATOM    100  CZ  TYR d   1     -11.330  -4.939 -10.597  0.00  0.00     0.065 A 
ATOM    101 1H12 TYR d   1     -13.426  -4.982 -10.169  0.00  0.00     0.087 H 
ATOM    102  CE2 TYR d   1     -10.063  -4.710 -10.105  0.00  0.00    -0.051 A 
ATOM    103  CD2 TYR d   1      -9.899  -4.344  -8.781  0.00  0.00    -0.074 A 
ATOM    104 2H12 TYR d   1      -9.200  -4.816 -10.752  0.00  0.00     0.087 H 
ATOM    105 0H12 TYR d   1      -8.901  -4.167  -8.396  0.00  0.00     0.084 H 
BRANCH 100 106
ATOM    106  OH  TYR d   1     -11.498  -5.304 -11.913  0.00  0.00    -0.361 OA
ATOM    107 3H12 TYR d   1     -12.423  -5.423 -12.092  0.00  0.00     0.217 HD
ENDBRANCH 100 106
ENDBRANCH  93  96
ENDBRANCH  81  93
ENDBRANCH  79  81
ENDBRANCH  75  77
BRANCH  75 108
ATOM    108  CB  MET d   1      -8.491   0.170  -8.729  0.00  0.00    -0.030 C 
ATOM    109 8H10 MET d   1      -8.544  -0.924  -8.829  0.00  0.00     0.037 H 
ATOM    110 9H10 MET d   1      -7.471   0.511  -8.960  0.00  0.00     0.037 H 
BRANCH 108 111
ATOM    111  CG  MET d   1      -9.444   0.791  -9.736  0.00  0.00    -0.021 C 
ATOM    112 0H11 MET d   1      -9.293   1.881  -9.738  0.00  0.00     0.049 H 
ATOM    113 1H11 MET d   1     -10.476   0.564  -9.431  0.00  0.00     0.049 H 
BRANCH 111 114
ATOM    114  SD  MET d   1      -9.186   0.169 -11.408  0.00  0.00    -0.173 SA
BRANCH 114 115
ATOM    115  CE  MET d   1     -10.336  -1.204 -11.441  0.00  0.00    -0.035 C 
ATOM    116 2H11 MET d   1     -10.292  -1.696 -12.424  0.00  0.00     0.041 H 
ATOM    117 3H11 MET d   1     -11.356  -0.833 -11.263  0.00  0.00     0.041 H 
ATOM    118 4H11 MET d   1     -10.067  -1.927 -10.657  0.00  0.00     0.041 H 
ENDBRANCH 114 115
ENDBRANCH 111 114
ENDBRANCH 108 111
ENDBRANCH  75 108
ENDBRANCH  73  75
ENDBRANCH  19  71
BRANCH   6 119
ATOM    119  CB  ARG d   1      -5.692  -3.932  -3.062  0.00  0.00    -0.036 C 
ATOM    120  H91 ARG d   1      -6.068  -3.526  -2.111  0.00  0.00     0.036 H 
ATOM    121  H92 ARG d   1      -4.696  -3.514  -3.271  0.00  0.00     0.036 H 
BRANCH 119 122
ATOM    122  CG  ARG d   1      -5.561  -5.440  -2.923  0.00  0.00    -0.048 C 
ATOM    123  H93 ARG d   1      -4.803  -5.800  -3.634  0.00  0.00     0.035 H 
ATOM    124  H94 ARG d   1      -6.530  -5.906  -3.153  0.00  0.00     0.035 H 
BRANCH 122 125
ATOM    125  CD  ARG d   1      -5.145  -5.834  -1.515  0.00  0.00     0.009 C 
ATOM    126  H95 ARG d   1      -5.342  -6.907  -1.374  0.00  0.00     0.064 H 
ATOM    127  H96 ARG d   1      -5.739  -5.254  -0.794  0.00  0.00     0.064 H 
BRANCH 125 128
ATOM    128  NE  ARG d   1      -3.725  -5.579  -1.270  0.00  0.00    -0.227 N 
ATOM    129  CZ  ARG d   1      -3.163  -5.552  -0.058  0.00  0.00     0.665 C 
ATOM    130  NH1 ARG d   1      -3.889  -5.763   1.036  0.00  0.00    -0.235 N 
ATOM    131  NH2 ARG d   1      -1.865  -5.310   0.059  0.00  0.00    -0.235 N 
ATOM    132  H98 ARG d   1      -3.442  -5.739   1.964  0.00  0.00     0.174 HD
ATOM    133  H99 ARG d   1      -4.899  -5.950   0.956  0.00  0.00     0.174 HD
ATOM    134 0H10 ARG d   1      -1.294  -5.145  -0.782  0.00  0.00     0.174 HD
ATOM    135 1H10 ARG d   1      -1.427  -5.287   0.991  0.00  0.00     0.174 HD
ATOM    136  H97 ARG d   1      -3.119  -5.409  -2.085  0.00  0.00     0.177 HD
ENDBRANCH 125 128
ENDBRANCH 122 125
ENDBRANCH 119 122
ENDBRANCH   6 119
BRANCH  13 137
ATOM    137  N   CYS d   1       0.263   3.070  -3.041  0.00  0.00    -0.345 N 
ATOM    138  C   ASN d   1       0.950   2.528  -2.041  0.00  0.00     0.241 C 
ATOM    139  O   ASN d   1       1.016   1.312  -1.854  0.00  0.00    -0.271 OA
ATOM    140  H22 CYS d   1       0.247   4.065  -3.139  0.00  0.00     0.163 HD
BRANCH 138 141
ATOM    141  CA  ASN d   1       1.670   3.500  -1.112  0.00  0.00     0.097 C 
ATOM    142  H17 ASN d   1       1.270   4.510  -1.286  0.00  0.00     0.088 H 
BRANCH 141 143
ATOM    143  N   ASN d   1       1.446   3.150   0.286  0.00  0.00    -0.346 N 
ATOM    144  C   ARG d   1       0.238   3.214   0.837  0.00  0.00     0.249 C 
ATOM    145  O   ARG d   1      -0.762   3.571   0.216  0.00  0.00    -0.271 OA
ATOM    146  H16 ASN d   1       2.221   2.854   0.844  0.00  0.00     0.163 HD
BRANCH 144 147
ATOM    147  CA  ARG d   1       0.148   2.819   2.307  0.00  0.00     0.176 C 
ATOM    148  H4  ARG d   1       0.748   3.525   2.899  0.00  0.00     0.099 H 
BRANCH 147 149
ATOM    149  N   ARG d   1      -1.258   2.856   2.787  0.00  0.00    -0.067 N 
ATOM    150  H1  ARG d   1      -1.288   2.591   3.759  0.00  0.00     0.275 HD
ATOM    151  H2  ARG d   1      -1.815   2.213   2.246  0.00  0.00     0.275 HD
ATOM    152  H3  ARG d   1      -1.625   3.789   2.681  0.00  0.00     0.275 HD
ENDBRANCH 147 149
BRANCH 147 153
ATOM    153  CB  ARG d   1       0.693   1.403   2.508  0.00  0.00    -0.029 C 
ATOM    154  H5  ARG d   1       0.740   1.198   3.588  0.00  0.00     0.036 H 
ATOM    155  H6  ARG d   1       1.706   1.357   2.082  0.00  0.00     0.036 H 
BRANCH 153 156
ATOM    156  CG  ARG d   1      -0.154   0.325   1.851  0.00  0.00    -0.047 C 
ATOM    157  H7  ARG d   1      -0.679   0.759   0.987  0.00  0.00     0.035 H 
ATOM    158  H8  ARG d   1      -0.891  -0.044   2.580  0.00  0.00     0.035 H 
BRANCH 156 159
ATOM    159  CD  ARG d   1       0.699  -0.841   1.376  0.00  0.00     0.009 C 
ATOM    160  H9  ARG d   1       1.328  -0.503   0.539  0.00  0.00     0.064 H 
ATOM    161  H10 ARG d   1       0.036  -1.649   1.033  0.00  0.00     0.064 H 
BRANCH 159 162
ATOM    162  NE  ARG d   1       1.563  -1.357   2.438  0.00  0.00    -0.227 N 
ATOM    163  CZ  ARG d   1       2.672  -2.071   2.226  0.00  0.00     0.665 C 
ATOM    164  NH1 ARG d   1       3.069  -2.363   0.991  0.00  0.00    -0.235 N 
ATOM    165  NH2 ARG d   1       3.388  -2.494   3.258  0.00  0.00    -0.235 N 
ATOM    166  H12 ARG d   1       3.926  -2.914   0.842  0.00  0.00     0.174 HD
ATOM    167  H13 ARG d   1       2.519  -2.038   0.183  0.00  0.00     0.174 HD
ATOM    168  H14 ARG d   1       3.088  -2.273   4.218  0.00  0.00     0.174 HD
ATOM    169  H15 ARG d   1       4.244  -3.044   3.100  0.00  0.00     0.174 HD
ATOM    170  H11 ARG d   1       1.299  -1.157   3.413  0.00  0.00     0.177 HD
ENDBRANCH 159 162
ENDBRANCH 156 159
ENDBRANCH 153 156
ENDBRANCH 147 153
ENDBRANCH 144 147
ENDBRANCH 141 143
BRANCH 141 171
ATOM    171  CB  ASN d   1       3.168   3.508  -1.423  0.00  0.00     0.036 C 
ATOM    172  H18 ASN d   1       3.304   3.405  -2.510  0.00  0.00     0.051 H 
ATOM    173  H19 ASN d   1       3.639   2.655  -0.912  0.00  0.00     0.051 H 
BRANCH 171 174
ATOM    174  CG  ASN d   1       3.846   4.785  -0.966  0.00  0.00     0.217 C 
ATOM    175  OD1 ASN d   1       3.913   5.766  -1.706  0.00  0.00    -0.274 OA
ATOM    176  ND2 ASN d   1       4.355   4.778   0.262  0.00  0.00    -0.370 N 
ATOM    177  H20 ASN d   1       4.814   5.592   0.618  0.00  0.00     0.159 HD
ATOM    178  H21 ASN d   1       4.279   3.959   0.830  0.00  0.00     0.159 HD
ENDBRANCH 171 174
ENDBRANCH 141 171
ENDBRANCH 138 141
ENDBRANCH  13 137
BRANCH   2 179
ATOM    179  CB  ARG d   1      -5.815  -5.307  -8.096  0.00  0.00    -0.036 C 
ATOM    180  H78 ARG d   1      -6.743  -5.775  -7.736  0.00  0.00     0.036 H 
ATOM    181  H79 ARG d   1      -4.966  -5.668  -7.497  0.00  0.00     0.036 H 
BRANCH 179 182
ATOM    182  CG  ARG d   1      -5.596  -5.724  -9.541  0.00  0.00    -0.048 C 
ATOM    183  H80 ARG d   1      -4.551  -5.519  -9.818  0.00  0.00     0.035 H 
ATOM    184  H81 ARG d   1      -6.268  -5.140 -10.187  0.00  0.00     0.035 H 
BRANCH 182 185
ATOM    185  CD  ARG d   1      -5.879  -7.204  -9.743  0.00  0.00     0.009 C 
ATOM    186  H82 ARG d   1      -6.050  -7.390 -10.813  0.00  0.00     0.064 H 
ATOM    187  H83 ARG d   1      -6.782  -7.474  -9.175  0.00  0.00     0.064 H 
BRANCH 185 188
ATOM    188  NE  ARG d   1      -4.768  -8.041  -9.290  0.00  0.00    -0.227 N 
ATOM    189  CZ  ARG d   1      -4.876  -9.342  -9.002  0.00  0.00     0.665 C 
ATOM    190  NH1 ARG d   1      -6.041  -9.972  -9.114  0.00  0.00    -0.235 N 
ATOM    191  NH2 ARG d   1      -3.807 -10.015  -8.599  0.00  0.00    -0.235 N 
ATOM    192  H85 ARG d   1      -6.108 -10.975  -8.888  0.00  0.00     0.174 HD
ATOM    193  H86 ARG d   1      -6.877  -9.457  -9.426  0.00  0.00     0.174 HD
ATOM    194  H87 ARG d   1      -2.900  -9.535  -8.509  0.00  0.00     0.174 HD
ATOM    195  H88 ARG d   1      -3.884 -11.018  -8.376  0.00  0.00     0.174 HD
ATOM    196  H84 ARG d   1      -3.843  -7.600  -9.186  0.00  0.00     0.177 HD
ENDBRANCH 185 188
ENDBRANCH 182 185
ENDBRANCH 179 182
ENDBRANCH   2 179
BRANCH  30 197
ATOM    197  CB  PHE d   1       2.747   3.486  -7.382  0.00  0.00    -0.014 C 
ATOM    198  H28 PHE d   1       3.570   3.200  -8.053  0.00  0.00     0.043 H 
ATOM    199  H29 PHE d   1       3.108   4.226  -6.653  0.00  0.00     0.043 H 
BRANCH 197 200
ATOM    200  CG  PHE d   1       1.663   4.125  -8.208  0.00  0.00    -0.056 A 
ATOM    201  CD1 PHE d   1       0.799   3.349  -8.966  0.00  0.00    -0.077 A 
ATOM    202  CE1 PHE d   1      -0.194   3.933  -9.728  0.00  0.00    -0.082 A 
ATOM    203  H30 PHE d   1       0.904   2.270  -8.960  0.00  0.00     0.084 H 
ATOM    204  CZ  PHE d   1      -0.335   5.306  -9.740  0.00  0.00    -0.083 A 
ATOM    205  H32 PHE d   1      -0.862   3.314 -10.316  0.00  0.00     0.083 H 
ATOM    206  CE2 PHE d   1       0.520   6.092  -8.990  0.00  0.00    -0.082 A 
ATOM    207  H34 PHE d   1      -1.114   5.767 -10.336  0.00  0.00     0.083 H 
ATOM    208  CD2 PHE d   1       1.512   5.501  -8.230  0.00  0.00    -0.077 A 
ATOM    209  H33 PHE d   1       0.413   7.171  -8.998  0.00  0.00     0.083 H 
ATOM    210  H31 PHE d   1       2.180   6.122  -7.644  0.00  0.00     0.084 H 
ENDBRANCH 197 200
ENDBRANCH  30 197
BRANCH  66 211
ATOM    211  CB  LEU d   1      -2.400  -1.420  -9.281  0.00  0.00    -0.035 C 
ATOM    212  H67 LEU d   1      -3.036  -2.072  -9.898  0.00  0.00     0.037 H 
ATOM    213  H68 LEU d   1      -1.394  -1.858  -9.201  0.00  0.00     0.037 H 
BRANCH 211 214
ATOM    214  CG  LEU d   1      -2.275  -0.068  -9.990  0.00  0.00    -0.059 C 
ATOM    215  H69 LEU d   1      -1.933   0.677  -9.257  0.00  0.00     0.038 H 
BRANCH 214 216
ATOM    216  CD1 LEU d   1      -1.250  -0.141 -11.111  0.00  0.00    -0.073 C 
ATOM    217  H70 LEU d   1      -1.177   0.839 -11.605  0.00  0.00     0.028 H 
ATOM    218  H71 LEU d   1      -1.562  -0.899 -11.844  0.00  0.00     0.028 H 
ATOM    219  H72 LEU d   1      -0.270  -0.415 -10.694  0.00  0.00     0.028 H 
ENDBRANCH 214 216
BRANCH 214 220
ATOM    220  CD2 LEU d   1      -3.626   0.377 -10.531  0.00  0.00    -0.073 C 
ATOM    221  H73 LEU d   1      -4.353   0.424  -9.707  0.00  0.00     0.028 H 
ATOM    222  H74 LEU d   1      -3.974  -0.343 -11.287  0.00  0.00     0.028 H 
ATOM    223  H75 LEU d   1      -3.527   1.372 -10.990  0.00  0.00     0.028 H 
ENDBRANCH 214 220
ENDBRANCH 211 214
ENDBRANCH  66 211
BRANCH  36 224
ATOM    224  CB  GLU d   1       4.055  -0.815  -3.556  0.00  0.00    -0.029 C 
ATOM    225  H37 GLU d   1       3.372  -1.673  -3.469  0.00  0.00     0.037 H 
ATOM    226  H38 GLU d   1       3.576   0.080  -3.133  0.00  0.00     0.037 H 
BRANCH 224 227
ATOM    227  CG  GLU d   1       5.309  -1.115  -2.751  0.00  0.00     0.018 C 
ATOM    228  H39 GLU d   1       5.840  -1.953  -3.226  0.00  0.00     0.049 H 
ATOM    229  H40 GLU d   1       5.013  -1.399  -1.730  0.00  0.00     0.049 H 
BRANCH 227 230
ATOM    230  CD  GLU d   1       6.248   0.073  -2.671  0.00  0.00     0.172 C 
ATOM    231  OE1 GLU d   1       7.061   0.250  -3.602  0.00  0.00    -0.648 OA
ATOM    232  OE2 GLU d   1       6.172   0.825  -1.676  0.00  0.00    -0.648 OA
ENDBRANCH 227 230
ENDBRANCH 224 227
ENDBRANCH  36 224
BRANCH  58 233
ATOM    233  CB  ALA d   1      -0.322  -2.191  -4.380  0.00  0.00    -0.049 C 
ATOM    234  H62 ALA d   1      -0.639  -1.262  -3.884  0.00  0.00     0.030 H 
ATOM    235  H63 ALA d   1       0.253  -1.946  -5.285  0.00  0.00     0.030 H 
ATOM    236  H64 ALA d   1       0.307  -2.776  -3.694  0.00  0.00     0.030 H 
ENDBRANCH  58 233
BRANCH  42 237
ATOM    237  CB  SER d   1       3.271  -4.953  -5.739  0.00  0.00     0.044 C 
ATOM    238  H43 SER d   1       4.268  -5.025  -5.280  0.00  0.00     0.077 H 
ATOM    239  H44 SER d   1       3.044  -5.888  -6.271  0.00  0.00     0.077 H 
BRANCH 237 240
ATOM    240  OG  SER d   1       2.306  -4.754  -4.720  0.00  0.00    -0.398 OA
ATOM    241  H45 SER d   1       2.331  -5.485  -4.114  0.00  0.00     0.209 HD
ENDBRANCH 237 240
ENDBRANCH  42 237
BRANCH  54 242
ATOM    242  CB  ALA d   1      -1.080  -7.409  -5.471  0.00  0.00    -0.049 C 
ATOM    243  H57 ALA d   1      -1.953  -7.642  -4.844  0.00  0.00     0.030 H 
ATOM    244  H58 ALA d   1      -0.275  -7.003  -4.842  0.00  0.00     0.030 H 
ATOM    245  H59 ALA d   1      -0.730  -8.326  -5.967  0.00  0.00     0.030 H 
ENDBRANCH  54 242
BRANCH  48 246
ATOM    246  CB  VAL d   1       1.088  -6.333 -10.287  0.00  0.00    -0.033 C 
ATOM    247  H48 VAL d   1       1.118  -7.268  -9.708  0.00  0.00     0.042 H 
BRANCH 246 248
ATOM    248  CG1 VAL d   1      -0.029  -6.447 -11.317  0.00  0.00    -0.071 C 
ATOM    249  H49 VAL d   1       0.185  -7.283 -11.999  0.00  0.00     0.028 H 
ATOM    250  H50 VAL d   1      -0.094  -5.512 -11.893  0.00  0.00     0.028 H 
ATOM    251  H51 VAL d   1      -0.985  -6.628 -10.803  0.00  0.00     0.028 H 
ENDBRANCH 246 248
BRANCH 246 252
ATOM    252  CG2 VAL d   1       2.436  -6.151 -10.969  0.00  0.00    -0.071 C 
ATOM    253  H52 VAL d   1       3.225  -6.071 -10.207  0.00  0.00     0.028 H 
ATOM    254  H53 VAL d   1       2.419  -5.234 -11.576  0.00  0.00     0.028 H 
ATOM    255  H54 VAL d   1       2.639  -7.016 -11.617  0.00  0.00     0.028 H 
ENDBRANCH 246 252
ENDBRANCH  48 246
TORSDOF 49
