REMARK  20 active torsions:
REMARK  status: ('A' for Active; 'I' for Inactive)
REMARK    1  A    between atoms: C_1  and  CH3_3 
REMARK       I    between atoms: C_1  and  N_4 
REMARK    2  A    between atoms: N_4  and  CA_5 
REMARK    3  A    between atoms: CA_5  and  C_6 
REMARK    4  A    between atoms: CA_5  and  CB_8 
REMARK       I    between atoms: C_6  and  N_13 
REMARK    5  A    between atoms: CB_8  and  CG_9 
REMARK    6  A    between atoms: CG_9  and  CD1_10 
REMARK    7  A    between atoms: CG_9  and  CD2_11 
REMARK    8  A    between atoms: N_13  and  CA_14 
REMARK    9  A    between atoms: CA_14  and  C_15 
REMARK   10  A    between atoms: CA_14  and  CB_17 
REMARK       I    between atoms: C_15  and  N_22 
REMARK   11  A    between atoms: CB_17  and  CG_18 
REMARK   12  A    between atoms: CG_18  and  CD1_19 
REMARK   13  A    between atoms: CG_18  and  CD2_20 
REMARK   14  A    between atoms: N_22  and  CA_23 
REMARK   15  A    between atoms: CA_23  and  C_24 
REMARK   16  A    between atoms: CA_23  and  CB_26 
REMARK   17  A    between atoms: C_24  and  O_25 
REMARK   18  A    between atoms: CB_26  and  CG_27 
REMARK   19  A    between atoms: CG_27  and  CD_28 
REMARK   20  A    between atoms: CD_28  and  NE_29 
REMARK       I    between atoms: NE_29  and  CZ_30 
REMARK       I    between atoms: CZ_30  and  NH1_31 
ROOT
ATOM      1  CA  LEU d   1      23.083  69.793  21.093  0.00  0.00     0.089 C 
ATOM      2  H16 LEU d   1      23.200  68.845  21.638  0.00  0.00     0.087 H 
ENDROOT
BRANCH   1   3
ATOM      3  N   LEU d   1      21.703  70.252  21.132  0.00  0.00    -0.346 N 
ATOM      4  C   LEU d   1      20.805  69.721  21.952  0.00  0.00     0.241 C 
ATOM      5  O   LEU d   1      21.050  68.757  22.701  0.00  0.00    -0.271 OA
ATOM      6  H15 LEU d   1      21.422  70.992  20.521  0.00  0.00     0.163 HD
BRANCH   4   7
ATOM      7  CA  LEU d   1      19.398  70.344  21.893  0.00  0.00     0.089 C 
ATOM      8  H5  LEU d   1      19.264  70.885  20.945  0.00  0.00     0.087 H 
BRANCH   7   9
ATOM      9  N   LEU d   1      18.439  69.252  21.984  0.00  0.00    -0.348 N 
ATOM     10  C   ACE d   1      18.109  68.489  20.942  0.00  0.00     0.214 C 
ATOM     11  O   ACE d   1      18.426  68.697  19.759  0.00  0.00    -0.274 OA
ATOM     12  H4  LEU d   1      18.009  69.066  22.867  0.00  0.00     0.163 HD
BRANCH  10  13
ATOM     13  CH3 ACE d   1      17.215  67.336  21.356  0.00  0.00    -0.003 C 
ATOM     14  H1  ACE d   1      17.075  67.354  22.447  0.00  0.00     0.040 H 
ATOM     15  H2  ACE d   1      17.683  66.385  21.062  0.00  0.00     0.040 H 
ATOM     16  H3  ACE d   1      16.238  67.433  20.859  0.00  0.00     0.040 H 
ENDBRANCH  10  13
ENDBRANCH   7   9
BRANCH   7  17
ATOM     17  CB  LEU d   1      19.210  71.317  23.069  0.00  0.00    -0.035 C 
ATOM     18  H6  LEU d   1      20.209  71.602  23.431  0.00  0.00     0.037 H 
ATOM     19  H7  LEU d   1      18.671  70.781  23.864  0.00  0.00     0.037 H 
BRANCH  17  20
ATOM     20  CG  LEU d   1      18.441  72.599  22.769  0.00  0.00    -0.059 C 
ATOM     21  H8  LEU d   1      18.988  73.185  22.016  0.00  0.00     0.038 H 
BRANCH  20  22
ATOM     22  CD1 LEU d   1      17.044  72.317  22.255  0.00  0.00    -0.073 C 
ATOM     23  H9  LEU d   1      16.529  73.268  22.053  0.00  0.00     0.028 H 
ATOM     24  H10 LEU d   1      16.483  71.749  23.012  0.00  0.00     0.028 H 
ATOM     25  H11 LEU d   1      17.106  71.729  21.327  0.00  0.00     0.028 H 
ENDBRANCH  20  22
BRANCH  20  26
ATOM     26  CD2 LEU d   1      18.348  73.384  24.072  0.00  0.00    -0.073 C 
ATOM     27  H12 LEU d   1      19.361  73.591  24.448  0.00  0.00     0.028 H 
ATOM     28  H13 LEU d   1      17.793  72.794  24.817  0.00  0.00     0.028 H 
ATOM     29  H14 LEU d   1      17.823  74.334  23.891  0.00  0.00     0.028 H 
ENDBRANCH  20  26
ENDBRANCH  17  20
ENDBRANCH   7  17
ENDBRANCH   4   7
ENDBRANCH   1   3
BRANCH   1  30
ATOM     30  C   LEU d   1      23.841  70.913  21.780  0.00  0.00     0.240 C 
ATOM     31  O   LEU d   1      23.447  72.071  21.641  0.00  0.00    -0.271 OA
ATOM     32  N   AR7 d   1      24.815  70.497  22.585  0.00  0.00    -0.353 N 
ATOM     33  H26 AR7 d   1      24.944  69.510  22.685  0.00  0.00     0.163 HD
BRANCH  32  34
ATOM     34  CA  AR7 d   1      25.707  71.374  23.331  0.00  0.00     0.032 C 
ATOM     35  H27 AR7 d   1      25.436  72.414  23.098  0.00  0.00     0.075 H 
BRANCH  34  36
ATOM     36  C   AR7 d   1      27.186  71.171  22.974  0.00  0.00     0.035 C 
ATOM     37  H28 AR7 d   1      27.279  71.156  21.878  0.00  0.00     0.077 H 
ATOM     38  H29 AR7 d   1      27.511  70.203  23.383  0.00  0.00     0.077 H 
BRANCH  36  39
ATOM     39  O   AR7 d   1      28.060  72.198  23.490  0.00  0.00    -0.399 OA
ATOM     40  H30 AR7 d   1      28.955  72.010  23.232  0.00  0.00     0.209 HD
ENDBRANCH  36  39
ENDBRANCH  34  36
BRANCH  34  41
ATOM     41  CB  AR7 d   1      25.529  71.139  24.829  0.00  0.00    -0.043 C 
ATOM     42  H31 AR7 d   1      26.490  71.335  25.328  0.00  0.00     0.036 H 
ATOM     43  H32 AR7 d   1      25.242  70.088  24.984  0.00  0.00     0.036 H 
BRANCH  41  44
ATOM     44  CG  AR7 d   1      24.471  72.023  25.463  0.00  0.00    -0.048 C 
ATOM     45  H33 AR7 d   1      24.076  72.690  24.683  0.00  0.00     0.035 H 
ATOM     46  H34 AR7 d   1      24.956  72.623  26.247  0.00  0.00     0.035 H 
BRANCH  44  47
ATOM     47  CD  AR7 d   1      23.298  71.294  26.092  0.00  0.00     0.009 C 
ATOM     48  H35 AR7 d   1      22.882  70.602  25.345  0.00  0.00     0.064 H 
ATOM     49  H36 AR7 d   1      22.536  72.039  26.366  0.00  0.00     0.064 H 
BRANCH  47  50
ATOM     50  NE  AR7 d   1      23.637  70.524  27.291  0.00  0.00    -0.227 N 
ATOM     51  CZ  AR7 d   1      23.254  69.228  27.457  0.00  0.00     0.665 C 
ATOM     52  NH1 AR7 d   1      22.528  68.591  26.502  0.00  0.00    -0.235 N 
ATOM     53  NH2 AR7 d   1      23.591  68.564  28.583  0.00  0.00    -0.235 N 
ATOM     54  H38 AR7 d   1      22.244  67.610  26.639  0.00  0.00     0.174 HD
ATOM     55  H39 AR7 d   1      22.261  69.088  25.640  0.00  0.00     0.174 HD
ATOM     56  H40 AR7 d   1      24.141  69.037  29.314  0.00  0.00     0.174 HD
ATOM     57  H41 AR7 d   1      23.298  67.585  28.711  0.00  0.00     0.174 HD
ATOM     58  H37 AR7 d   1      24.185  70.979  28.035  0.00  0.00     0.177 HD
ENDBRANCH  47  50
ENDBRANCH  44  47
ENDBRANCH  41  44
ENDBRANCH  34  41
ENDBRANCH  32  34
ENDBRANCH   1  30
BRANCH   1  59
ATOM     59  CB  LEU d   1      23.564  69.614  19.635  0.00  0.00    -0.035 C 
ATOM     60  H17 LEU d   1      24.639  69.388  19.681  0.00  0.00     0.037 H 
ATOM     61  H18 LEU d   1      23.414  70.580  19.130  0.00  0.00     0.037 H 
BRANCH  59  62
ATOM     62  CG  LEU d   1      22.914  68.527  18.728  0.00  0.00    -0.059 C 
ATOM     63  H19 LEU d   1      23.528  68.392  17.826  0.00  0.00     0.038 H 
BRANCH  62  64
ATOM     64  CD1 LEU d   1      22.836  67.215  19.515  0.00  0.00    -0.073 C 
ATOM     65  H20 LEU d   1      22.378  66.437  18.886  0.00  0.00     0.028 H 
ATOM     66  H21 LEU d   1      22.224  67.364  20.417  0.00  0.00     0.028 H 
ATOM     67  H22 LEU d   1      23.849  66.902  19.807  0.00  0.00     0.028 H 
ENDBRANCH  62  64
BRANCH  62  68
ATOM     68  CD2 LEU d   1      21.489  68.904  18.324  0.00  0.00    -0.073 C 
ATOM     69  H23 LEU d   1      21.506  69.845  17.755  0.00  0.00     0.028 H 
ATOM     70  H24 LEU d   1      20.874  69.033  19.227  0.00  0.00     0.028 H 
ATOM     71  H25 LEU d   1      21.061  68.106  17.700  0.00  0.00     0.028 H 
ENDBRANCH  62  68
ENDBRANCH  59  62
ENDBRANCH   1  59
TORSDOF 20
