REMARK  8 active torsions:
REMARK  status: ('A' for Active; 'I' for Inactive)
REMARK    1  A    between atoms: P4_4  and  O5_5 
REMARK    2  A    between atoms: O5_5  and  P8_8 
REMARK    3  A    between atoms: P8_8  and  O9_9 
REMARK    4  A    between atoms: O9_9  and  C10_10 
REMARK    5  A    between atoms: C10_10  and  C11_11 
REMARK    6  A    between atoms: C12_12  and  C13_13 
REMARK    7  A    between atoms: C12_12  and  C14_14 
REMARK    8  A    between atoms: C13_13  and  O15_15 
ROOT
ATOM      1  C10 EIP d   1       9.757   7.242  12.417  0.00  0.00     0.047 C 
ATOM      2  H1  EIP d   1       8.674   7.349  12.260  0.00  0.00     0.081 H 
ATOM      3  H2  EIP d   1      10.269   7.223  11.443  0.00  0.00     0.081 H 
ENDROOT
BRANCH   1   4
ATOM      4  O9  EIP d   1       9.993   5.989  13.071  0.00  0.00    -0.286 OA
BRANCH   4   5
ATOM      5  P8  EIP d   1      10.842   5.061  12.213  0.00  0.00     0.418 P 
ATOM      6  O6  EIP d   1      11.699   5.710  11.410  0.00  0.00    -0.624 OA
ATOM      7  O7  EIP d   1      11.551   4.177  13.202  0.00  0.00    -0.624 OA
BRANCH   5   8
ATOM      8  O5  EIP d   1       9.874   4.114  11.497  0.00  0.00    -0.173 OA
BRANCH   8   9
ATOM      9  P4  EIP d   1      10.222   2.663  11.151  0.00  0.00     0.431 P 
ATOM     10  O1  EIP d   1      11.227   2.685  10.037  0.00  0.00    -0.616 OA
ATOM     11  O2  EIP d   1       9.148   1.957  10.736  0.00  0.00    -0.616 OA
ATOM     12  O3  EIP d   1      10.926   1.984  12.293  0.00  0.00    -0.616 OA
ENDBRANCH   8   9
ENDBRANCH   5   8
ENDBRANCH   4   5
ENDBRANCH   1   4
BRANCH   1  13
ATOM     13  C11 EIP d   1      10.252   8.470  13.195  0.00  0.00    -0.076 C 
ATOM     14  C12 EIP d   1       9.325   8.855  14.184  0.00  0.00    -0.062 C 
ATOM     15  H3  EIP d   1      11.197   8.977  13.007  0.00  0.00     0.080 H 
BRANCH  14  16
ATOM     16  C13 EIP d   1       9.457   9.948  15.094  0.00  0.00     0.036 C 
ATOM     17  H4  EIP d   1       8.705  10.727  14.903  0.00  0.00     0.081 H 
ATOM     18  H5  EIP d   1      10.463  10.391  15.052  0.00  0.00     0.081 H 
BRANCH  16  19
ATOM     19  O15 EIP d   1       9.193   9.195  16.512  0.00  0.00    -0.397 OA
ATOM     20  H9  EIP d   1       9.254   9.825  17.220  0.00  0.00     0.209 HD
ENDBRANCH  16  19
ENDBRANCH  14  16
BRANCH  14  21
ATOM     21  C14 EIP d   1       8.050   8.023  14.305  0.00  0.00    -0.053 C 
ATOM     22  H6  EIP d   1       8.066   7.217  13.556  0.00  0.00     0.033 H 
ATOM     23  H7  EIP d   1       7.175   8.666  14.133  0.00  0.00     0.033 H 
ATOM     24  H8  EIP d   1       7.992   7.586  15.313  0.00  0.00     0.033 H 
ENDBRANCH  14  21
ENDBRANCH   1  13
TORSDOF 8
