REMARK  5 active torsions:
REMARK  status: ('A' for Active; 'I' for Inactive)
REMARK    1  A    between atoms: P_2  and  O5_5 
REMARK    2  A    between atoms: O5_5  and  C5_6 
REMARK    3  A    between atoms: C5_6  and  C4_7 
REMARK    4  A    between atoms: C3_9  and  O3_10 
REMARK    5  A    between atoms: C1_12  and  N9_13 
ROOT
ATOM      1  C4  8OG d   1      -7.671  -5.780  -2.734  0.00  0.00     0.087 C 
ATOM      2  O4  8OG d   1      -8.915  -5.501  -2.083  0.00  0.00    -0.356 OA
ATOM      3  C3  8OG d   1      -8.000  -7.028  -3.555  0.00  0.00     0.066 C 
ATOM      4  C2  8OG d   1      -9.508  -7.265  -3.428  0.00  0.00     0.003 C 
ATOM      5  C1  8OG d   1     -10.099  -6.174  -2.529  0.00  0.00     0.119 C 
ATOM      6  H3  8OG d   1      -6.946  -6.054  -1.954  0.00  0.00     0.090 H 
ATOM      7  H4  8OG d   1      -7.750  -6.843  -4.610  0.00  0.00     0.087 H 
ATOM      8  H6  8OG d   1      -9.692  -8.253  -2.981  0.00  0.00     0.043 H 
ATOM      9  H7  8OG d   1      -9.976  -7.219  -4.423  0.00  0.00     0.043 H 
ATOM     10  H8  8OG d   1     -10.463  -6.692  -1.629  0.00  0.00     0.119 H 
ENDROOT
BRANCH   5  11
ATOM     11  N9  8OG d   1     -11.340  -5.521  -3.003  0.00  0.00    -0.254 N 
ATOM     12  C8  8OG d   1     -11.412  -4.922  -4.233  0.00  0.00     0.331 A 
ATOM     13  N7  8OG d   1     -12.690  -4.433  -4.302  0.00  0.00    -0.300 N 
ATOM     14  O8  8OG d   1     -10.491  -4.833  -5.117  0.00  0.00    -0.246 OA
ATOM     15  C5  8OG d   1     -13.393  -4.714  -3.161  0.00  0.00     0.152 A 
ATOM     16  H9  8OG d   1     -13.062  -3.935  -5.085  0.00  0.00     0.171 HD
ATOM     17  C6  8OG d   1     -14.649  -4.468  -2.725  0.00  0.00     0.279 A 
ATOM     18  C4  8OG d   1     -12.546  -5.408  -2.321  0.00  0.00     0.172 A 
ATOM     19  O6  8OG d   1     -15.447  -3.826  -3.493  0.00  0.00    -0.265 OA
ATOM     20  N1  8OG d   1     -15.114  -4.882  -1.482  0.00  0.00    -0.292 N 
ATOM     21  C2  8OG d   1     -14.244  -5.567  -0.676  0.00  0.00     0.204 A 
ATOM     22  H10 8OG d   1     -16.049  -4.687  -1.187  0.00  0.00     0.172 HD
ATOM     23  N2  8OG d   1     -14.696  -5.966   0.521  0.00  0.00    -0.369 N 
ATOM     24  N3  8OG d   1     -12.926  -5.873  -1.033  0.00  0.00    -0.194 NA
ATOM     25  H11 8OG d   1     -14.075  -6.484   1.159  0.00  0.00     0.159 HD
ATOM     26  H12 8OG d   1     -15.664  -5.755   0.803  0.00  0.00     0.159 HD
ENDBRANCH   5  11
BRANCH   1  27
ATOM     27  C5  8OG d   1      -6.992  -4.678  -3.551  0.00  0.00     0.059 C 
ATOM     28  H1  8OG d   1      -6.775  -3.828  -2.888  0.00  0.00     0.079 H 
ATOM     29  H2  8OG d   1      -6.051  -5.071  -3.964  0.00  0.00     0.079 H 
BRANCH  27  30
ATOM     30  O5  8OG d   1      -7.815  -4.224  -4.629  0.00  0.00    -0.280 OA
BRANCH  30  31
ATOM     31  P   8OG d   1      -7.918  -5.066  -5.997  0.00  0.00     0.422 P 
ATOM     32  O3P 8OG d   1      -8.500  -3.972  -7.025  0.00  0.00    -0.617 OA
ATOM     33  O1P 8OG d   1      -6.552  -5.437  -6.429  0.00  0.00    -0.617 OA
ATOM     34  O2P 8OG d   1      -8.934  -6.130  -5.835  0.00  0.00    -0.617 OA
ENDBRANCH  30  31
ENDBRANCH  27  30
ENDBRANCH   1  27
BRANCH   3  35
ATOM     35  O3  8OG d   1      -7.252  -8.162  -3.107  0.00  0.00    -0.393 OA
ATOM     36  H5  8OG d   1      -7.479  -8.918  -3.635  0.00  0.00     0.210 HD
ENDBRANCH   3  35
TORSDOF 5
