REMARK  10 active torsions:
REMARK  status: ('A' for Active; 'I' for Inactive)
REMARK    1  A    between atoms: CA_3  and  N_2 
REMARK    2  A    between atoms: CA_3  and  C_4 
REMARK    3  A    between atoms: CA_3  and  CB_6 
REMARK    4  A    between atoms: CB_6  and  SG_7 
REMARK    5  A    between atoms: SG_7  and  CD_8 
REMARK    6  A    between atoms: CD_8  and  CE_9 
REMARK    7  A    between atoms: CE_9  and  B_10 
REMARK    8  A    between atoms: B_10  and  O1_11 
REMARK    9  A    between atoms: B_10  and  O3_13 
REMARK   10  A    between atoms: B_10  and  O2_12 
ROOT
ATOM      1  SG  S2C d   1      69.880  53.427  -4.950  0.00  0.00    -0.167 SA
ENDROOT
BRANCH   1   2
ATOM      2  CB  S2C d   1      69.620  55.160  -5.261  0.00  0.00     0.013 C 
ATOM      3  H5  S2C d   1      68.754  55.505  -4.676  0.00  0.00     0.052 H 
ATOM      4  H6  S2C d   1      70.516  55.719  -4.954  0.00  0.00     0.052 H 
BRANCH   2   5
ATOM      5  CA  S2C d   1      69.360  55.411  -6.719  0.00  0.00     0.190 C 
ATOM      6  H4  S2C d   1      69.848  54.632  -7.323  0.00  0.00     0.102 H 
BRANCH   5   7
ATOM      7  N   S2C d   1      69.957  56.722  -7.004  0.00  0.00    -0.065 N 
ATOM      8  H1  S2C d   1      70.940  56.699  -6.783  0.00  0.00     0.275 HD
ATOM      9  H2  S2C d   1      69.503  57.427  -6.444  0.00  0.00     0.275 HD
ATOM     10  H3  S2C d   1      69.837  56.941  -7.981  0.00  0.00     0.275 HD
ENDBRANCH   5   7
BRANCH   5  11
ATOM     11  C   S2C d   1      67.864  55.427  -7.049  0.00  0.00     0.205 C 
ATOM     12  OXT S2C d   1      67.541  54.453  -7.913  0.00  0.00    -0.646 OA
ATOM     13  O   S2C d   1      67.058  56.199  -6.586  0.00  0.00    -0.646 OA
ENDBRANCH   5  11
ENDBRANCH   2   5
ENDBRANCH   1   2
BRANCH   1  14
ATOM     14  CD  S2C d   1      69.659  53.551  -3.186  0.00  0.00    -0.023 C 
ATOM     15  H7  S2C d   1      68.641  53.907  -2.970  0.00  0.00     0.048 H 
ATOM     16  H8  S2C d   1      70.391  54.263  -2.776  0.00  0.00     0.048 H 
BRANCH  14  17
ATOM     17  CE  S2C d   1      69.864  52.193  -2.544  0.00  0.00     0.005 C 
ATOM     18  H9  S2C d   1      70.455  51.571  -3.232  0.00  0.00     0.035 H 
ATOM     19  H10 S2C d   1      68.878  51.732  -2.387  0.00  0.00     0.035 H 
BRANCH  17  20
ATOM     20  B   S2C d   1      70.595  52.246  -1.189  0.00  0.00     0.604 B 
BRANCH  20  21
ATOM     21  O1  S2C d   1      71.454  53.407  -1.091  0.00  0.00    -0.410 OA
ATOM     22  H11 S2C d   1      70.932  54.195  -1.188  0.00  0.00     0.188 HD
ENDBRANCH  20  21
BRANCH  20  23
ATOM     23  O3  S2C d   1      71.419  51.077  -1.038  0.00  0.00    -0.410 OA
ATOM     24  H13 S2C d   1      71.848  51.100  -0.191  0.00  0.00     0.188 HD
ENDBRANCH  20  23
BRANCH  20  25
ATOM     25  O2  S2C d   1      69.681  52.277  -0.061  0.00  0.00    -0.410 OA
ATOM     26  H12 S2C d   1      69.165  53.074  -0.095  0.00  0.00     0.188 HD
ENDBRANCH  20  25
ENDBRANCH  17  20
ENDBRANCH  14  17
ENDBRANCH   1  14
TORSDOF 10
