REMARK  14 active torsions:
REMARK  status: ('A' for Active; 'I' for Inactive)
REMARK    1  A    between atoms: C35_2  and  C34_4 
REMARK    2  A    between atoms: C34_4  and  C32_5 
REMARK    3  A    between atoms: C28_9  and  O27_10 
REMARK    4  A    between atoms: O27_10  and  C26_11 
REMARK    5  A    between atoms: C26_11  and  C25_12 
REMARK    6  A    between atoms: C25_12  and  C17_13 
REMARK    7  A    between atoms: C17_13  and  N09_14 
REMARK    8  A    between atoms: N09_14  and  C16_15 
REMARK    9  A    between atoms: N09_14  and  C08_27 
REMARK   10  A    between atoms: C16_15  and  C18_16 
REMARK   11  A    between atoms: C20_20  and  C39_23 
REMARK   12  A    between atoms: C08_27  and  C07_28 
REMARK   13  A    between atoms: C07_28  and  C01_29 
REMARK   14  A    between atoms: C07_28  and  C10_35 
ROOT
ATOM      1  N09 965 d   1      43.591  13.396  41.119  0.00  0.00    -0.066 N 
ATOM      2  H12 965 d   1      43.172  13.780  41.951  0.00  0.00     0.280 HD
ENDROOT
BRANCH   1   3
ATOM      3  C17 965 d   1      44.100  14.679  40.630  0.00  0.00     0.086 C 
ATOM      4  H10 965 d   1      44.734  14.503  39.748  0.00  0.00     0.076 H 
ATOM      5  H11 965 d   1      43.252  15.321  40.350  0.00  0.00     0.076 H 
BRANCH   3   6
ATOM      6  C25 965 d   1      44.920  15.377  41.703  0.00  0.00    -0.022 C 
ATOM      7  H8  965 d   1      44.672  14.950  42.686  0.00  0.00     0.038 H 
ATOM      8  H9  965 d   1      45.990  15.227  41.498  0.00  0.00     0.038 H 
BRANCH   6   9
ATOM      9  C26 965 d   1      44.617  16.843  41.708  0.00  0.00     0.028 C 
ATOM     10  H6  965 d   1      45.081  17.322  40.834  0.00  0.00     0.075 H 
ATOM     11  H7  965 d   1      43.529  16.998  41.677  0.00  0.00     0.075 H 
BRANCH   9  12
ATOM     12  O27 965 d   1      45.145  17.397  42.893  0.00  0.00    -0.351 OA
BRANCH  12  13
ATOM     13  C28 965 d   1      44.691  18.592  43.361  0.00  0.00     0.069 A 
ATOM     14  C29 965 d   1      43.333  18.734  43.634  0.00  0.00    -0.051 A 
ATOM     15  C30 965 d   1      42.848  19.935  44.145  0.00  0.00    -0.080 A 
ATOM     16  H5  965 d   1      42.654  17.910  43.449  0.00  0.00     0.087 H 
ATOM     17  C31 965 d   1      43.729  20.985  44.385  0.00  0.00    -0.076 A 
ATOM     18  H4  965 d   1      41.791  20.051  44.355  0.00  0.00     0.083 H 
ATOM     19  C32 965 d   1      45.090  20.843  44.120  0.00  0.00    -0.046 A 
ATOM     20  H3  965 d   1      43.354  21.922  44.782  0.00  0.00     0.084 H 
ATOM     21  C33 965 d   1      45.577  19.636  43.605  0.00  0.00    -0.044 A 
ATOM     22  H31 965 d   1      46.634  19.516  43.398  0.00  0.00     0.088 H 
BRANCH  19  23
ATOM     23  C34 965 d   1      45.991  22.048  44.336  0.00  0.00     0.040 C 
ATOM     24  H1  965 d   1      45.618  22.629  45.193  0.00  0.00     0.056 H 
ATOM     25  H2  965 d   1      47.014  21.701  44.545  0.00  0.00     0.056 H 
BRANCH  23  26
ATOM     26  C35 965 d   1      46.006  22.922  43.117  0.00  0.00     0.176 C 
ATOM     27  O37 965 d   1      45.928  22.483  41.966  0.00  0.00    -0.648 OA
ATOM     28  O36 965 d   1      46.154  24.137  43.352  0.00  0.00    -0.648 OA
ENDBRANCH  23  26
ENDBRANCH  19  23
ENDBRANCH  12  13
ENDBRANCH   9  12
ENDBRANCH   6   9
ENDBRANCH   3   6
ENDBRANCH   1   3
BRANCH   1  29
ATOM     29  C16 965 d   1      44.504  12.521  41.826  0.00  0.00     0.109 C 
ATOM     30  H13 965 d   1      45.352  13.122  42.187  0.00  0.00     0.083 H 
ATOM     31  H14 965 d   1      44.868  11.757  41.123  0.00  0.00     0.083 H 
BRANCH  29  32
ATOM     32  C18 965 d   1      43.883  11.827  42.999  0.00  0.00    -0.010 A 
ATOM     33  C23 965 d   1      43.138  12.498  43.950  0.00  0.00    -0.074 A 
ATOM     34  C22 965 d   1      42.580  11.795  45.015  0.00  0.00    -0.082 A 
ATOM     35  H15 965 d   1      42.988  13.568  43.867  0.00  0.00     0.084 H 
ATOM     36  C21 965 d   1      42.742  10.415  45.175  0.00  0.00    -0.067 A 
ATOM     37  H16 965 d   1      41.997  12.339  45.749  0.00  0.00     0.083 H 
ATOM     38  C20 965 d   1      43.479   9.662  44.266  0.00  0.00     0.070 A 
ATOM     39  H17 965 d   1      42.284   9.922  46.025  0.00  0.00     0.084 H 
ATOM     40  C19 965 d   1      44.086  10.381  43.132  0.00  0.00     0.057 A 
ATOM     41 CL4  965 d   1      45.046   9.500  41.913  0.00  0.00    -0.083 Cl
BRANCH  38  42
ATOM     42  C39 965 d   1      43.672   8.164  44.368  0.00  0.00     0.419 C 
ATOM     43  F41 965 d   1      43.097   7.617  43.292  0.00  0.00    -0.166 F 
ATOM     44  F40 965 d   1      43.146   7.681  45.481  0.00  0.00    -0.166 F 
ATOM     45  F42 965 d   1      44.958   7.854  44.374  0.00  0.00    -0.166 F 
ENDBRANCH  38  42
ENDBRANCH  29  32
ENDBRANCH   1  29
BRANCH   1  46
ATOM     46  C08 965 d   1      42.341  12.851  40.595  0.00  0.00     0.095 C 
ATOM     47  H18 965 d   1      42.059  11.986  41.213  0.00  0.00     0.077 H 
ATOM     48  H19 965 d   1      42.519  12.520  39.561  0.00  0.00     0.077 H 
BRANCH  46  49
ATOM     49  C07 965 d   1      41.159  13.837  40.585  0.00  0.00     0.020 C 
ATOM     50  H20 965 d   1      41.548  14.827  40.306  0.00  0.00     0.057 H 
BRANCH  49  51
ATOM     51  C01 965 d   1      40.117  13.455  39.587  0.00  0.00    -0.048 A 
ATOM     52  C02 965 d   1      39.839  12.122  39.259  0.00  0.00    -0.076 A 
ATOM     53  C03 965 d   1      38.864  11.795  38.318  0.00  0.00    -0.082 A 
ATOM     54  H21 965 d   1      40.393  11.329  39.747  0.00  0.00     0.084 H 
ATOM     55  C04 965 d   1      38.142  12.800  37.693  0.00  0.00    -0.083 A 
ATOM     56  H22 965 d   1      38.671  10.756  38.075  0.00  0.00     0.083 H 
ATOM     57  C05 965 d   1      38.428  14.125  37.997  0.00  0.00    -0.082 A 
ATOM     58  H23 965 d   1      37.365  12.555  36.977  0.00  0.00     0.083 H 
ATOM     59  C06 965 d   1      39.393  14.461  38.949  0.00  0.00    -0.076 A 
ATOM     60  H24 965 d   1      37.891  14.915  37.484  0.00  0.00     0.083 H 
ATOM     61  H25 965 d   1      39.578  15.501  39.191  0.00  0.00     0.084 H 
ENDBRANCH  49  51
BRANCH  49  62
ATOM     62  C10 965 d   1      40.562  13.938  41.935  0.00  0.00    -0.048 A 
ATOM     63  C15 965 d   1      40.038  12.811  42.572  0.00  0.00    -0.076 A 
ATOM     64  C14 965 d   1      39.502  12.905  43.858  0.00  0.00    -0.082 A 
ATOM     65  H26 965 d   1      40.047  11.854  42.063  0.00  0.00     0.084 H 
ATOM     66  C13 965 d   1      39.457  14.147  44.489  0.00  0.00    -0.083 A 
ATOM     67  H27 965 d   1      39.125  12.021  44.360  0.00  0.00     0.083 H 
ATOM     68  C12 965 d   1      39.978  15.260  43.843  0.00  0.00    -0.082 A 
ATOM     69  H28 965 d   1      39.019  14.243  45.476  0.00  0.00     0.083 H 
ATOM     70  C11 965 d   1      40.530  15.163  42.570  0.00  0.00    -0.076 A 
ATOM     71  H29 965 d   1      39.954  16.223  44.340  0.00  0.00     0.083 H 
ATOM     72  H30 965 d   1      40.932  16.043  42.080  0.00  0.00     0.084 H 
ENDBRANCH  49  62
ENDBRANCH  46  49
ENDBRANCH   1  46
TORSDOF 14
