REMARK  9 active torsions:
REMARK  status: ('A' for Active; 'I' for Inactive)
REMARK    1  A    between atoms: S12_2  and  C01_4 
REMARK    2  A    between atoms: S12_2  and  N15_10 
REMARK    3  A    between atoms: N15_10  and  C16_11 
REMARK    4  A    between atoms: N15_10  and  C23_16 
REMARK    5  A    between atoms: C16_11  and  C19_12 
REMARK    6  A    between atoms: C26_21  and  C33_22 
REMARK    7  A    between atoms: C33_22  and  C34_23 
REMARK    8  A    between atoms: C33_22  and  O42_27 
REMARK    9  A    between atoms: C33_22  and  C38_28 
ROOT
ATOM      1  N15 444 d   1     -10.433  33.536  41.205  0.00  0.00    -0.164 NA
ENDROOT
BRANCH   1   2
ATOM      2  S12 444 d   1     -11.714  32.268  41.174  0.00  0.00     0.248 S 
ATOM      3  O13 444 d   1     -12.903  32.520  41.908  0.00  0.00    -0.205 OA
ATOM      4  O14 444 d   1     -11.233  30.945  41.500  0.00  0.00    -0.205 OA
BRANCH   2   5
ATOM      5  C01 444 d   1     -12.307  32.240  39.501  0.00  0.00     0.075 A 
ATOM      6  C02 444 d   1     -11.762  31.312  38.546  0.00  0.00    -0.061 A 
ATOM      7  C03 444 d   1     -12.224  31.300  37.209  0.00  0.00    -0.082 A 
ATOM      8  H1  444 d   1     -10.990  30.616  38.854  0.00  0.00     0.085 H 
ATOM      9  C04 444 d   1     -13.224  32.213  36.827  0.00  0.00    -0.083 A 
ATOM     10  H2  444 d   1     -11.814  30.599  36.491  0.00  0.00     0.083 H 
ATOM     11  C05 444 d   1     -13.749  33.139  37.783  0.00  0.00    -0.082 A 
ATOM     12  H3  444 d   1     -13.597  32.215  35.809  0.00  0.00     0.083 H 
ATOM     13  C06 444 d   1     -13.296  33.164  39.129  0.00  0.00    -0.061 A 
ATOM     14  H4  444 d   1     -14.514  33.841  37.471  0.00  0.00     0.083 H 
ATOM     15  H5  444 d   1     -13.700  33.872  39.844  0.00  0.00     0.085 H 
ENDBRANCH   2   5
ENDBRANCH   1   2
BRANCH   1  16
ATOM     16  C16 444 d   1      -9.292  33.272  40.226  0.00  0.00     0.089 C 
ATOM     17  H6  444 d   1      -9.441  33.883  39.324  0.00  0.00     0.071 H 
ATOM     18  H7  444 d   1      -9.290  32.207  39.951  0.00  0.00     0.071 H 
BRANCH  16  19
ATOM     19  C19 444 d   1      -7.983  33.620  40.842  0.00  0.00     0.400 C 
ATOM     20  F22 444 d   1      -7.029  33.116  40.045  0.00  0.00    -0.170 F 
ATOM     21  F21 444 d   1      -7.818  33.167  42.091  0.00  0.00    -0.170 F 
ATOM     22  F20 444 d   1      -7.832  34.923  40.956  0.00  0.00    -0.170 F 
ENDBRANCH  16  19
ENDBRANCH   1  16
BRANCH   1  23
ATOM     23  C23 444 d   1     -10.835  34.982  41.185  0.00  0.00     0.025 A 
ATOM     24  C24 444 d   1     -10.965  35.672  42.397  0.00  0.00    -0.061 A 
ATOM     25  C25 444 d   1     -11.379  37.020  42.458  0.00  0.00    -0.072 A 
ATOM     26  H8  444 d   1     -10.740  35.152  43.321  0.00  0.00     0.086 H 
ATOM     27  C26 444 d   1     -11.693  37.779  41.289  0.00  0.00    -0.006 A 
ATOM     28  H9  444 d   1     -11.462  37.497  43.428  0.00  0.00     0.084 H 
ATOM     29  C27 444 d   1     -11.581  37.074  40.053  0.00  0.00    -0.072 A 
ATOM     30  C28 444 d   1     -11.160  35.725  40.000  0.00  0.00    -0.061 A 
ATOM     31  H11 444 d   1     -11.825  37.587  39.130  0.00  0.00     0.084 H 
ATOM     32  H10 444 d   1     -11.080  35.237  39.035  0.00  0.00     0.086 H 
BRANCH  27  33
ATOM     33  C33 444 d   1     -12.190  39.247  41.480  0.00  0.00     0.281 C 
BRANCH  33  34
ATOM     34  C34 444 d   1     -11.551  40.241  40.502  0.00  0.00     0.431 C 
ATOM     35  F36 444 d   1     -11.967  41.510  40.769  0.00  0.00    -0.167 F 
ATOM     36  F37 444 d   1     -10.218  40.150  40.593  0.00  0.00    -0.167 F 
ATOM     37  F35 444 d   1     -11.819  39.974  39.215  0.00  0.00    -0.167 F 
ENDBRANCH  33  34
BRANCH  33  38
ATOM     38  O42 444 d   1     -11.993  39.783  42.823  0.00  0.00    -0.370 OA
ATOM     39  H12 444 d   1     -11.063  39.872  42.994  0.00  0.00     0.211 HD
ENDBRANCH  33  38
BRANCH  33  40
ATOM     40  C38 444 d   1     -13.728  39.235  41.163  0.00  0.00     0.431 C 
ATOM     41  F39 444 d   1     -14.006  38.764  39.913  0.00  0.00    -0.167 F 
ATOM     42  F40 444 d   1     -14.373  38.394  42.018  0.00  0.00    -0.167 F 
ATOM     43  F41 444 d   1     -14.397  40.411  41.232  0.00  0.00    -0.167 F 
ENDBRANCH  33  40
ENDBRANCH  27  33
ENDBRANCH   1  23
TORSDOF 9
