REMARK  5 active torsions:
REMARK  status: ('A' for Active; 'I' for Inactive)
REMARK    1  A    between atoms: C9_10  and  C1'_11 
REMARK    2  A    between atoms: C2'_12  and  O2'_13 
REMARK    3  A    between atoms: C3'_14  and  O3'_15 
REMARK    4  A    between atoms: C4'_16  and  C5'_18 
REMARK    5  A    between atoms: C5'_18  and  O5'_19 
ROOT
ATOM      1  C1' FMB d   1      91.834  66.078  20.767  0.00  0.00     0.112 A 
ATOM      2  C2' FMB d   1      91.694  64.584  21.165  0.00  0.00     0.093 A 
ATOM      3  C3' FMB d   1      92.766  63.805  20.385  0.00  0.00     0.090 A 
ATOM      4  C4' FMB d   1      93.455  64.811  19.494  0.00  0.00     0.087 A 
ATOM      5  O4' FMB d   1      92.940  66.114  19.824  0.00  0.00    -0.367 OA
ATOM      6  H4  FMB d   1      92.053  66.662  21.673  0.00  0.00     0.097 H 
ATOM      7  H5  FMB d   1      90.697  64.193  20.913  0.00  0.00     0.091 H 
ATOM      8  H7  FMB d   1      92.290  63.005  19.800  0.00  0.00     0.091 H 
ATOM      9  H9  FMB d   1      94.533  64.803  19.712  0.00  0.00     0.090 H 
ENDROOT
BRANCH   1  10
ATOM     10  C9  FMB d   1      90.740  66.727  20.043  0.00  0.00     0.117 A 
ATOM     11  C4  FMB d   1      89.647  66.275  19.309  0.00  0.00     0.120 A 
ATOM     12  N3  FMB d   1      89.254  64.977  19.085  0.00  0.00    -0.239 NA
ATOM     13  C5  FMB d   1      89.005  67.431  18.795  0.00  0.00     0.149 A 
ATOM     14  C2  FMB d   1      88.144  64.800  18.276  0.00  0.00     0.067 A 
ATOM     15  N1  FMB d   1      87.489  65.925  17.708  0.00  0.00    -0.316 N 
ATOM     16  H2  FMB d   1      87.773  63.796  18.075  0.00  0.00     0.143 H 
ATOM     17  C6  FMB d   1      87.871  67.266  17.926  0.00  0.00     0.277 A 
ATOM     18  H1  FMB d   1      86.703  65.755  17.113  0.00  0.00     0.170 HD
ATOM     19  O6  FMB d   1      87.253  68.170  17.384  0.00  0.00    -0.266 OA
ATOM     20  N7  FMB d   1      89.604  68.587  19.221  0.00  0.00    -0.270 N 
ATOM     21  N8  FMB d   1      90.669  68.132  19.992  0.00  0.00    -0.174 NA
ATOM     22  H3  FMB d   1      89.331  69.559  19.019  0.00  0.00     0.189 HD
ENDBRANCH   1  10
BRANCH   2  23
ATOM     23  O2' FMB d   1      91.885  64.563  22.573  0.00  0.00    -0.390 OA
ATOM     24  H6  FMB d   1      91.812  63.670  22.888  0.00  0.00     0.210 HD
ENDBRANCH   2  23
BRANCH   3  25
ATOM     25  O3' FMB d   1      93.818  63.255  21.206  0.00  0.00    -0.390 OA
ATOM     26  H8  FMB d   1      93.443  62.654  21.839  0.00  0.00     0.210 HD
ENDBRANCH   3  25
BRANCH   4  27
ATOM     27  C5' FMB d   1      93.272  64.419  18.016  0.00  0.00     0.043 C 
ATOM     28  H10 FMB d   1      92.288  63.941  17.905  0.00  0.00     0.078 H 
ATOM     29  H11 FMB d   1      94.061  63.700  17.750  0.00  0.00     0.078 H 
BRANCH  27  30
ATOM     30  O5' FMB d   1      93.341  65.516  17.107  0.00  0.00    -0.398 OA
ATOM     31  H12 FMB d   1      93.220  65.199  16.220  0.00  0.00     0.209 HD
ENDBRANCH  27  30
ENDBRANCH   4  27
TORSDOF 5
