REMARK  31 active torsions:
REMARK  status: ('A' for Active; 'I' for Inactive)
REMARK    1  A    between atoms: N_1  and  CA_2 
REMARK    2  A    between atoms: CA_2  and  C_3 
REMARK    3  A    between atoms: CA_2  and  CB_5 
REMARK       I    between atoms: C_3  and  N_13 
REMARK    4  A    between atoms: N_13  and  CA_14 
REMARK    5  A    between atoms: CA_14  and  C_15 
REMARK    6  A    between atoms: CA_14  and  CB_17 
REMARK       I    between atoms: C_15  and  N_33 
REMARK    7  A    between atoms: CB_17  and  CG_18 
REMARK    8  A    between atoms: N_33  and  CA_34 
REMARK    9  A    between atoms: CA_34  and  C_35 
REMARK   10  A    between atoms: CA_34  and  CB_37 
REMARK       I    between atoms: C_35  and  N_43 
REMARK   11  A    between atoms: CA_44  and  C_45 
REMARK       I    between atoms: C_45  and  N_57 
REMARK   12  A    between atoms: CA_58  and  C_59 
REMARK       I    between atoms: C_59  and  N_71 
REMARK   13  A    between atoms: N_71  and  CA_72 
REMARK   14  A    between atoms: CA_72  and  C_73 
REMARK   15  A    between atoms: CA_72  and  CB_75 
REMARK       I    between atoms: C_73  and  N_90 
REMARK   16  A    between atoms: CB_75  and  CG_76 
REMARK   17  A    between atoms: CG_76  and  CD1_77 
REMARK   18  A    between atoms: CG_76  and  CD2_78 
REMARK   19  A    between atoms: CA_91  and  C_92 
REMARK       I    between atoms: C_92  and  N_104 
REMARK   20  A    between atoms: N_104  and  CA_105 
REMARK   21  A    between atoms: CA_105  and  C_106 
REMARK   22  A    between atoms: CA_105  and  CB_108 
REMARK       I    between atoms: C_106  and  N_128 
REMARK   23  A    between atoms: CB_108  and  CG_109 
REMARK   24  A    between atoms: CG_109  and  CD_110 
REMARK   25  A    between atoms: CD_110  and  NE_111 
REMARK       I    between atoms: NE_111  and  CZ_112 
REMARK       I    between atoms: CZ_112  and  NH1_113 
REMARK       I    between atoms: CZ_112  and  NH2_114 
REMARK   26  A    between atoms: N_128  and  CA_129 
REMARK   27  A    between atoms: CA_129  and  C_130 
REMARK   28  A    between atoms: CA_129  and  CB_132 
REMARK   29  A    between atoms: CB_132  and  CG_133 
REMARK   30  A    between atoms: CG_133  and  CD_134 
REMARK   31  A    between atoms: CD_134  and  NE_135 
REMARK       I    between atoms: NE_135  and  CZ_136 
REMARK       I    between atoms: CZ_136  and  NH1_137 
ROOT
ATOM      1  CA  LEU d   1      12.583   8.551   1.542  0.00  0.00     0.090 C 
ATOM      2  H37 LEU d   1      12.279   9.370   0.874  0.00  0.00     0.087 H 
ENDROOT
BRANCH   1   3
ATOM      3  N   LEU d   1      12.086   8.818   2.921  0.00  0.00    -0.346 N 
ATOM      4  C   PRO d   1      10.827   8.623   3.210  0.00  0.00     0.241 C 
ATOM      5  O   PRO d   1      10.041   8.230   2.372  0.00  0.00    -0.271 OA
ATOM      6  H36 LEU d   1      12.716   9.146   3.625  0.00  0.00     0.163 HD
BRANCH   4   7
ATOM      7  CA  PRO d   1      10.377   8.915   4.645  0.00  0.00     0.091 A 
ATOM      8  N   PRO d   1       9.036   9.528   4.643  0.00  0.00    -0.337 N 
ATOM      9  C   PRO d   1       8.798  10.675   4.054  0.00  0.00     0.243 C 
ATOM     10  CD  PRO d   1       7.997   8.751   5.344  0.00  0.00    -0.001 A 
ATOM     11  O   PRO d   1       9.646  11.315   3.465  0.00  0.00    -0.271 OA
ATOM     12  CG  PRO d   1       8.730   7.512   5.881  0.00  0.00    -0.048 A 
ATOM     13  H34 PRO d   1       7.197   8.457   4.648  0.00  0.00     0.064 H 
ATOM     14  H35 PRO d   1       7.567   9.336   6.171  0.00  0.00     0.064 H 
ATOM     15  CB  PRO d   1      10.212   7.609   5.434  0.00  0.00    -0.036 A 
ATOM     16  H32 PRO d   1       8.671   7.489   6.979  0.00  0.00     0.035 H 
ATOM     17  H33 PRO d   1       8.274   6.599   5.470  0.00  0.00     0.035 H 
ATOM     18  H30 PRO d   1      10.869   7.619   6.316  0.00  0.00     0.036 H 
ATOM     19  H31 PRO d   1      10.468   6.751   4.795  0.00  0.00     0.036 H 
ATOM     20  H29 PRO d   1      11.107   9.576   5.135  0.00  0.00     0.087 H 
BRANCH   9  21
ATOM     21  CA  PRO d   1       7.355  11.193   4.134  0.00  0.00     0.092 A 
ATOM     22  N   PRO d   1       7.278  12.360   5.035  0.00  0.00    -0.337 N 
ATOM     23  C   ALA d   1       7.572  12.276   6.311  0.00  0.00     0.243 C 
ATOM     24  CD  PRO d   1       6.853  13.615   4.389  0.00  0.00    -0.001 A 
ATOM     25  O   ALA d   1       7.928  11.250   6.853  0.00  0.00    -0.271 OA
ATOM     26  CG  PRO d   1       6.583  13.232   2.926  0.00  0.00    -0.048 A 
ATOM     27  H27 PRO d   1       7.649  14.371   4.451  0.00  0.00     0.064 H 
ATOM     28  H28 PRO d   1       5.940  14.004   4.862  0.00  0.00     0.064 H 
ATOM     29  CB  PRO d   1       6.904  11.724   2.766  0.00  0.00    -0.036 A 
ATOM     30  H25 PRO d   1       5.527  13.419   2.679  0.00  0.00     0.035 H 
ATOM     31  H26 PRO d   1       7.226  13.825   2.259  0.00  0.00     0.035 H 
ATOM     32  H23 PRO d   1       6.006  11.184   2.432  0.00  0.00     0.036 H 
ATOM     33  H24 PRO d   1       7.709  11.589   2.028  0.00  0.00     0.036 H 
ATOM     34  H22 PRO d   1       6.690  10.388   4.480  0.00  0.00     0.087 H 
BRANCH  23  35
ATOM     35  CA  ALA d   1       7.445  13.573   7.122  0.00  0.00     0.086 C 
ATOM     36  H18 ALA d   1       6.880  14.317   6.542  0.00  0.00     0.086 H 
BRANCH  35  37
ATOM     37  N   ALA d   1       6.732  13.286   8.398  0.00  0.00    -0.346 N 
ATOM     38  C   PHE d   1       5.575  12.684   8.376  0.00  0.00     0.241 C 
ATOM     39  O   PHE d   1       5.060  12.348   7.329  0.00  0.00    -0.271 OA
ATOM     40  H17 ALA d   1       7.140  13.555   9.271  0.00  0.00     0.163 HD
BRANCH  38  41
ATOM     41  CA  PHE d   1       4.890  12.416   9.718  0.00  0.00     0.093 C 
ATOM     42  H9  PHE d   1       5.600  11.927  10.402  0.00  0.00     0.088 H 
BRANCH  41  43
ATOM     43  N   PHE d   1       4.438  13.707  10.310  0.00  0.00    -0.346 N 
ATOM     44  C   ALA d   1       3.583  14.453   9.668  0.00  0.00     0.248 C 
ATOM     45  O   ALA d   1       3.140  14.118   8.587  0.00  0.00    -0.271 OA
ATOM     46  H8  PHE d   1       4.790  14.001  11.199  0.00  0.00     0.163 HD
BRANCH  44  47
ATOM     47  CA  ALA d   1       3.157  15.766  10.328  0.00  0.00     0.172 C 
ATOM     48  H4  ALA d   1       4.040  16.406  10.475  0.00  0.00     0.098 H 
BRANCH  47  49
ATOM     49  N   ALA d   1       2.176  16.466   9.451  0.00  0.00    -0.067 N 
ATOM     50  H1  ALA d   1       1.895  17.331   9.885  0.00  0.00     0.275 HD
ATOM     51  H2  ALA d   1       1.367  15.879   9.316  0.00  0.00     0.275 HD
ATOM     52  H3  ALA d   1       2.602  16.661   8.559  0.00  0.00     0.275 HD
ENDBRANCH  47  49
BRANCH  47  53
ATOM     53  CB  ALA d   1       2.510  15.470  11.682  0.00  0.00    -0.042 C 
ATOM     54  H5  ALA d   1       3.234  14.953  12.329  0.00  0.00     0.030 H 
ATOM     55  H6  ALA d   1       1.628  14.830  11.535  0.00  0.00     0.030 H 
ATOM     56  H7  ALA d   1       2.203  16.414  12.156  0.00  0.00     0.030 H 
ENDBRANCH  47  53
ENDBRANCH  44  47
ENDBRANCH  41  43
BRANCH  41  57
ATOM     57  CB  PHE d   1       3.682  11.504   9.500  0.00  0.00    -0.014 C 
ATOM     58  H10 PHE d   1       3.742  11.049   8.500  0.00  0.00     0.043 H 
ATOM     59  H11 PHE d   1       2.757  12.095   9.580  0.00  0.00     0.043 H 
BRANCH  57  60
ATOM     60  CG  PHE d   1       3.676  10.402  10.562  0.00  0.00    -0.056 A 
ATOM     61  CD1 PHE d   1       4.595   9.371  10.508  0.00  0.00    -0.077 A 
ATOM     62  CE1 PHE d   1       4.589   8.379  11.467  0.00  0.00    -0.082 A 
ATOM     63  H12 PHE d   1       5.325   9.342   9.707  0.00  0.00     0.084 H 
ATOM     64  CZ  PHE d   1       3.664   8.409  12.486  0.00  0.00    -0.083 A 
ATOM     65  H14 PHE d   1       5.314   7.575  11.418  0.00  0.00     0.083 H 
ATOM     66  CE2 PHE d   1       2.745   9.432  12.547  0.00  0.00    -0.082 A 
ATOM     67  H16 PHE d   1       3.659   7.629  13.239  0.00  0.00     0.083 H 
ATOM     68  CD2 PHE d   1       2.750  10.425  11.590  0.00  0.00    -0.077 A 
ATOM     69  H15 PHE d   1       2.016   9.457  13.349  0.00  0.00     0.083 H 
ATOM     70  H13 PHE d   1       2.024  11.228  11.643  0.00  0.00     0.084 H 
ENDBRANCH  57  60
ENDBRANCH  41  57
ENDBRANCH  38  41
ENDBRANCH  35  37
BRANCH  35  71
ATOM     71  CB  ALA d   1       8.841  14.117   7.432  0.00  0.00    -0.049 C 
ATOM     72  H19 ALA d   1       9.369  14.329   6.491  0.00  0.00     0.030 H 
ATOM     73  H20 ALA d   1       9.406  13.370   8.009  0.00  0.00     0.030 H 
ATOM     74  H21 ALA d   1       8.752  15.043   8.019  0.00  0.00     0.030 H 
ENDBRANCH  35  71
ENDBRANCH  23  35
ENDBRANCH   9  21
ENDBRANCH   4   7
ENDBRANCH   1   3
BRANCH   1  75
ATOM     75  C   LEU d   1      11.990   7.226   1.039  0.00  0.00     0.243 C 
ATOM     76  O   LEU d   1      12.229   6.191   1.629  0.00  0.00    -0.271 OA
ATOM     77  N   PRO d   1      11.200   7.301  -0.010  0.00  0.00    -0.337 N 
ATOM     78  CA  PRO d   1      10.557   6.110  -0.605  0.00  0.00     0.091 C 
ATOM     79  CD  PRO d   1      10.811   8.578  -0.634  0.00  0.00    -0.001 C 
ATOM     80  CB  PRO d   1       9.442   6.678  -1.490  0.00  0.00    -0.036 C 
ATOM     81  H47 PRO d   1      10.144   5.459   0.179  0.00  0.00     0.087 H 
ATOM     82  CG  PRO d   1       9.650   8.214  -1.575  0.00  0.00    -0.048 C 
ATOM     83  H48 PRO d   1       8.460   6.456  -1.046  0.00  0.00     0.036 H 
ATOM     84  H49 PRO d   1       9.498   6.235  -2.495  0.00  0.00     0.036 H 
ATOM     85  H50 PRO d   1       8.734   8.735  -1.260  0.00  0.00     0.035 H 
ATOM     86  H51 PRO d   1       9.899   8.502  -2.607  0.00  0.00     0.035 H 
ATOM     87  H52 PRO d   1      11.651   9.005  -1.202  0.00  0.00     0.064 H 
ATOM     88  H53 PRO d   1      10.481   9.298   0.129  0.00  0.00     0.064 H 
BRANCH  78  89
ATOM     89  C   PRO d   1      11.548   5.315  -1.467  0.00  0.00     0.241 C 
ATOM     90  O   PRO d   1      11.238   4.929  -2.577  0.00  0.00    -0.271 OA
ATOM     91  N   ARG d   1      12.723   5.058  -0.961  0.00  0.00    -0.346 N 
ATOM     92  H54 ARG d   1      12.945   5.380  -0.041  0.00  0.00     0.163 HD
BRANCH  91  93
ATOM     93  CA  ARG d   1      13.740   4.289  -1.740  0.00  0.00     0.089 C 
ATOM     94  H55 ARG d   1      14.744   4.526  -1.357  0.00  0.00     0.087 H 
BRANCH  93  95
ATOM     95  C   ARG d   1      13.664   4.663  -3.223  0.00  0.00     0.241 C 
ATOM     96  O   ARG d   1      13.407   3.829  -4.069  0.00  0.00    -0.271 OA
ATOM     97  N   ARG d   1      13.881   5.908  -3.547  0.00  0.00    -0.345 N 
ATOM     98  H67 ARG d   1      14.089   6.582  -2.837  0.00  0.00     0.163 HD
BRANCH  97  99
ATOM     99  CA  ARG d   1      13.819   6.324  -4.975  0.00  0.00     0.096 C 
ATOM    100  H68 ARG d   1      13.949   7.414  -5.045  0.00  0.00     0.089 H 
BRANCH  99 101
ATOM    101  C   ARG d   1      12.461   5.933  -5.562  0.00  0.00     0.196 C 
ATOM    102  O   ARG d   1      12.439   5.099  -6.453  0.00  0.00    -0.646 OA
ATOM    103  OXT ARG d   1      11.465   6.476  -5.113  0.00  0.00    -0.646 OA
ENDBRANCH  99 101
BRANCH  99 104
ATOM    104  CB  ARG d   1      14.933   5.626  -5.758  0.00  0.00    -0.035 C 
ATOM    105  H69 ARG d   1      14.871   5.912  -6.818  0.00  0.00     0.036 H 
ATOM    106  H70 ARG d   1      14.819   4.536  -5.665  0.00  0.00     0.036 H 
BRANCH 104 107
ATOM    107  CG  ARG d   1      16.292   6.047  -5.195  0.00  0.00    -0.047 C 
ATOM    108  H71 ARG d   1      17.088   5.463  -5.680  0.00  0.00     0.035 H 
ATOM    109  H72 ARG d   1      16.313   5.865  -4.110  0.00  0.00     0.035 H 
BRANCH 107 110
ATOM    110  CD  ARG d   1      16.514   7.536  -5.467  0.00  0.00     0.009 C 
ATOM    111  H73 ARG d   1      15.918   8.131  -4.759  0.00  0.00     0.064 H 
ATOM    112  H74 ARG d   1      16.204   7.771  -6.496  0.00  0.00     0.064 H 
BRANCH 110 113
ATOM    113  NE  ARG d   1      17.959   7.862  -5.297  0.00  0.00    -0.227 N 
ATOM    114  CZ  ARG d   1      18.353   9.107  -5.289  0.00  0.00     0.665 C 
ATOM    115  NH1 ARG d   1      17.484  10.072  -5.427  0.00  0.00    -0.235 N 
ATOM    116  NH2 ARG d   1      19.619   9.388  -5.142  0.00  0.00    -0.235 N 
ATOM    117  H76 ARG d   1      17.798  11.053  -5.420  0.00  0.00     0.174 HD
ATOM    118  H77 ARG d   1      16.484   9.852  -5.543  0.00  0.00     0.174 HD
ATOM    119  H78 ARG d   1      20.306   8.628  -5.033  0.00  0.00     0.174 HD
ATOM    120  H79 ARG d   1      19.931  10.370  -5.135  0.00  0.00     0.174 HD
ATOM    121  H75 ARG d   1      18.648   7.104  -5.186  0.00  0.00     0.177 HD
ENDBRANCH 110 113
ENDBRANCH 107 110
ENDBRANCH 104 107
ENDBRANCH  99 104
ENDBRANCH  97  99
ENDBRANCH  93  95
BRANCH  93 122
ATOM    122  CB  ARG d   1      13.477   2.790  -1.583  0.00  0.00    -0.036 C 
ATOM    123  H56 ARG d   1      12.552   2.522  -2.115  0.00  0.00     0.036 H 
ATOM    124  H57 ARG d   1      13.370   2.546  -0.516  0.00  0.00     0.036 H 
BRANCH 122 125
ATOM    125  CG  ARG d   1      14.651   2.003  -2.172  0.00  0.00    -0.048 C 
ATOM    126  H58 ARG d   1      15.554   2.632  -2.165  0.00  0.00     0.035 H 
ATOM    127  H59 ARG d   1      14.415   1.712  -3.206  0.00  0.00     0.035 H 
BRANCH 125 128
ATOM    128  CD  ARG d   1      14.898   0.748  -1.333  0.00  0.00     0.009 C 
ATOM    129  H60 ARG d   1      13.955   0.428  -0.866  0.00  0.00     0.064 H 
ATOM    130  H61 ARG d   1      15.638   0.970  -0.550  0.00  0.00     0.064 H 
BRANCH 128 131
ATOM    131  NE  ARG d   1      15.413  -0.342  -2.209  0.00  0.00    -0.227 N 
ATOM    132  CZ  ARG d   1      16.648  -0.314  -2.635  0.00  0.00     0.665 C 
ATOM    133  NH1 ARG d   1      17.438   0.668  -2.292  0.00  0.00    -0.235 N 
ATOM    134  NH2 ARG d   1      17.094  -1.270  -3.403  0.00  0.00    -0.235 N 
ATOM    135  H63 ARG d   1      18.411   0.688  -2.629  0.00  0.00     0.174 HD
ATOM    136  H64 ARG d   1      17.088   1.423  -1.685  0.00  0.00     0.174 HD
ATOM    137  H65 ARG d   1      16.472  -2.045  -3.674  0.00  0.00     0.174 HD
ATOM    138  H66 ARG d   1      18.068  -1.250  -3.738  0.00  0.00     0.174 HD
ATOM    139  H62 ARG d   1      14.794  -1.119  -2.479  0.00  0.00     0.177 HD
ENDBRANCH 128 131
ENDBRANCH 125 128
ENDBRANCH 122 125
ENDBRANCH  93 122
ENDBRANCH  91  93
ENDBRANCH  78  89
ENDBRANCH   1  75
BRANCH   1 140
ATOM    140  CB  LEU d   1      14.110   8.445   1.565  0.00  0.00    -0.035 C 
ATOM    141  H38 LEU d   1      14.479   8.235   0.550  0.00  0.00     0.037 H 
ATOM    142  H39 LEU d   1      14.411   7.630   2.240  0.00  0.00     0.037 H 
BRANCH 140 143
ATOM    143  CG  LEU d   1      14.704   9.764   2.061  0.00  0.00    -0.059 C 
ATOM    144  H40 LEU d   1      14.258  10.025   3.032  0.00  0.00     0.038 H 
BRANCH 143 145
ATOM    145  CD1 LEU d   1      16.219   9.614   2.219  0.00  0.00    -0.073 C 
ATOM    146  H41 LEU d   1      16.646  10.563   2.576  0.00  0.00     0.028 H 
ATOM    147  H42 LEU d   1      16.665   9.353   1.248  0.00  0.00     0.028 H 
ATOM    148  H43 LEU d   1      16.435   8.818   2.947  0.00  0.00     0.028 H 
ENDBRANCH 143 145
BRANCH 143 149
ATOM    149  CD2 LEU d   1      14.406  10.871   1.048  0.00  0.00    -0.073 C 
ATOM    150  H44 LEU d   1      13.317  10.980   0.933  0.00  0.00     0.028 H 
ATOM    151  H45 LEU d   1      14.852  10.610   0.077  0.00  0.00     0.028 H 
ATOM    152  H46 LEU d   1      14.834  11.819   1.405  0.00  0.00     0.028 H 
ENDBRANCH 143 149
ENDBRANCH 140 143
ENDBRANCH   1 140
TORSDOF 31
