REMARK  31 active torsions:
REMARK  status: ('A' for Active; 'I' for Inactive)
REMARK    1  A    between atoms: N_1  and  CA_2 
REMARK    2  A    between atoms: CA_2  and  C_3 
REMARK    3  A    between atoms: CA_2  and  CB_5 
REMARK       I    between atoms: C_3  and  N_13 
REMARK    4  A    between atoms: N_13  and  CA_14 
REMARK    5  A    between atoms: CA_14  and  C_15 
REMARK    6  A    between atoms: CA_14  and  CB_17 
REMARK       I    between atoms: C_15  and  N_33 
REMARK    7  A    between atoms: CB_17  and  CG_18 
REMARK    8  A    between atoms: N_33  and  CA_34 
REMARK    9  A    between atoms: CA_34  and  C_35 
REMARK   10  A    between atoms: CA_34  and  CB_37 
REMARK       I    between atoms: C_35  and  N_43 
REMARK   11  A    between atoms: CA_44  and  C_45 
REMARK       I    between atoms: C_45  and  N_57 
REMARK   12  A    between atoms: CA_58  and  C_59 
REMARK       I    between atoms: C_59  and  N_71 
REMARK   13  A    between atoms: N_71  and  CA_72 
REMARK   14  A    between atoms: CA_72  and  C_73 
REMARK   15  A    between atoms: CA_72  and  CB_75 
REMARK       I    between atoms: C_73  and  N_90 
REMARK   16  A    between atoms: CB_75  and  CG_76 
REMARK   17  A    between atoms: CG_76  and  CD1_77 
REMARK   18  A    between atoms: CG_76  and  CD2_78 
REMARK   19  A    between atoms: CA_91  and  C_92 
REMARK       I    between atoms: C_92  and  N_104 
REMARK   20  A    between atoms: N_104  and  CA_105 
REMARK   21  A    between atoms: CA_105  and  C_106 
REMARK   22  A    between atoms: CA_105  and  CB_108 
REMARK       I    between atoms: C_106  and  N_128 
REMARK   23  A    between atoms: CB_108  and  CG_109 
REMARK   24  A    between atoms: CG_109  and  CD_110 
REMARK   25  A    between atoms: CD_110  and  NE_111 
REMARK       I    between atoms: NE_111  and  CZ_112 
REMARK       I    between atoms: CZ_112  and  NH1_113 
REMARK       I    between atoms: CZ_112  and  NH2_114 
REMARK   26  A    between atoms: N_128  and  CA_129 
REMARK   27  A    between atoms: CA_129  and  C_130 
REMARK   28  A    between atoms: CA_129  and  CB_132 
REMARK   29  A    between atoms: CB_132  and  CG_133 
REMARK   30  A    between atoms: CG_133  and  CD_134 
REMARK   31  A    between atoms: CD_134  and  NE_135 
REMARK       I    between atoms: NE_135  and  CZ_136 
REMARK       I    between atoms: CZ_136  and  NH1_137 
ROOT
ATOM      1  CA  LEU d   1      11.801   9.322   1.718  0.00  0.00     0.090 C 
ATOM      2  H37 LEU d   1      11.482  10.284   1.290  0.00  0.00     0.087 H 
ENDROOT
BRANCH   1   3
ATOM      3  N   LEU d   1      11.341   9.229   3.132  0.00  0.00    -0.346 N 
ATOM      4  C   PRO d   1      10.074   9.055   3.397  0.00  0.00     0.241 C 
ATOM      5  O   PRO d   1       9.249   8.966   2.510  0.00  0.00    -0.271 OA
ATOM      6  H36 LEU d   1      12.003   9.300   3.878  0.00  0.00     0.163 HD
BRANCH   4   7
ATOM      7  CA  PRO d   1       9.671   8.968   4.872  0.00  0.00     0.091 A 
ATOM      8  N   PRO d   1       8.699  10.025   5.200  0.00  0.00    -0.337 N 
ATOM      9  C   PRO d   1       8.966  11.296   5.020  0.00  0.00     0.243 C 
ATOM     10  CD  PRO d   1       7.409   9.541   5.725  0.00  0.00    -0.001 A 
ATOM     11  O   PRO d   1      10.016  11.704   4.569  0.00  0.00    -0.271 OA
ATOM     12  CG  PRO d   1       7.533   8.008   5.717  0.00  0.00    -0.048 A 
ATOM     13  H34 PRO d   1       6.581   9.866   5.078  0.00  0.00     0.064 H 
ATOM     14  H35 PRO d   1       7.243   9.911   6.747  0.00  0.00     0.064 H 
ATOM     15  CB  PRO d   1       8.937   7.651   5.161  0.00  0.00    -0.036 A 
ATOM     16  H32 PRO d   1       7.425   7.618   6.740  0.00  0.00     0.035 H 
ATOM     17  H33 PRO d   1       6.754   7.572   5.074  0.00  0.00     0.035 H 
ATOM     18  H30 PRO d   1       9.497   7.065   5.905  0.00  0.00     0.036 H 
ATOM     19  H31 PRO d   1       8.836   7.067   4.234  0.00  0.00     0.036 H 
ATOM     20  H29 PRO d   1      10.568   9.056   5.503  0.00  0.00     0.087 H 
BRANCH   9  21
ATOM     21  CA  PRO d   1       7.854  12.280   5.411  0.00  0.00     0.092 A 
ATOM     22  N   PRO d   1       8.435  13.466   6.063  0.00  0.00    -0.337 N 
ATOM     23  C   ALA d   1       9.210  13.374   7.113  0.00  0.00     0.243 C 
ATOM     24  CD  PRO d   1       8.089  14.754   5.436  0.00  0.00    -0.001 A 
ATOM     25  O   ALA d   1       9.517  12.320   7.633  0.00  0.00    -0.271 OA
ATOM     26  CG  PRO d   1       7.230  14.377   4.220  0.00  0.00    -0.048 A 
ATOM     27  H27 PRO d   1       8.997  15.288   5.119  0.00  0.00     0.064 H 
ATOM     28  H28 PRO d   1       7.518  15.384   6.134  0.00  0.00     0.064 H 
ATOM     29  CB  PRO d   1       7.140  12.828   4.167  0.00  0.00    -0.036 A 
ATOM     30  H25 PRO d   1       6.223  14.807   4.325  0.00  0.00     0.035 H 
ATOM     31  H26 PRO d   1       7.697  14.757   3.299  0.00  0.00     0.035 H 
ATOM     32  H23 PRO d   1       6.086  12.513   4.170  0.00  0.00     0.036 H 
ATOM     33  H24 PRO d   1       7.632  12.454   3.257  0.00  0.00     0.036 H 
ATOM     34  H22 PRO d   1       7.138  11.779   6.079  0.00  0.00     0.087 H 
BRANCH  23  35
ATOM     35  CA  ALA d   1       9.735  14.699   7.673  0.00  0.00     0.086 C 
ATOM     36  H18 ALA d   1       8.945  15.462   7.613  0.00  0.00     0.086 H 
BRANCH  35  37
ATOM     37  N   ALA d   1      10.132  14.505   9.095  0.00  0.00    -0.346 N 
ATOM     38  C   PHE d   1       9.246  14.106   9.967  0.00  0.00     0.241 C 
ATOM     39  O   PHE d   1       8.096  13.892   9.640  0.00  0.00    -0.271 OA
ATOM     40  H17 ALA d   1      11.074  14.680   9.381  0.00  0.00     0.163 HD
BRANCH  38  41
ATOM     41  CA  PHE d   1       9.707  13.920  11.414  0.00  0.00     0.093 C 
ATOM     42  H9  PHE d   1      10.784  14.130  11.486  0.00  0.00     0.088 H 
BRANCH  41  43
ATOM     43  N   PHE d   1       8.958  14.860  12.299  0.00  0.00    -0.346 N 
ATOM     44  C   ALA d   1       9.472  16.022  12.598  0.00  0.00     0.248 C 
ATOM     45  O   ALA d   1      10.556  16.358  12.165  0.00  0.00    -0.271 OA
ATOM     46  H8  PHE d   1       8.063  14.600  12.662  0.00  0.00     0.163 HD
BRANCH  44  47
ATOM     47  CA  ALA d   1       8.662  16.949  13.510  0.00  0.00     0.172 C 
ATOM     48  H4  ALA d   1       9.081  17.965  13.462  0.00  0.00     0.098 H 
BRANCH  47  49
ATOM     49  N   ALA d   1       7.243  16.975  13.056  0.00  0.00    -0.067 N 
ATOM     50  H1  ALA d   1       6.710  17.585  13.656  0.00  0.00     0.275 HD
ATOM     51  H2  ALA d   1       6.860  16.044  13.098  0.00  0.00     0.275 HD
ATOM     52  H3  ALA d   1       7.200  17.314  12.108  0.00  0.00     0.275 HD
ENDBRANCH  47  49
BRANCH  47  53
ATOM     53  CB  ALA d   1       8.725  16.441  14.954  0.00  0.00    -0.042 C 
ATOM     54  H5  ALA d   1       9.772  16.421  15.290  0.00  0.00     0.030 H 
ATOM     55  H6  ALA d   1       8.305  15.426  15.004  0.00  0.00     0.030 H 
ATOM     56  H7  ALA d   1       8.144  17.111  15.604  0.00  0.00     0.030 H 
ENDBRANCH  47  53
ENDBRANCH  44  47
ENDBRANCH  41  43
BRANCH  41  57
ATOM     57  CB  PHE d   1       9.438  12.476  11.847  0.00  0.00    -0.014 C 
ATOM     58  H10 PHE d   1       9.178  11.872  10.965  0.00  0.00     0.043 H 
ATOM     59  H11 PHE d   1       8.603  12.458  12.563  0.00  0.00     0.043 H 
BRANCH  57  60
ATOM     60  CG  PHE d   1      10.689  11.895  12.510  0.00  0.00    -0.056 A 
ATOM     61  CD1 PHE d   1      11.794  11.557  11.750  0.00  0.00    -0.077 A 
ATOM     62  CE1 PHE d   1      12.917  11.023  12.349  0.00  0.00    -0.082 A 
ATOM     63  H12 PHE d   1      11.778  11.712  10.677  0.00  0.00     0.084 H 
ATOM     64  CZ  PHE d   1      12.945  10.822  13.711  0.00  0.00    -0.083 A 
ATOM     65  H14 PHE d   1      13.779  10.761  11.746  0.00  0.00     0.083 H 
ATOM     66  CE2 PHE d   1      11.849  11.156  14.475  0.00  0.00    -0.082 A 
ATOM     67  H16 PHE d   1      13.827  10.402  14.180  0.00  0.00     0.083 H 
ATOM     68  CD2 PHE d   1      10.726  11.690  13.878  0.00  0.00    -0.077 A 
ATOM     69  H15 PHE d   1      11.869  10.999  15.547  0.00  0.00     0.083 H 
ATOM     70  H13 PHE d   1       9.866  11.951  14.485  0.00  0.00     0.084 H 
ENDBRANCH  57  60
ENDBRANCH  41  57
ENDBRANCH  38  41
ENDBRANCH  35  37
BRANCH  35  71
ATOM     71  CB  ALA d   1      10.946  15.155   6.856  0.00  0.00    -0.049 C 
ATOM     72  H19 ALA d   1      10.648  15.297   5.807  0.00  0.00     0.030 H 
ATOM     73  H20 ALA d   1      11.735  14.391   6.913  0.00  0.00     0.030 H 
ATOM     74  H21 ALA d   1      11.325  16.105   7.261  0.00  0.00     0.030 H 
ENDBRANCH  35  71
ENDBRANCH  23  35
ENDBRANCH   9  21
ENDBRANCH   4   7
ENDBRANCH   1   3
BRANCH   1  75
ATOM     75  C   LEU d   1      11.195   8.170   0.904  0.00  0.00     0.243 C 
ATOM     76  O   LEU d   1      11.313   7.023   1.286  0.00  0.00    -0.271 OA
ATOM     77  N   PRO d   1      10.561   8.506  -0.195  0.00  0.00    -0.337 N 
ATOM     78  CA  PRO d   1       9.932   7.502  -1.072  0.00  0.00     0.091 A 
ATOM     79  CD  PRO d   1      10.416   9.902  -0.646  0.00  0.00    -0.001 A 
ATOM     80  CB  PRO d   1       9.272   8.316  -2.193  0.00  0.00    -0.036 A 
ATOM     81  H47 PRO d   1       9.181   6.917  -0.521  0.00  0.00     0.087 H 
ATOM     82  CG  PRO d   1       9.584   9.813  -1.935  0.00  0.00    -0.048 A 
ATOM     83  H48 PRO d   1       8.184   8.153  -2.184  0.00  0.00     0.036 H 
ATOM     84  H49 PRO d   1       9.680   8.011  -3.168  0.00  0.00     0.036 H 
ATOM     85  H50 PRO d   1       8.646  10.376  -1.815  0.00  0.00     0.035 H 
ATOM     86  H51 PRO d   1      10.155  10.227  -2.779  0.00  0.00     0.035 H 
ATOM     87  H52 PRO d   1      11.401  10.348  -0.850  0.00  0.00     0.064 H 
ATOM     88  H53 PRO d   1       9.892  10.502   0.113  0.00  0.00     0.064 H 
BRANCH  78  89
ATOM     89  C   PRO d   1      10.998   6.563  -1.646  0.00  0.00     0.241 C 
ATOM     90  O   PRO d   1      12.182   6.785  -1.488  0.00  0.00    -0.271 OA
ATOM     91  N   ARG d   1      10.589   5.517  -2.311  0.00  0.00    -0.346 N 
ATOM     92  H54 ARG d   1       9.610   5.351  -2.431  0.00  0.00     0.163 HD
BRANCH  91  93
ATOM     93  CA  ARG d   1      11.583   4.571  -2.891  0.00  0.00     0.089 C 
ATOM     94  H55 ARG d   1      12.451   4.496  -2.220  0.00  0.00     0.087 H 
BRANCH  93  95
ATOM     95  C   ARG d   1      12.039   5.087  -4.259  0.00  0.00     0.241 C 
ATOM     96  O   ARG d   1      11.249   5.568  -5.046  0.00  0.00    -0.271 OA
ATOM     97  N   ARG d   1      13.309   4.990  -4.549  0.00  0.00    -0.345 N 
ATOM     98  H67 ARG d   1      13.944   4.590  -3.888  0.00  0.00     0.163 HD
BRANCH  97  99
ATOM     99  CA  ARG d   1      13.812   5.476  -5.866  0.00  0.00     0.096 C 
ATOM    100  H68 ARG d   1      13.413   6.482  -6.061  0.00  0.00     0.089 H 
BRANCH  99 101
ATOM    101  C   ARG d   1      13.353   4.523  -6.971  0.00  0.00     0.196 C 
ATOM    102  O   ARG d   1      14.187   3.790  -7.477  0.00  0.00    -0.646 OA
ATOM    103  OXT ARG d   1      12.177   4.542  -7.292  0.00  0.00    -0.646 OA
ENDBRANCH  99 101
BRANCH  99 104
ATOM    104  CB  ARG d   1      15.341   5.531  -5.843  0.00  0.00    -0.035 C 
ATOM    105  H69 ARG d   1      15.712   5.812  -6.840  0.00  0.00     0.036 H 
ATOM    106  H70 ARG d   1      15.739   4.543  -5.569  0.00  0.00     0.036 H 
BRANCH 104 107
ATOM    107  CG  ARG d   1      15.803   6.568  -4.817  0.00  0.00    -0.047 C 
ATOM    108  H71 ARG d   1      15.938   6.083  -3.839  0.00  0.00     0.035 H 
ATOM    109  H72 ARG d   1      15.046   7.362  -4.731  0.00  0.00     0.035 H 
BRANCH 107 110
ATOM    110  CD  ARG d   1      17.131   7.175  -5.274  0.00  0.00     0.009 C 
ATOM    111  H73 ARG d   1      16.937   8.110  -5.820  0.00  0.00     0.064 H 
ATOM    112  H74 ARG d   1      17.649   6.465  -5.935  0.00  0.00     0.064 H 
BRANCH 110 113
ATOM    113  NE  ARG d   1      17.986   7.462  -4.087  0.00  0.00    -0.227 N 
ATOM    114  CZ  ARG d   1      19.035   8.231  -4.207  0.00  0.00     0.665 C 
ATOM    115  NH1 ARG d   1      19.331   8.764  -5.363  0.00  0.00    -0.235 N 
ATOM    116  NH2 ARG d   1      19.789   8.472  -3.170  0.00  0.00    -0.235 N 
ATOM    117  H76 ARG d   1      20.159   9.370  -5.454  0.00  0.00     0.174 HD
ATOM    118  H77 ARG d   1      18.736   8.578  -6.183  0.00  0.00     0.174 HD
ATOM    119  H78 ARG d   1      19.559   8.054  -2.257  0.00  0.00     0.174 HD
ATOM    120  H79 ARG d   1      20.615   9.081  -3.264  0.00  0.00     0.174 HD
ATOM    121  H75 ARG d   1      17.749   7.054  -3.171  0.00  0.00     0.177 HD
ENDBRANCH 110 113
ENDBRANCH 107 110
ENDBRANCH 104 107
ENDBRANCH  99 104
ENDBRANCH  97  99
ENDBRANCH  93  95
BRANCH  93 122
ATOM    122  CB  ARG d   1      10.944   3.189  -3.053  0.00  0.00    -0.036 C 
ATOM    123  H56 ARG d   1      10.420   3.138  -4.019  0.00  0.00     0.036 H 
ATOM    124  H57 ARG d   1      10.226   3.019  -2.237  0.00  0.00     0.036 H 
BRANCH 122 125
ATOM    125  CG  ARG d   1      12.034   2.116  -3.006  0.00  0.00    -0.048 C 
ATOM    126  H58 ARG d   1      13.021   2.598  -2.943  0.00  0.00     0.035 H 
ATOM    127  H59 ARG d   1      11.983   1.502  -3.917  0.00  0.00     0.035 H 
BRANCH 125 128
ATOM    128  CD  ARG d   1      11.823   1.226  -1.779  0.00  0.00     0.009 C 
ATOM    129  H60 ARG d   1      10.746   1.131  -1.576  0.00  0.00     0.064 H 
ATOM    130  H61 ARG d   1      12.322   1.677  -0.909  0.00  0.00     0.064 H 
BRANCH 128 131
ATOM    131  NE  ARG d   1      12.400  -0.124  -2.038  0.00  0.00    -0.227 N 
ATOM    132  CZ  ARG d   1      13.693  -0.307  -1.986  0.00  0.00     0.665 C 
ATOM    133  NH1 ARG d   1      14.487   0.689  -1.698  0.00  0.00    -0.235 N 
ATOM    134  NH2 ARG d   1      14.193  -1.490  -2.220  0.00  0.00    -0.235 N 
ATOM    135  H63 ARG d   1      15.505   0.541  -1.658  0.00  0.00     0.174 HD
ATOM    136  H64 ARG d   1      14.095   1.623  -1.511  0.00  0.00     0.174 HD
ATOM    137  H65 ARG d   1      13.569  -2.277  -2.447  0.00  0.00     0.174 HD
ATOM    138  H66 ARG d   1      15.212  -1.636  -2.177  0.00  0.00     0.174 HD
ATOM    139  H62 ARG d   1      11.778  -0.915  -2.259  0.00  0.00     0.177 HD
ENDBRANCH 128 131
ENDBRANCH 125 128
ENDBRANCH 122 125
ENDBRANCH  93 122
ENDBRANCH  91  93
ENDBRANCH  78  89
ENDBRANCH   1  75
BRANCH   1 140
ATOM    140  CB  LEU d   1      13.327   9.222   1.673  0.00  0.00    -0.035 C 
ATOM    141  H38 LEU d   1      13.661   9.177   0.626  0.00  0.00     0.037 H 
ATOM    142  H39 LEU d   1      13.650   8.312   2.200  0.00  0.00     0.037 H 
BRANCH 140 143
ATOM    143  CG  LEU d   1      13.940  10.448   2.351  0.00  0.00    -0.059 C 
ATOM    144  H40 LEU d   1      13.437  10.624   3.313  0.00  0.00     0.038 H 
BRANCH 143 145
ATOM    145  CD1 LEU d   1      15.432  10.207   2.592  0.00  0.00    -0.073 C 
ATOM    146  H41 LEU d   1      15.872  11.089   3.080  0.00  0.00     0.028 H 
ATOM    147  H42 LEU d   1      15.935  10.031   1.630  0.00  0.00     0.028 H 
ATOM    148  H43 LEU d   1      15.561   9.328   3.240  0.00  0.00     0.028 H 
ENDBRANCH 143 145
BRANCH 143 149
ATOM    149  CD2 LEU d   1      13.760  11.672   1.450  0.00  0.00    -0.073 C 
ATOM    150  H44 LEU d   1      12.688  11.845   1.277  0.00  0.00     0.028 H 
ATOM    151  H45 LEU d   1      14.263  11.496   0.488  0.00  0.00     0.028 H 
ATOM    152  H46 LEU d   1      14.200  12.554   1.938  0.00  0.00     0.028 H 
ENDBRANCH 143 149
ENDBRANCH 140 143
ENDBRANCH   1 140
TORSDOF 31
