REMARK  2 active torsions:
REMARK  status: ('A' for Active; 'I' for Inactive)
REMARK    1  A    between atoms: N9_6  and  C9M_8 
REMARK    2  A    between atoms: N3_9  and  C3M_10 
ROOT
ATOM      1  N6  39A d   1     121.408   9.063  46.226  0.00  0.00    -0.382 N 
ATOM      2  C6  39A d   1     120.128   8.861  46.630  0.00  0.00     0.155 A 
ATOM      3  C5  39A d   1     119.182   9.661  46.050  0.00  0.00     0.147 A 
ATOM      4  N7  39A d   1     119.250  10.674  45.098  0.00  0.00    -0.236 NA
ATOM      5  C4  39A d   1     117.829   9.464  46.462  0.00  0.00     0.144 A 
ATOM      6  N9  39A d   1     117.085  10.317  45.800  0.00  0.00    -0.330 N 
ATOM      7  C8  39A d   1     117.928  11.025  44.991  0.00  0.00     0.068 A 
ATOM      8  N3  39A d   1     117.483   8.490  47.427  0.00  0.00    -0.330 N 
ATOM      9  C2  39A d   1     118.479   7.752  47.956  0.00  0.00     0.069 A 
ATOM     10  N1  39A d   1     119.755   7.936  47.565  0.00  0.00    -0.224 NA
ATOM     11  H1  39A d   1     122.169   8.494  46.623  0.00  0.00     0.157 HD
ATOM     12  H2  39A d   1     121.618   9.785  45.522  0.00  0.00     0.157 HD
ATOM     13  H3  39A d   1     117.579  11.805  44.316  0.00  0.00     0.143 H 
ATOM     14  H10 39A d   1     118.251   7.002  48.705  0.00  0.00     0.143 H 
ENDROOT
BRANCH   6  15
ATOM     15  C9M 39A d   1     115.623  10.336  46.029  0.00  0.00    -0.012 C 
ATOM     16  H4  39A d   1     115.360   9.581  46.784  0.00  0.00     0.057 H 
ATOM     17  H5  39A d   1     115.101  10.110  45.087  0.00  0.00     0.057 H 
ATOM     18  H6  39A d   1     115.321  11.332  46.385  0.00  0.00     0.057 H 
ENDBRANCH   6  15
BRANCH   8  19
ATOM     19  C3M 39A d   1     116.087   8.310  47.869  0.00  0.00    -0.012 C 
ATOM     20  H7  39A d   1     116.040   7.506  48.618  0.00  0.00     0.057 H 
ATOM     21  H8  39A d   1     115.460   8.043  47.005  0.00  0.00     0.057 H 
ATOM     22  H9  39A d   1     115.719   9.247  48.313  0.00  0.00     0.057 H 
ENDBRANCH   8  19
TORSDOF 2
