REMARK  0 active torsions:
REMARK  status: ('A' for Active; 'I' for Inactive)
ROOT
ATOM      1  N7  EA1 d   1     116.487   8.437  47.655  0.00  0.00    -0.345 N 
ATOM      2  C8  EA1 d   1     115.405   9.135  47.168  0.00  0.00     0.067 A 
ATOM      3  C5  EA1 d   1     117.552   8.951  47.019  0.00  0.00     0.126 A 
ATOM      4  C4  EA1 d   1     117.042   9.993  46.125  0.00  0.00     0.182 A 
ATOM      5  N3  EA1 d   1     117.900  10.778  45.270  0.00  0.00    -0.222 NA
ATOM      6  N9  EA1 d   1     115.728  10.088  46.232  0.00  0.00    -0.222 NA
ATOM      7  C6  EA1 d   1     118.927   8.788  46.961  0.00  0.00     0.143 A 
ATOM      8  N6  EA1 d   1     119.688   7.917  47.661  0.00  0.00    -0.349 N 
ATOM      9  C11 EA1 d   1     121.097   8.096  47.286  0.00  0.00    -0.006 A 
ATOM     10  N1  EA1 d   1     119.719   9.586  46.116  0.00  0.00    -0.299 N 
ATOM     11  C10 EA1 d   1     121.022   9.213  46.254  0.00  0.00     0.002 A 
ATOM     12  C2  EA1 d   1     119.223  10.540  45.299  0.00  0.00     0.074 A 
ATOM     13  H1  EA1 d   1     116.481   7.683  48.356  0.00  0.00     0.167 HD
ATOM     14  H2  EA1 d   1     114.383   8.948  47.495  0.00  0.00     0.143 H 
ATOM     15  H3  EA1 d   1     119.336   7.236  48.348  0.00  0.00     0.167 HD
ATOM     16  H4  EA1 d   1     121.974   7.564  47.653  0.00  0.00     0.113 H 
ATOM     17  H5  EA1 d   1     121.867   9.641  45.717  0.00  0.00     0.114 H 
ATOM     18  H6  EA1 d   1     119.891  11.114  44.667  0.00  0.00     0.144 H 
ENDROOT
TORSDOF 0
