REMARK  5 active torsions:
REMARK  status: ('A' for Active; 'I' for Inactive)
REMARK    1  A    between atoms: P_2  and  O5_5 
REMARK    2  A    between atoms: O5_5  and  C5_6 
REMARK    3  A    between atoms: C5_6  and  C4_7 
REMARK    4  A    between atoms: C3_9  and  O3_10 
REMARK    5  A    between atoms: C1_12  and  N9_13 
ROOT
ATOM      1  C4  8OG d   1      -8.261  -7.576  -3.469  0.00  0.00     0.087 C 
ATOM      2  O4  8OG d   1      -9.352  -8.496  -3.578  0.00  0.00    -0.356 OA
ATOM      3  C3  8OG d   1      -7.470  -8.140  -2.287  0.00  0.00     0.066 C 
ATOM      4  C2  8OG d   1      -8.110  -9.481  -1.915  0.00  0.00     0.003 C 
ATOM      5  C1  8OG d   1      -9.290  -9.735  -2.858  0.00  0.00     0.119 C 
ATOM      6  H3  8OG d   1      -8.677  -6.597  -3.190  0.00  0.00     0.090 H 
ATOM      7  H4  8OG d   1      -6.429  -8.312  -2.599  0.00  0.00     0.087 H 
ATOM      8  H6  8OG d   1      -8.467  -9.446  -0.875  0.00  0.00     0.043 H 
ATOM      9  H7  8OG d   1      -7.370 -10.288  -2.022  0.00  0.00     0.043 H 
ATOM     10  H8  8OG d   1     -10.190  -9.719  -2.225  0.00  0.00     0.119 H 
ENDROOT
BRANCH   5  11
ATOM     11  N9  8OG d   1      -9.380 -11.088  -3.451  0.00  0.00    -0.254 N 
ATOM     12  C8  8OG d   1      -8.332 -11.634  -4.143  0.00  0.00     0.331 A 
ATOM     13  N7  8OG d   1      -8.783 -12.867  -4.531  0.00  0.00    -0.300 N 
ATOM     14  O8  8OG d   1      -7.188 -11.109  -4.376  0.00  0.00    -0.246 OA
ATOM     15  C5  8OG d   1     -10.064 -13.088  -4.099  0.00  0.00     0.152 A 
ATOM     16  H9  8OG d   1      -8.246 -13.523  -5.062  0.00  0.00     0.171 HD
ATOM     17  C6  8OG d   1     -10.948 -14.105  -4.203  0.00  0.00     0.279 A 
ATOM     18  C4  8OG d   1     -10.461 -11.961  -3.407  0.00  0.00     0.172 A 
ATOM     19  O6  8OG d   1     -10.596 -15.157  -4.842  0.00  0.00    -0.265 OA
ATOM     20  N1  8OG d   1     -12.223 -14.060  -3.650  0.00  0.00    -0.292 N 
ATOM     21  C2  8OG d   1     -12.580 -12.926  -2.971  0.00  0.00     0.204 A 
ATOM     22  H10 8OG d   1     -12.856 -14.828  -3.745  0.00  0.00     0.172 HD
ATOM     23  N2  8OG d   1     -13.808 -12.886  -2.438  0.00  0.00    -0.369 N 
ATOM     24  N3  8OG d   1     -11.740 -11.819  -2.806  0.00  0.00    -0.194 NA
ATOM     25  H11 8OG d   1     -14.117 -12.052  -1.919  0.00  0.00     0.159 HD
ATOM     26  H12 8OG d   1     -14.443 -13.689  -2.547  0.00  0.00     0.159 HD
ENDBRANCH   5  11
BRANCH   1  27
ATOM     27  C5  8OG d   1      -7.372  -7.321  -4.688  0.00  0.00     0.059 C 
ATOM     28  H1  8OG d   1      -6.587  -6.601  -4.416  0.00  0.00     0.079 H 
ATOM     29  H2  8OG d   1      -6.908  -8.269  -5.000  0.00  0.00     0.079 H 
BRANCH  27  30
ATOM     30  O5  8OG d   1      -8.134  -6.793  -5.777  0.00  0.00    -0.280 OA
BRANCH  30  31
ATOM     31  P   8OG d   1      -9.354  -7.643  -6.393  0.00  0.00     0.422 P 
ATOM     32  O3P 8OG d   1      -9.676  -6.841  -7.751  0.00  0.00    -0.617 OA
ATOM     33  O1P 8OG d   1      -8.861  -8.993  -6.748  0.00  0.00    -0.617 OA
ATOM     34  O2P 8OG d   1     -10.522  -7.517  -5.493  0.00  0.00    -0.617 OA
ENDBRANCH  30  31
ENDBRANCH  27  30
ENDBRANCH   1  27
BRANCH   3  35
ATOM     35  O3  8OG d   1      -7.461  -7.235  -1.179  0.00  0.00    -0.393 OA
ATOM     36  H5  8OG d   1      -6.963  -7.615  -0.465  0.00  0.00     0.210 HD
ENDBRANCH   3  35
TORSDOF 5
