REMARK  5 active torsions:
REMARK  status: ('A' for Active; 'I' for Inactive)
REMARK    1  A    between atoms: P_2  and  O5_5 
REMARK    2  A    between atoms: O5_5  and  C5_6 
REMARK    3  A    between atoms: C5_6  and  C4_7 
REMARK    4  A    between atoms: C3_9  and  O3_10 
REMARK    5  A    between atoms: C1_12  and  N9_13 
ROOT
ATOM      1  C4  8OG d   1      -9.887   0.795  -0.705  0.00  0.00     0.087 C 
ATOM      2  O4  8OG d   1     -10.687  -0.017   0.163  0.00  0.00    -0.356 OA
ATOM      3  C3  8OG d   1     -10.753   2.045  -0.873  0.00  0.00     0.066 C 
ATOM      4  C2  8OG d   1     -11.944   1.898   0.080  0.00  0.00     0.003 C 
ATOM      5  C1  8OG d   1     -11.815   0.567   0.827  0.00  0.00     0.119 C 
ATOM      6  H3  8OG d   1      -9.833   0.277  -1.674  0.00  0.00     0.090 H 
ATOM      7  H4  8OG d   1     -10.167   2.931  -0.588  0.00  0.00     0.087 H 
ATOM      8  H6  8OG d   1     -12.882   1.910  -0.495  0.00  0.00     0.043 H 
ATOM      9  H7  8OG d   1     -11.945   2.728   0.801  0.00  0.00     0.043 H 
ATOM     10  H8  8OG d   1     -12.663  -0.048   0.491  0.00  0.00     0.119 H 
ENDROOT
BRANCH   5  11
ATOM     11  N9  8OG d   1     -12.054   0.602   2.288  0.00  0.00    -0.254 N 
ATOM     12  C8  8OG d   1     -11.384   1.457   3.122  0.00  0.00     0.331 A 
ATOM     13  N7  8OG d   1     -11.889   1.190   4.367  0.00  0.00    -0.300 N 
ATOM     14  O8  8OG d   1     -10.491   2.322   2.815  0.00  0.00    -0.246 OA
ATOM     15  C5  8OG d   1     -12.843   0.207   4.319  0.00  0.00     0.152 A 
ATOM     16  H9  8OG d   1     -11.599   1.653   5.204  0.00  0.00     0.171 HD
ATOM     17  C6  8OG d   1     -13.629  -0.412   5.226  0.00  0.00     0.279 A 
ATOM     18  C4  8OG d   1     -12.960  -0.179   2.998  0.00  0.00     0.172 A 
ATOM     19  O6  8OG d   1     -13.537  -0.063   6.454  0.00  0.00    -0.265 OA
ATOM     20  N1  8OG d   1     -14.538  -1.408   4.888  0.00  0.00    -0.292 N 
ATOM     21  C2  8OG d   1     -14.625  -1.764   3.568  0.00  0.00     0.204 A 
ATOM     22  H10 8OG d   1     -15.107  -1.848   5.582  0.00  0.00     0.172 HD
ATOM     23  N2  8OG d   1     -15.497  -2.729   3.245  0.00  0.00    -0.369 N 
ATOM     24  N3  8OG d   1     -13.857  -1.184   2.552  0.00  0.00    -0.194 NA
ATOM     25  H11 8OG d   1     -15.595  -3.028   2.264  0.00  0.00     0.159 HD
ATOM     26  H12 8OG d   1     -16.070  -3.172   3.978  0.00  0.00     0.159 HD
ENDBRANCH   5  11
BRANCH   1  27
ATOM     27  C5  8OG d   1      -8.433   1.102  -0.339  0.00  0.00     0.059 C 
ATOM     28  H1  8OG d   1      -8.420   1.794   0.515  0.00  0.00     0.079 H 
ATOM     29  H2  8OG d   1      -7.932   0.164  -0.058  0.00  0.00     0.079 H 
BRANCH  27  30
ATOM     30  O5  8OG d   1      -7.722   1.698  -1.427  0.00  0.00    -0.280 OA
BRANCH  30  31
ATOM     31  P   8OG d   1      -8.253   3.046  -2.129  0.00  0.00     0.422 P 
ATOM     32  O3P 8OG d   1      -6.973   3.501  -2.993  0.00  0.00    -0.617 OA
ATOM     33  O1P 8OG d   1      -9.344   2.701  -3.067  0.00  0.00    -0.617 OA
ATOM     34  O2P 8OG d   1      -8.492   4.067  -1.084  0.00  0.00    -0.617 OA
ENDBRANCH  30  31
ENDBRANCH  27  30
ENDBRANCH   1  27
BRANCH   3  35
ATOM     35  O3  8OG d   1     -11.187   2.209  -2.225  0.00  0.00    -0.393 OA
ATOM     36  H5  8OG d   1     -10.429   2.291  -2.792  0.00  0.00     0.210 HD
ENDBRANCH   3  35
TORSDOF 5
