REMARK  5 active torsions:
REMARK  status: ('A' for Active; 'I' for Inactive)
REMARK    1  A    between atoms: P_2  and  O5_5 
REMARK    2  A    between atoms: O5_5  and  C5_6 
REMARK    3  A    between atoms: C5_6  and  C4_7 
REMARK    4  A    between atoms: C3_9  and  O3_10 
REMARK    5  A    between atoms: C1_12  and  N9_13 
ROOT
ATOM      1  C4  8OG d   1     -10.466   1.628  -2.381  0.00  0.00     0.087 C 
ATOM      2  O4  8OG d   1      -9.400   1.673  -1.426  0.00  0.00    -0.356 OA
ATOM      3  C3  8OG d   1     -11.251   0.393  -1.935  0.00  0.00     0.066 C 
ATOM      4  C2  8OG d   1     -10.629  -0.087  -0.620  0.00  0.00     0.003 C 
ATOM      5  C1  8OG d   1      -9.470   0.846  -0.257  0.00  0.00     0.119 C 
ATOM      6  H3  8OG d   1     -10.013   1.420  -3.362  0.00  0.00     0.090 H 
ATOM      7  H4  8OG d   1     -12.298   0.677  -1.755  0.00  0.00     0.087 H 
ATOM      8  H6  8OG d   1     -10.254  -1.114  -0.741  0.00  0.00     0.043 H 
ATOM      9  H7  8OG d   1     -11.386  -0.065   0.178  0.00  0.00     0.043 H 
ATOM     10  H8  8OG d   1      -8.559   0.233  -0.316  0.00  0.00     0.119 H 
ENDROOT
BRANCH   5  11
ATOM     11  N9  8OG d   1      -9.416   1.300   1.151  0.00  0.00    -0.254 N 
ATOM     12  C8  8OG d   1     -10.500   1.858   1.776  0.00  0.00     0.331 A 
ATOM     13  N7  8OG d   1     -10.072   2.100   3.054  0.00  0.00    -0.300 N 
ATOM     14  O8  8OG d   1     -11.659   2.090   1.285  0.00  0.00    -0.246 OA
ATOM     15  C5  8OG d   1      -8.771   1.708   3.228  0.00  0.00     0.152 A 
ATOM     16  H9  8OG d   1     -10.637   2.511   3.769  0.00  0.00     0.171 HD
ATOM     17  C6  8OG d   1      -7.896   1.720   4.258  0.00  0.00     0.279 A 
ATOM     18  C4  8OG d   1      -8.337   1.195   2.022  0.00  0.00     0.172 A 
ATOM     19  O6  8OG d   1      -8.284   2.188   5.384  0.00  0.00    -0.265 OA
ATOM     20  N1  8OG d   1      -6.594   1.244   4.151  0.00  0.00    -0.292 N 
ATOM     21  C2  8OG d   1      -6.200   0.743   2.939  0.00  0.00     0.204 A 
ATOM     22  H10 8OG d   1      -5.968   1.267   4.931  0.00  0.00     0.172 HD
ATOM     23  N2  8OG d   1      -4.945   0.284   2.839  0.00  0.00    -0.369 N 
ATOM     24  N3  8OG d   1      -7.028   0.685   1.813  0.00  0.00    -0.194 NA
ATOM     25  H11 8OG d   1      -4.607  -0.102   1.946  0.00  0.00     0.159 HD
ATOM     26  H12 8OG d   1      -4.318   0.317   3.656  0.00  0.00     0.159 HD
ENDBRANCH   5  11
BRANCH   1  27
ATOM     27  C5  8OG d   1     -11.351   2.857  -2.604  0.00  0.00     0.059 C 
ATOM     28  H1  8OG d   1     -12.096   2.629  -3.381  0.00  0.00     0.079 H 
ATOM     29  H2  8OG d   1     -11.865   3.107  -1.664  0.00  0.00     0.079 H 
BRANCH  27  30
ATOM     30  O5  8OG d   1     -10.566   3.977  -3.021  0.00  0.00    -0.280 OA
BRANCH  30  31
ATOM     31  P   8OG d   1      -9.702   3.897  -4.377  0.00  0.00     0.422 P 
ATOM     32  O3P 8OG d   1      -8.829   5.247  -4.304  0.00  0.00    -0.617 OA
ATOM     33  O1P 8OG d   1      -8.785   2.738  -4.291  0.00  0.00    -0.617 OA
ATOM     34  O2P 8OG d   1     -10.621   4.002  -5.533  0.00  0.00    -0.617 OA
ENDBRANCH  30  31
ENDBRANCH  27  30
ENDBRANCH   1  27
BRANCH   3  35
ATOM     35  O3  8OG d   1     -11.230  -0.631  -2.933  0.00  0.00    -0.393 OA
ATOM     36  H5  8OG d   1     -11.725  -1.381  -2.626  0.00  0.00     0.210 HD
ENDBRANCH   3  35
TORSDOF 5
