REMARK  7 active torsions:
REMARK  status: ('A' for Active; 'I' for Inactive)
REMARK       I    between atoms: N1_1  and  C2_2 
REMARK       I    between atoms: C2_2  and  N3_3 
REMARK    1  A    between atoms: N4_4  and  C5_5 
REMARK    2  A    between atoms: C5_5  and  C6_6 
REMARK    3  A    between atoms: C5_5  and  C12_12 
REMARK       I    between atoms: C12_12  and  N14_14 
REMARK    4  A    between atoms: N14_14  and  C15_15 
REMARK    5  A    between atoms: C15_15  and  C16_16 
REMARK       I    between atoms: C16_16  and  N18_18 
REMARK    6  A    between atoms: C21_23  and  C24_24 
REMARK    7  A    between atoms: C27_28  and  C29_29 
ROOT
ATOM      1  C15 NON d   1      89.201  22.514   7.672  0.00  0.00     0.069 C 
ATOM      2  H19 NON d   1      89.069  23.200   8.522  0.00  0.00     0.078 H 
ATOM      3  H20 NON d   1      88.510  21.664   7.776  0.00  0.00     0.078 H 
ENDROOT
BRANCH   1   4
ATOM      4  N14 NON d   1      90.437  22.017   7.769  0.00  0.00    -0.351 N 
ATOM      5  C12 NON d   1      91.034  21.887   8.954  0.00  0.00     0.241 C 
ATOM      6  O13 NON d   1      90.470  21.400   9.920  0.00  0.00    -0.271 OA
ATOM      7  H18 NON d   1      90.922  21.738   6.940  0.00  0.00     0.163 HD
BRANCH   5   8
ATOM      8  C5  NON d   1      92.461  22.359   9.054  0.00  0.00     0.107 C 
ATOM      9  H6  NON d   1      92.818  22.567   8.035  0.00  0.00     0.089 H 
BRANCH   8  10
ATOM     10  N4  NON d   1      93.317  21.346   9.652  0.00  0.00    -0.213 N 
ATOM     11  C2  NON d   1      94.141  20.563   8.954  0.00  0.00     0.666 C 
ATOM     12  N1  NON d   1      94.312  19.307   9.337  0.00  0.00    -0.235 N 
ATOM     13  N3  NON d   1      94.795  21.012   7.888  0.00  0.00    -0.235 N 
ATOM     14  H1  NON d   1      94.945  18.689   8.809  0.00  0.00     0.174 HD
ATOM     15  H2  NON d   1      93.812  18.948  10.163  0.00  0.00     0.174 HD
ATOM     16  H3  NON d   1      94.670  21.987   7.580  0.00  0.00     0.174 HD
ATOM     17  H4  NON d   1      95.427  20.385   7.370  0.00  0.00     0.174 HD
ATOM     18  H5  NON d   1      93.285  21.226  10.675  0.00  0.00     0.178 HD
ENDBRANCH   8  10
BRANCH   8  19
ATOM     19  C6  NON d   1      92.602  23.630   9.887  0.00  0.00    -0.025 C 
ATOM     20  C7  NON d   1      94.015  24.208   9.758  0.00  0.00    -0.059 C 
ATOM     21  C8  NON d   1      94.202  25.486  10.581  0.00  0.00    -0.065 C 
ATOM     22  H8  NON d   1      94.207  24.439   8.700  0.00  0.00     0.033 H 
ATOM     23  H9  NON d   1      94.737  23.455  10.106  0.00  0.00     0.033 H 
ATOM     24  C9  NON d   1      93.131  26.534  10.269  0.00  0.00    -0.065 C 
ATOM     25  H10 NON d   1      95.191  25.912  10.355  0.00  0.00     0.033 H 
ATOM     26  H11 NON d   1      94.148  25.231  11.650  0.00  0.00     0.033 H 
ATOM     27  C10 NON d   1      91.722  25.953  10.378  0.00  0.00    -0.065 C 
ATOM     28  H12 NON d   1      93.284  26.907   9.245  0.00  0.00     0.033 H 
ATOM     29  H13 NON d   1      93.229  27.367  10.981  0.00  0.00     0.033 H 
ATOM     30  C11 NON d   1      91.574  24.699   9.515  0.00  0.00    -0.059 C 
ATOM     31  H14 NON d   1      90.996  26.708  10.042  0.00  0.00     0.033 H 
ATOM     32  H15 NON d   1      91.521  25.692  11.428  0.00  0.00     0.033 H 
ATOM     33  H16 NON d   1      90.564  24.287   9.656  0.00  0.00     0.033 H 
ATOM     34  H17 NON d   1      91.713  24.975   8.459  0.00  0.00     0.033 H 
ATOM     35  H7  NON d   1      92.437  23.357  10.940  0.00  0.00     0.043 H 
ENDBRANCH   8  19
ENDBRANCH   5   8
ENDBRANCH   1   4
BRANCH   1  36
ATOM     36  C16 NON d   1      88.821  23.187   6.570  0.00  0.00     0.237 C 
ATOM     37  O17 NON d   1      89.668  23.740   5.883  0.00  0.00    -0.272 OA
ATOM     38  N18 NON d   1      87.450  23.259   6.190  0.00  0.00    -0.351 N 
ATOM     39  C19 NON d   1      86.461  22.366   6.815  0.00  0.00    -0.002 C 
ATOM     40  C23 NON d   1      86.992  24.201   5.145  0.00  0.00    -0.002 C 
ATOM     41  C20 NON d   1      85.720  21.619   5.707  0.00  0.00    -0.042 C 
ATOM     42  H21 NON d   1      85.747  22.958   7.406  0.00  0.00     0.064 H 
ATOM     43  H22 NON d   1      86.972  21.646   7.471  0.00  0.00     0.064 H 
ATOM     44  C21 NON d   1      85.142  22.563   4.644  0.00  0.00    -0.009 C 
ATOM     45  H23 NON d   1      84.895  21.048   6.158  0.00  0.00     0.036 H 
ATOM     46  H24 NON d   1      86.421  20.926   5.219  0.00  0.00     0.036 H 
ATOM     47  C22 NON d   1      86.246  23.440   4.042  0.00  0.00    -0.042 C 
ATOM     48  H29 NON d   1      84.430  23.243   5.135  0.00  0.00     0.049 H 
ATOM     49  H27 NON d   1      86.958  22.802   3.498  0.00  0.00     0.036 H 
ATOM     50  H28 NON d   1      85.795  24.162   3.346  0.00  0.00     0.036 H 
ATOM     51  H25 NON d   1      87.863  24.713   4.709  0.00  0.00     0.064 H 
ATOM     52  H26 NON d   1      86.317  24.944   5.595  0.00  0.00     0.064 H 
BRANCH  44  53
ATOM     53  C24 NON d   1      84.366  21.735   3.674  0.00  0.00     0.034 A 
ATOM     54  N25 NON d   1      83.189  21.116   3.877  0.00  0.00    -0.281 N 
ATOM     55  N26 NON d   1      82.840  20.479   2.794  0.00  0.00    -0.174 NA
ATOM     56  H30 NON d   1      82.647  21.141   4.753  0.00  0.00     0.189 HD
ATOM     57  C27 NON d   1      83.809  20.706   1.907  0.00  0.00     0.090 A 
ATOM     58  C28 NON d   1      84.844  21.497   2.384  0.00  0.00    -0.029 A 
ATOM     59  H31 NON d   1      85.758  21.833   1.897  0.00  0.00     0.090 H 
BRANCH  57  60
ATOM     60  C29 NON d   1      83.682  20.119   0.645  0.00  0.00     0.018 A 
ATOM     61  C34 NON d   1      84.819  19.515  -0.104  0.00  0.00     0.068 A 
ATOM     62 CL36 NON d   1      86.501  19.527   0.507  0.00  0.00    -0.082 Cl
ATOM     63  C33 NON d   1      84.535  18.894  -1.424  0.00  0.00     0.056 A 
ATOM     64  C32 NON d   1      83.232  18.884  -1.912  0.00  0.00    -0.060 A 
ATOM     65 CL35 NON d   1      85.869  18.159  -2.369  0.00  0.00    -0.083 Cl
ATOM     66  C31 NON d   1      82.190  19.447  -1.174  0.00  0.00    -0.080 A 
ATOM     67  H34 NON d   1      83.024  18.434  -2.876  0.00  0.00     0.086 H 
ATOM     68  C30 NON d   1      82.408  20.042   0.072  0.00  0.00    -0.069 A 
ATOM     69  H33 NON d   1      81.184  19.422  -1.578  0.00  0.00     0.083 H 
ATOM     70  H32 NON d   1      81.564  20.457   0.611  0.00  0.00     0.085 H 
ENDBRANCH  57  60
ENDBRANCH  44  53
ENDBRANCH   1  36
TORSDOF 7
