REMARK  6 active torsions:
REMARK  status: ('A' for Active; 'I' for Inactive)
REMARK    1  A    between atoms: C2_3  and  N1_4 
REMARK    2  A    between atoms: C6_6  and  C8_7 
REMARK    3  A    between atoms: C11_12  and  N13_13 
REMARK       I    between atoms: N13_13  and  C14_14 
REMARK       I    between atoms: C14_14  and  N15_16 
REMARK    4  A    between atoms: N15_16  and  C16_17 
REMARK    5  A    between atoms: C24_20  and  N25_21 
REMARK    6  A    between atoms: C21_23  and  C20_24 
ROOT
ATOM      1  N13 NSC d   1      84.455  38.296 137.062  0.00  0.00    -0.309 N 
ATOM      2  C14 NSC d   1      84.922  39.340 137.774  0.00  0.00     0.325 C 
ATOM      3  O28 NSC d   1      86.081  39.756 137.657  0.00  0.00    -0.247 OA
ATOM      4  N15 NSC d   1      84.027  39.912 138.607  0.00  0.00    -0.309 N 
ATOM      5  H10 NSC d   1      83.502  38.035 137.218  0.00  0.00     0.170 HD
ATOM      6  H11 NSC d   1      83.105  39.525 138.609  0.00  0.00     0.170 HD
ENDROOT
BRANCH   1   7
ATOM      7  C11 NSC d   1      85.146  37.565 136.156  0.00  0.00     0.037 A 
ATOM      8  C12 NSC d   1      86.501  37.838 135.830  0.00  0.00    -0.043 A 
ATOM      9  C3  NSC d   1      87.165  37.057 134.856  0.00  0.00     0.021 A 
ATOM     10  H1  NSC d   1      87.026  38.645 136.328  0.00  0.00     0.088 H 
ATOM     11  C2  NSC d   1      88.497  37.328 134.496  0.00  0.00     0.040 A 
ATOM     12  C4  NSC d   1      86.480  35.997 134.206  0.00  0.00     0.069 A 
ATOM     13  C7  NSC d   1      89.119  36.549 133.504  0.00  0.00    -0.033 A 
ATOM     14  C6  NSC d   1      88.400  35.510 132.886  0.00  0.00     0.033 A 
ATOM     15  H4  NSC d   1      90.145  36.748 133.218  0.00  0.00     0.090 H 
ATOM     16  N5  NSC d   1      87.111  35.261 133.249  0.00  0.00    -0.253 NA
ATOM     17  C9  NSC d   1      85.141  35.721 134.536  0.00  0.00    -0.052 A 
ATOM     18  C10 NSC d   1      84.479  36.502 135.505  0.00  0.00    -0.055 A 
ATOM     19  H8  NSC d   1      84.618  34.908 134.045  0.00  0.00     0.087 H 
ATOM     20  H9  NSC d   1      83.447  36.285 135.754  0.00  0.00     0.087 H 
BRANCH  11  21
ATOM     21  N1  NSC d   1      89.170  38.319 135.086  0.00  0.00    -0.398 N 
ATOM     22  H2  NSC d   1      90.145  38.511 134.816  0.00  0.00     0.156 HD
ATOM     23  H3  NSC d   1      88.714  38.891 135.811  0.00  0.00     0.156 HD
ENDBRANCH  11  21
BRANCH  14  24
ATOM     24  C8  NSC d   1      89.062  34.659 131.799  0.00  0.00    -0.035 C 
ATOM     25  H5  NSC d   1      88.348  33.904 131.439  0.00  0.00     0.035 H 
ATOM     26  H6  NSC d   1      89.948  34.157 132.215  0.00  0.00     0.035 H 
ATOM     27  H7  NSC d   1      89.366  35.305 130.962  0.00  0.00     0.035 H 
ENDBRANCH  14  24
ENDBRANCH   1   7
BRANCH   4  28
ATOM     28  C16 NSC d   1      84.250  40.956 139.440  0.00  0.00     0.037 A 
ATOM     29  C17 NSC d   1      85.542  41.519 139.638  0.00  0.00    -0.043 A 
ATOM     30  C18 NSC d   1      85.734  42.528 140.611  0.00  0.00     0.021 A 
ATOM     31  H12 NSC d   1      86.380  41.174 139.043  0.00  0.00     0.088 H 
ATOM     32  C24 NSC d   1      87.005  43.081 140.849  0.00  0.00     0.040 A 
ATOM     33  C19 NSC d   1      84.638  42.981 141.385  0.00  0.00     0.069 A 
ATOM     34  C23 NSC d   1      87.161  44.062 141.843  0.00  0.00    -0.033 A 
ATOM     35  C21 NSC d   1      86.043  44.478 142.586  0.00  0.00     0.033 A 
ATOM     36  H15 NSC d   1      88.136  44.495 142.035  0.00  0.00     0.090 H 
ATOM     37  N22 NSC d   1      84.820  43.933 142.341  0.00  0.00    -0.253 NA
ATOM     38  C26 NSC d   1      83.363  42.428 141.179  0.00  0.00    -0.052 A 
ATOM     39  C27 NSC d   1      83.170  41.422 140.215  0.00  0.00    -0.055 A 
ATOM     40  H19 NSC d   1      82.522  42.779 141.767  0.00  0.00     0.087 H 
ATOM     41  H20 NSC d   1      82.182  41.002 140.067  0.00  0.00     0.087 H 
BRANCH  32  42
ATOM     42  N25 NSC d   1      88.062  42.683 140.142  0.00  0.00    -0.398 N 
ATOM     43  H13 NSC d   1      88.988  43.095 140.325  0.00  0.00     0.156 HD
ATOM     44  H14 NSC d   1      87.953  41.964 139.413  0.00  0.00     0.156 HD
ENDBRANCH  32  42
BRANCH  35  45
ATOM     45  C20 NSC d   1      86.200  45.546 143.672  0.00  0.00    -0.035 C 
ATOM     46  H16 NSC d   1      85.224  45.739 144.141  0.00  0.00     0.035 H 
ATOM     47  H17 NSC d   1      86.580  46.475 143.221  0.00  0.00     0.035 H 
ATOM     48  H18 NSC d   1      86.909  45.192 144.435  0.00  0.00     0.035 H 
ENDBRANCH  35  45
ENDBRANCH   4  28
TORSDOF 6
