REMARK  13 active torsions:
REMARK  status: ('A' for Active; 'I' for Inactive)
REMARK    1  A    between atoms: OAG_1  and  NAF_2 
REMARK       I    between atoms: NAF_2  and  CAD_3 
REMARK    2  A    between atoms: CAD_3  and  CAC_5 
REMARK    3  A    between atoms: CAC_5  and  CAB_6 
REMARK    4  A    between atoms: CAB_6  and  CAK_7 
REMARK    5  A    between atoms: CAB_6  and  CAA_25 
REMARK       I    between atoms: CAK_7  and  NAM_9 
REMARK    6  A    between atoms: NAM_9  and  CAN_10 
REMARK    7  A    between atoms: CAN_10  and  CAY_11 
REMARK    8  A    between atoms: CAN_10  and  CAO_15 
REMARK       I    between atoms: CAY_11  and  NBB_13 
REMARK    9  A    between atoms: NBB_13  and  CBA_14 
REMARK   10  A    between atoms: CAO_15  and  CAP_16 
REMARK   11  A    between atoms: CAA_25  and  CAH_26 
REMARK   12  A    between atoms: CAH_26  and  CAJ_27 
REMARK   13  A    between atoms: CAH_26  and  CAI_28 
ROOT
ATOM      1  CAK GM6 d   1      82.929  35.977 135.305  0.00  0.00     0.223 C 
ATOM      2  OAL GM6 d   1      81.930  36.272 134.648  0.00  0.00    -0.273 OA
ATOM      3  NAM GM6 d   1      83.938  35.242 134.845  0.00  0.00    -0.347 N 
ATOM      4  H6  GM6 d   1      84.695  35.038 135.466  0.00  0.00     0.163 HD
ENDROOT
BRANCH   3   5
ATOM      5  CAN GM6 d   1      84.004  34.712 133.474  0.00  0.00     0.093 C 
ATOM      6  H7  GM6 d   1      83.927  35.551 132.767  0.00  0.00     0.088 H 
BRANCH   5   7
ATOM      7  CAY GM6 d   1      82.858  33.734 133.199  0.00  0.00     0.240 C 
ATOM      8  OAZ GM6 d   1      82.772  32.673 133.809  0.00  0.00    -0.271 OA
ATOM      9  NBB GM6 d   1      81.987  34.138 132.275  0.00  0.00    -0.364 N 
ATOM     10  H8  GM6 d   1      81.209  34.719 132.514  0.00  0.00     0.161 HD
BRANCH   9  11
ATOM     11  CBA GM6 d   1      82.212  33.698 130.891  0.00  0.00    -0.018 C 
ATOM     12  H9  GM6 d   1      81.421  34.105 130.244  0.00  0.00     0.056 H 
ATOM     13  H10 GM6 d   1      82.192  32.599 130.848  0.00  0.00     0.056 H 
ATOM     14  H11 GM6 d   1      83.191  34.061 130.545  0.00  0.00     0.056 H 
ENDBRANCH   9  11
ENDBRANCH   5   7
BRANCH   5  15
ATOM     15  CAO GM6 d   1      85.346  34.006 133.267  0.00  0.00    -0.012 C 
ATOM     16  H12 GM6 d   1      85.413  33.657 132.226  0.00  0.00     0.044 H 
ATOM     17  H13 GM6 d   1      85.409  33.144 133.948  0.00  0.00     0.044 H 
BRANCH  15  18
ATOM     18  CAP GM6 d   1      86.513  34.957 133.553  0.00  0.00    -0.028 A 
ATOM     19  CAT GM6 d   1      87.212  35.051 134.684  0.00  0.00    -0.015 A 
ATOM     20  NAU GM6 d   1      88.128  36.014 134.589  0.00  0.00    -0.365 N 
ATOM     21  H14 GM6 d   1      87.056  34.428 135.563  0.00  0.00     0.112 H 
ATOM     22  CAR GM6 d   1      88.072  36.593 133.389  0.00  0.00     0.042 A 
ATOM     23  H15 GM6 d   1      88.787  36.275 135.337  0.00  0.00     0.165 HD
ATOM     24  CAV GM6 d   1      88.781  37.623 132.780  0.00  0.00    -0.056 A 
ATOM     25  CAQ GM6 d   1      87.052  35.926 132.726  0.00  0.00    -0.002 A 
ATOM     26  CAX GM6 d   1      88.464  37.995 131.476  0.00  0.00    -0.081 A 
ATOM     27  H16 GM6 d   1      89.574  38.132 133.316  0.00  0.00     0.086 H 
ATOM     28  CAW GM6 d   1      87.444  37.333 130.797  0.00  0.00    -0.082 A 
ATOM     29  H17 GM6 d   1      89.009  38.797 130.991  0.00  0.00     0.083 H 
ATOM     30  CAS GM6 d   1      86.742  36.306 131.417  0.00  0.00    -0.070 A 
ATOM     31  H18 GM6 d   1      87.197  37.620 129.781  0.00  0.00     0.083 H 
ATOM     32  H19 GM6 d   1      85.949  35.796 130.882  0.00  0.00     0.084 H 
ENDBRANCH  15  18
ENDBRANCH   5  15
ENDBRANCH   3   5
BRANCH   1  33
ATOM     33  CAB GM6 d   1      83.088  36.450 136.752  0.00  0.00     0.032 C 
ATOM     34  H5  GM6 d   1      84.033  36.054 137.153  0.00  0.00     0.055 H 
BRANCH  33  35
ATOM     35  CAC GM6 d   1      83.144  37.980 136.758  0.00  0.00     0.022 C 
ATOM     36  H3  GM6 d   1      83.929  38.305 136.059  0.00  0.00     0.048 H 
ATOM     37  H4  GM6 d   1      82.171  38.368 136.423  0.00  0.00     0.048 H 
BRANCH  35  38
ATOM     38  CAD GM6 d   1      83.451  38.559 138.141  0.00  0.00     0.241 C 
ATOM     39  NAF GM6 d   1      82.847  39.714 138.409  0.00  0.00    -0.237 N 
ATOM     40  H2  GM6 d   1      82.246  40.130 137.726  0.00  0.00     0.197 HD
ATOM     41  OAE GM6 d   1      84.206  37.978 138.918  0.00  0.00    -0.271 OA
BRANCH  39  42
ATOM     42  OAG GM6 d   1      83.040  40.334 139.605  0.00  0.00    -0.287 OA
ATOM     43  H1  GM6 d   1      82.538  41.140 139.627  0.00  0.00     0.244 HD
ENDBRANCH  39  42
ENDBRANCH  35  38
ENDBRANCH  33  35
BRANCH  33  44
ATOM     44  CAA GM6 d   1      81.941  35.956 137.639  0.00  0.00    -0.051 C 
ATOM     45  H20 GM6 d   1      80.990  36.105 137.107  0.00  0.00     0.034 H 
ATOM     46  H21 GM6 d   1      81.935  36.541 138.571  0.00  0.00     0.034 H 
BRANCH  44  47
ATOM     47  CAH GM6 d   1      82.086  34.471 137.987  0.00  0.00    -0.060 C 
ATOM     48  H22 GM6 d   1      83.124  34.290 138.304  0.00  0.00     0.038 H 
BRANCH  47  49
ATOM     49  CAJ GM6 d   1      81.785  33.575 136.783  0.00  0.00    -0.073 C 
ATOM     50  H23 GM6 d   1      81.900  32.520 137.073  0.00  0.00     0.028 H 
ATOM     51  H24 GM6 d   1      82.485  33.809 135.968  0.00  0.00     0.028 H 
ATOM     52  H25 GM6 d   1      80.754  33.752 136.443  0.00  0.00     0.028 H 
ENDBRANCH  47  49
BRANCH  47  53
ATOM     53  CAI GM6 d   1      81.149  34.111 139.141  0.00  0.00    -0.073 C 
ATOM     54  H26 GM6 d   1      81.367  34.756 140.005  0.00  0.00     0.028 H 
ATOM     55  H27 GM6 d   1      81.301  33.058 139.422  0.00  0.00     0.028 H 
ATOM     56  H28 GM6 d   1      80.106  34.260 138.826  0.00  0.00     0.028 H 
ENDBRANCH  47  53
ENDBRANCH  44  47
ENDBRANCH  33  44
ENDBRANCH   1  33
TORSDOF 13
