REMARK  6 active torsions:
REMARK  status: ('A' for Active; 'I' for Inactive)
REMARK    1  A    between atoms: C3_1  and  O3_2 
REMARK    2  A    between atoms: C3_1  and  C2_3 
REMARK    3  A    between atoms: C2_3  and  O1_4 
REMARK    4  A    between atoms: O1_4  and  C1_5 
REMARK    5  A    between atoms: C1_5  and  N9_6 
REMARK    6  A    between atoms: C2_13  and  N2_14 
ROOT
ATOM      1  N9  AC2 d   1     -17.650  87.043   0.857  0.00  0.00    -0.301 N 
ATOM      2  C8  AC2 d   1     -18.563  87.763   0.117  0.00  0.00     0.070 A 
ATOM      3  N7  AC2 d   1     -18.008  88.506  -0.811  0.00  0.00    -0.234 NA
ATOM      4  C5  AC2 d   1     -16.645  88.251  -0.665  0.00  0.00     0.173 A 
ATOM      5  C6  AC2 d   1     -15.528  88.767  -1.378  0.00  0.00     0.292 A 
ATOM      6  O6  AC2 d   1     -15.522  89.573  -2.311  0.00  0.00    -0.265 OA
ATOM      7  N1  AC2 d   1     -14.324  88.241  -0.903  0.00  0.00    -0.152 N 
ATOM      8  C2  AC2 d   1     -14.214  87.342   0.127  0.00  0.00     0.703 A 
ATOM      9  N3  AC2 d   1     -15.240  86.860   0.799  0.00  0.00    -0.044 NA
ATOM     10  C4  AC2 d   1     -16.414  87.354   0.355  0.00  0.00     0.186 A 
ATOM     11  H8  AC2 d   1     -19.638  87.719   0.286  0.00  0.00     0.144 H 
ATOM     12  H9  AC2 d   1     -13.480  88.542  -1.347  0.00  0.00     0.187 HD
ENDROOT
BRANCH   1  13
ATOM     13  C1  AC2 d   1     -17.896  86.130   1.967  0.00  0.00     0.086 C 
ATOM     14  H6  AC2 d   1     -18.980  85.983   2.082  0.00  0.00     0.107 H 
ATOM     15  H7  AC2 d   1     -17.415  85.164   1.755  0.00  0.00     0.107 H 
BRANCH  13  16
ATOM     16  O1  AC2 d   1     -17.356  86.673   3.191  0.00  0.00    -0.369 OA
BRANCH  16  17
ATOM     17  C2  AC2 d   1     -17.865  88.031   3.448  0.00  0.00     0.041 C 
ATOM     18  H4  AC2 d   1     -17.550  88.349   4.453  0.00  0.00     0.077 H 
ATOM     19  H5  AC2 d   1     -17.449  88.719   2.698  0.00  0.00     0.077 H 
BRANCH  17  20
ATOM     20  C3  AC2 d   1     -19.388  88.067   3.368  0.00  0.00     0.036 C 
ATOM     21  H1  AC2 d   1     -19.770  87.039   3.280  0.00  0.00     0.077 H 
ATOM     22  H2  AC2 d   1     -19.787  88.529   4.283  0.00  0.00     0.077 H 
BRANCH  20  23
ATOM     23  O3  AC2 d   1     -19.823  88.840   2.212  0.00  0.00    -0.399 OA
ATOM     24  H3  AC2 d   1     -19.482  88.442   1.420  0.00  0.00     0.209 HD
ENDBRANCH  20  23
ENDBRANCH  17  20
ENDBRANCH  16  17
ENDBRANCH  13  16
ENDBRANCH   1  13
BRANCH   8  25
ATOM     25  N2  AC2 d   1     -12.992  86.954   0.444  0.00  0.00    -0.233 N 
ATOM     26  H10 AC2 d   1     -12.848  86.280   1.210  0.00  0.00     0.174 HD
ATOM     27  H11 AC2 d   1     -12.183  87.325  -0.074  0.00  0.00     0.174 HD
ENDBRANCH   8  25
TORSDOF 6
