REMARK  19 active torsions:
REMARK  status: ('A' for Active; 'I' for Inactive)
REMARK    1  A    between atoms: C5_5  and  P1_1 
REMARK    2  A    between atoms: C8_8  and  C5_5 
REMARK    3  A    between atoms: C14_14  and  C11_11 
REMARK    4  A    between atoms: C15_15  and  C14_14 
REMARK    5  A    between atoms: N16_16  and  C15_15 
REMARK    6  A    between atoms: C15_15  and  C17_17 
REMARK       I    between atoms: C31_31  and  N16_16 
REMARK       I    between atoms: C17_17  and  N18_18 
REMARK    7  A    between atoms: N18_18  and  C20_20 
REMARK    8  A    between atoms: C20_20  and  C21_21 
REMARK    9  A    between atoms: C21_21  and  C22_22 
REMARK   10  A    between atoms: C22_22  and  C23_23 
REMARK   11  A    between atoms: C23_23  and  C24_24 
REMARK   12  A    between atoms: N25_25  and  C26_26 
REMARK       I    between atoms: C33_33  and  N25_25 
REMARK   13  A    between atoms: C26_26  and  C27_27 
REMARK   14  A    between atoms: C26_26  and  C31_31 
REMARK   15  A    between atoms: C27_27  and  C28_28 
REMARK   16  A    between atoms: C46_46  and  C33_33 
REMARK   17  A    between atoms: C39_39  and  P35_35 
REMARK   18  A    between atoms: C43_43  and  C39_39 
REMARK   19  A    between atoms: C48_48  and  C46_46 
ROOT
ATOM      1  C15 SNA d   1       8.495  18.679  11.134  0.00  0.00     0.071 C 
ATOM      2  H7  SNA d   1       8.244  18.925  12.176  0.00  0.00     0.081 H 
ENDROOT
BRANCH   1   3
ATOM      3  C14 SNA d   1       9.180  17.291  11.232  0.00  0.00    -0.017 C 
ATOM      4  H5  SNA d   1       8.430  16.607  11.656  0.00  0.00     0.043 H 
ATOM      5  H6  SNA d   1       9.411  16.988  10.200  0.00  0.00     0.043 H 
BRANCH   3   6
ATOM      6  C11 SNA d   1      10.302  17.100  11.938  0.00  0.00    -0.056 A 
ATOM      7  C10 SNA d   1      11.482  16.687  11.043  0.00  0.00    -0.076 A 
ATOM      8  C9  SNA d   1      12.773  16.477  11.630  0.00  0.00    -0.070 A 
ATOM      9  H2  SNA d   1      11.339  16.556   9.976  0.00  0.00     0.084 H 
ATOM     10  C8  SNA d   1      12.945  16.684  13.217  0.00  0.00     0.027 A 
ATOM     11  H1  SNA d   1      13.617  16.184  11.017  0.00  0.00     0.084 H 
ATOM     12  C13 SNA d   1      11.704  17.101  14.097  0.00  0.00    -0.070 A 
ATOM     13  C12 SNA d   1      10.404  17.296  13.388  0.00  0.00    -0.076 A 
ATOM     14  H4  SNA d   1      11.791  17.240  15.169  0.00  0.00     0.084 H 
ATOM     15  H3  SNA d   1       9.525  17.586  13.952  0.00  0.00     0.084 H 
BRANCH  10  16
ATOM     16  C5  SNA d   1      14.359  16.480  13.847  0.00  0.00     0.380 C 
ATOM     17  F6  SNA d   1      14.448  17.464  14.838  0.00  0.00    -0.185 F 
ATOM     18  F7  SNA d   1      15.308  16.711  12.863  0.00  0.00    -0.185 F 
BRANCH  16  19
ATOM     19  P1  SNA d   1      14.729  14.862  14.511  0.00  0.00     0.339 P 
ATOM     20  O2  SNA d   1      14.603  13.868  13.344  0.00  0.00    -0.635 OA
ATOM     21  O3  SNA d   1      16.154  14.923  15.057  0.00  0.00    -0.635 OA
ATOM     22  O4  SNA d   1      13.756  14.463  15.640  0.00  0.00    -0.635 OA
ENDBRANCH  16  19
ENDBRANCH  10  16
ENDBRANCH   3   6
ENDBRANCH   1   3
BRANCH   1  23
ATOM     23  N16 SNA d   1       7.263  18.741  10.373  0.00  0.00    -0.349 N 
ATOM     24  C31 SNA d   1       6.270  19.519  10.803  0.00  0.00     0.241 C 
ATOM     25  O32 SNA d   1       6.198  20.213  11.772  0.00  0.00    -0.271 OA
ATOM     26  H8  SNA d   1       7.159  18.206   9.535  0.00  0.00     0.163 HD
BRANCH  24  27
ATOM     27  C26 SNA d   1       5.155  19.481   9.789  0.00  0.00     0.098 C 
ATOM     28  H22 SNA d   1       5.272  18.397   9.645  0.00  0.00     0.088 H 
BRANCH  27  29
ATOM     29  N25 SNA d   1       3.857  19.282  10.417  0.00  0.00    -0.347 N 
ATOM     30  C33 SNA d   1       3.237  18.120  10.523  0.00  0.00     0.222 C 
ATOM     31  O34 SNA d   1       3.769  17.063  10.737  0.00  0.00    -0.273 OA
ATOM     32  H21 SNA d   1       3.400  20.086  10.797  0.00  0.00     0.163 HD
BRANCH  30  33
ATOM     33  C46 SNA d   1       1.889  18.370  11.433  0.00  0.00     0.033 C 
ATOM     34  H28 SNA d   1       1.766  19.442  11.645  0.00  0.00     0.054 H 
ATOM     35  H29 SNA d   1       1.961  17.815  12.380  0.00  0.00     0.054 H 
BRANCH  33  36
ATOM     36  C48 SNA d   1       0.840  17.913  10.700  0.00  0.00    -0.049 A 
ATOM     37  C45 SNA d   1       0.334  16.436  10.879  0.00  0.00    -0.076 A 
ATOM     38  C44 SNA d   1      -0.836  15.961  10.032  0.00  0.00    -0.070 A 
ATOM     39  H27 SNA d   1       0.809  15.770  11.591  0.00  0.00     0.084 H 
ATOM     40  C43 SNA d   1      -1.546  16.963   8.964  0.00  0.00     0.027 A 
ATOM     41  H26 SNA d   1      -1.200  14.946  10.140  0.00  0.00     0.084 H 
ATOM     42  C42 SNA d   1      -0.978  18.439   8.846  0.00  0.00    -0.070 A 
ATOM     43  C47 SNA d   1       0.193  18.903   9.698  0.00  0.00    -0.076 A 
ATOM     44  H25 SNA d   1      -1.433  19.130   8.145  0.00  0.00     0.084 H 
ATOM     45  H30 SNA d   1       0.571  19.915   9.606  0.00  0.00     0.084 H 
BRANCH  40  46
ATOM     46  C39 SNA d   1      -2.798  16.455   8.060  0.00  0.00     0.380 C 
ATOM     47  F40 SNA d   1      -2.706  15.053   7.966  0.00  0.00    -0.185 F 
ATOM     48  F41 SNA d   1      -2.548  16.919   6.743  0.00  0.00    -0.185 F 
BRANCH  46  49
ATOM     49  P35 SNA d   1      -4.307  16.949   8.906  0.00  0.00     0.339 P 
ATOM     50  O36 SNA d   1      -4.483  18.571   9.047  0.00  0.00    -0.635 OA
ATOM     51  O37 SNA d   1      -5.462  16.434   8.002  0.00  0.00    -0.635 OA
ATOM     52  O38 SNA d   1      -4.471  16.300  10.462  0.00  0.00    -0.635 OA
ENDBRANCH  46  49
ENDBRANCH  40  46
ENDBRANCH  33  36
ENDBRANCH  30  33
ENDBRANCH  27  29
BRANCH  27  53
ATOM     53  C27 SNA d   1       5.424  19.684   8.288  0.00  0.00     0.043 C 
ATOM     54  H23 SNA d   1       6.120  18.883   8.001  0.00  0.00     0.052 H 
ATOM     55  H24 SNA d   1       5.931  20.657   8.207  0.00  0.00     0.052 H 
BRANCH  53  56
ATOM     56  C28 SNA d   1       4.362  19.693   7.232  0.00  0.00     0.175 C 
ATOM     57  O29 SNA d   1       3.963  20.793   6.762  0.00  0.00    -0.648 OA
ATOM     58  O30 SNA d   1       3.934  18.556   6.865  0.00  0.00    -0.648 OA
ENDBRANCH  53  56
ENDBRANCH  27  53
ENDBRANCH  24  27
ENDBRANCH   1  23
BRANCH   1  59
ATOM     59  C17 SNA d   1       9.306  19.891  10.574  0.00  0.00     0.240 C 
ATOM     60  N18 SNA d   1       9.689  19.675   9.254  0.00  0.00    -0.384 N 
ATOM     61  H9  SNA d   1       8.966  19.506   8.584  0.00  0.00     0.156 HD
ATOM     62  O19 SNA d   1      10.363  20.096  11.424  0.00  0.00    -0.197 OA
BRANCH  60  63
ATOM     63  C20 SNA d   1      11.162  19.676   8.740  0.00  0.00    -0.009 C 
ATOM     64  H10 SNA d   1      11.791  18.995   9.332  0.00  0.00     0.063 H 
ATOM     65  H11 SNA d   1      11.592  20.688   8.766  0.00  0.00     0.063 H 
BRANCH  63  66
ATOM     66  C21 SNA d   1      10.994  19.139   7.191  0.00  0.00    -0.051 C 
ATOM     67  H12 SNA d   1      10.966  20.000   6.507  0.00  0.00     0.035 H 
ATOM     68  H13 SNA d   1      10.057  18.570   7.102  0.00  0.00     0.035 H 
BRANCH  66  69
ATOM     69  C22 SNA d   1      12.221  18.199   6.807  0.00  0.00    -0.064 C 
ATOM     70  H14 SNA d   1      12.507  17.597   7.682  0.00  0.00     0.033 H 
ATOM     71  H15 SNA d   1      13.073  18.821   6.496  0.00  0.00     0.033 H 
BRANCH  69  72
ATOM     72  C23 SNA d   1      11.813  17.235   5.617  0.00  0.00    -0.068 C 
ATOM     73  H16 SNA d   1      11.521  17.840   4.746  0.00  0.00     0.032 H 
ATOM     74  H17 SNA d   1      10.963  16.612   5.932  0.00  0.00     0.032 H 
BRANCH  72  75
ATOM     75  C24 SNA d   1      13.025  16.296   5.216  0.00  0.00    -0.077 C 
ATOM     76  H18 SNA d   1      12.720  15.637   4.390  0.00  0.00     0.027 H 
ATOM     77  H19 SNA d   1      13.319  15.686   6.083  0.00  0.00     0.027 H 
ATOM     78  H20 SNA d   1      13.877  16.914   4.897  0.00  0.00     0.027 H 
ENDBRANCH  72  75
ENDBRANCH  69  72
ENDBRANCH  66  69
ENDBRANCH  63  66
ENDBRANCH  60  63
ENDBRANCH   1  59
TORSDOF 19
