REMARK  2 active torsions:
REMARK  status: ('A' for Active; 'I' for Inactive)
REMARK    1  A    between atoms: C5A_7  and  C4_8 
REMARK    2  A    between atoms: C2_13  and  N7_14 
ROOT
ATOM      1  C4  CK1 d   1      13.044  45.063  24.737  0.00  0.00     0.089 A 
ATOM      2  N3  CK1 d   1      13.621  44.916  23.501  0.00  0.00    -0.063 NA
ATOM      3  C5  CK1 d   1      12.036  46.084  24.851  0.00  0.00    -0.036 A 
ATOM      4  C6  CK1 d   1      11.718  46.885  23.725  0.00  0.00     0.023 A 
ATOM      5  N1  CK1 d   1      12.389  46.595  22.535  0.00  0.00    -0.075 NA
ATOM      6  C2  CK1 d   1      13.300  45.693  22.506  0.00  0.00     0.720 A 
ATOM      7  H2  CK1 d   1      11.523  46.240  25.793  0.00  0.00     0.089 H 
ATOM      8  H3  CK1 d   1      10.989  47.685  23.785  0.00  0.00     0.115 H 
ENDROOT
BRANCH   1   9
ATOM      9  C5A CK1 d   1      13.388  44.250  25.907  0.00  0.00     0.024 A 
ATOM     10  C4A CK1 d   1      13.561  44.864  27.193  0.00  0.00    -0.041 A 
ATOM     11  C3A CK1 d   1      13.921  43.833  28.152  0.00  0.00     0.077 A 
ATOM     12  H1  CK1 d   1      13.442  45.924  27.413  0.00  0.00     0.088 H 
ATOM     13 CL7A CK1 d   1      14.171  44.275  29.729  0.00  0.00    -0.076 Cl
ATOM     14  S2A CK1 d   1      14.041  42.285  27.535  0.00  0.00    -0.065 SA
ATOM     15  C1A CK1 d   1      13.636  42.920  26.036  0.00  0.00     0.088 A 
ATOM     16 CL6A CK1 d   1      13.557  41.890  24.844  0.00  0.00    -0.075 Cl
ENDBRANCH   1   9
BRANCH   6  17
ATOM     17  N7  CK1 d   1      13.856  45.457  21.310  0.00  0.00    -0.231 N 
ATOM     18  H4  CK1 d   1      14.594  44.745  21.217  0.00  0.00     0.174 HD
ATOM     19  H5  CK1 d   1      13.545  45.988  20.484  0.00  0.00     0.174 HD
ENDBRANCH   6  17
TORSDOF 2
