REMARK  4 active torsions:
REMARK  status: ('A' for Active; 'I' for Inactive)
REMARK    1  A    between atoms: C7A_1  and  C3A_2 
REMARK    2  A    between atoms: C1A_5  and  C6A_6 
REMARK    3  A    between atoms: C5A_7  and  C4_8 
REMARK    4  A    between atoms: C2_13  and  N7_14 
ROOT
ATOM      1  C3A CK2 d   1      13.948  43.745  27.685  0.00  0.00     0.072 A 
ATOM      2  S4A CK2 d   1      13.454  45.233  27.146  0.00  0.00    -0.071 SA
ATOM      3  N2A CK2 d   1      13.895  42.920  26.763  0.00  0.00    -0.250 NA
ATOM      4  C1A CK2 d   1      13.485  43.356  25.574  0.00  0.00     0.051 A 
ATOM      5  C5A CK2 d   1      13.201  44.639  25.529  0.00  0.00     0.060 A 
ENDROOT
BRANCH   5   6
ATOM      6  C4  CK2 d   1      12.749  45.456  24.400  0.00  0.00     0.096 A 
ATOM      7  N3  CK2 d   1      13.262  45.273  23.187  0.00  0.00    -0.062 NA
ATOM      8  C2  CK2 d   1      12.827  45.997  22.250  0.00  0.00     0.720 A 
ATOM      9  N1  CK2 d   1      11.938  46.958  22.310  0.00  0.00    -0.075 NA
ATOM     10  C6  CK2 d   1      11.415  47.181  23.542  0.00  0.00     0.023 A 
ATOM     11  C5  CK2 d   1      11.800  46.449  24.639  0.00  0.00    -0.036 A 
ATOM     12  H8  CK2 d   1      10.671  47.960  23.664  0.00  0.00     0.115 H 
ATOM     13  H7  CK2 d   1      11.392  46.632  25.627  0.00  0.00     0.089 H 
BRANCH   8  14
ATOM     14  N7  CK2 d   1      13.304  45.703  21.079  0.00  0.00    -0.231 N 
ATOM     15  H9  CK2 d   1      14.005  44.955  20.982  0.00  0.00     0.174 HD
ATOM     16  H10 CK2 d   1      12.981  46.218  20.247  0.00  0.00     0.174 HD
ENDBRANCH   8  14
ENDBRANCH   5   6
BRANCH   4  17
ATOM     17  C6A CK2 d   1      13.495  42.313  24.624  0.00  0.00    -0.034 C 
ATOM     18  H4  CK2 d   1      13.153  42.699  23.652  0.00  0.00     0.035 H 
ATOM     19  H5  CK2 d   1      12.823  41.508  24.956  0.00  0.00     0.035 H 
ATOM     20  H6  CK2 d   1      14.517  41.919  24.523  0.00  0.00     0.035 H 
ENDBRANCH   4  17
BRANCH   1  21
ATOM     21  C7A CK2 d   1      14.400  43.331  29.085  0.00  0.00    -0.029 C 
ATOM     22  H1  CK2 d   1      14.658  42.262  29.086  0.00  0.00     0.036 H 
ATOM     23  H2  CK2 d   1      13.586  43.512  29.802  0.00  0.00     0.036 H 
ATOM     24  H3  CK2 d   1      15.282  43.921  29.375  0.00  0.00     0.036 H 
ENDBRANCH   1  21
TORSDOF 4
