REMARK  5 active torsions:
REMARK  status: ('A' for Active; 'I' for Inactive)
REMARK    1  A    between atoms: C7B_2  and  C4B_5 
REMARK    2  A    between atoms: C1B_10  and  N7_11 
REMARK    3  A    between atoms: N7_11  and  C2_12 
REMARK    4  A    between atoms: C1A_20  and  C6A_21 
REMARK    5  A    between atoms: C3A_23  and  C7A_24 
ROOT
ATOM      1  C2  CK4 d   1      10.918  46.520  23.280  0.00  0.00     0.727 A 
ATOM      2  N1  CK4 d   1      10.968  47.099  22.093  0.00  0.00    -0.075 NA
ATOM      3  C6  CK4 d   1      12.009  46.793  21.242  0.00  0.00     0.023 A 
ATOM      4  C5  CK4 d   1      13.055  45.881  21.546  0.00  0.00    -0.036 A 
ATOM      5  N3  CK4 d   1      11.862  45.644  23.660  0.00  0.00    -0.061 NA
ATOM      6  C4  CK4 d   1      12.953  45.271  22.857  0.00  0.00     0.096 A 
ATOM      7  C5A CK4 d   1      13.862  44.309  23.428  0.00  0.00     0.060 A 
ATOM      8  S4A CK4 d   1      13.440  43.741  25.086  0.00  0.00    -0.071 SA
ATOM      9  C1A CK4 d   1      15.056  43.645  23.036  0.00  0.00     0.051 A 
ATOM     10  N2A CK4 d   1      15.595  42.759  23.994  0.00  0.00    -0.250 NA
ATOM     11  C3A CK4 d   1      14.803  42.754  25.098  0.00  0.00     0.072 A 
ATOM     12  H6  CK4 d   1      12.031  47.282  20.275  0.00  0.00     0.115 H 
ATOM     13  H7  CK4 d   1      13.861  45.660  20.856  0.00  0.00     0.089 H 
ENDROOT
BRANCH   1  14
ATOM     14  N7  CK4 d   1       9.805  46.881  24.140  0.00  0.00    -0.188 N 
ATOM     15  H5  CK4 d   1       9.212  47.559  23.641  0.00  0.00     0.184 HD
BRANCH  14  16
ATOM     16  C1B CK4 d   1       9.210  46.629  25.476  0.00  0.00     0.049 A 
ATOM     17  C6B CK4 d   1       7.963  47.344  25.904  0.00  0.00    -0.056 A 
ATOM     18  C5B CK4 d   1       7.415  47.113  27.214  0.00  0.00    -0.066 A 
ATOM     19  H2  CK4 d   1       7.475  48.035  25.226  0.00  0.00     0.086 H 
ATOM     20  C4B CK4 d   1       8.071  46.183  28.118  0.00  0.00     0.048 A 
ATOM     21  H1  CK4 d   1       6.515  47.631  27.526  0.00  0.00     0.084 H 
ATOM     22  C3B CK4 d   1       9.276  45.486  27.678  0.00  0.00    -0.066 A 
ATOM     23  C2B CK4 d   1       9.819  45.711  26.393  0.00  0.00    -0.056 A 
ATOM     24  H3  CK4 d   1       9.762  44.785  28.347  0.00  0.00     0.084 H 
ATOM     25  H4  CK4 d   1      10.715  45.178  26.095  0.00  0.00     0.086 H 
BRANCH  20  26
ATOM     26  C7B CK4 d   1       7.492  45.938  29.594  0.00  0.00     0.417 C 
ATOM     27  F8B CK4 d   1       8.586  45.870  30.482  0.00  0.00    -0.166 F 
ATOM     28  F1B CK4 d   1       6.652  47.009  29.980  0.00  0.00    -0.166 F 
ATOM     29  F9B CK4 d   1       6.778  44.736  29.622  0.00  0.00    -0.166 F 
ENDBRANCH  20  26
ENDBRANCH  14  16
ENDBRANCH   1  14
BRANCH   9  30
ATOM     30  C6A CK4 d   1      15.807  43.799  21.686  0.00  0.00    -0.034 C 
ATOM     31  H8  CK4 d   1      16.697  43.153  21.686  0.00  0.00     0.035 H 
ATOM     32  H9  CK4 d   1      16.115  44.847  21.555  0.00  0.00     0.035 H 
ATOM     33  H10 CK4 d   1      15.141  43.506  20.861  0.00  0.00     0.035 H 
ENDBRANCH   9  30
BRANCH  11  34
ATOM     34  C7A CK4 d   1      14.989  41.964  26.362  0.00  0.00    -0.029 C 
ATOM     35  H11 CK4 d   1      15.899  41.351  26.281  0.00  0.00     0.036 H 
ATOM     36  H12 CK4 d   1      14.119  41.309  26.517  0.00  0.00     0.036 H 
ATOM     37  H13 CK4 d   1      15.086  42.653  27.214  0.00  0.00     0.036 H 
ENDBRANCH  11  34
TORSDOF 5
