REMARK  6 active torsions:
REMARK  status: ('A' for Active; 'I' for Inactive)
REMARK    1  A    between atoms: O7B_1  and  C3B_2 
REMARK    2  A    between atoms: C1B_4  and  N7_8 
REMARK    3  A    between atoms: N7_8  and  C2_9 
REMARK    4  A    between atoms: C4_13  and  C5A_15 
REMARK    5  A    between atoms: C1A_16  and  C6A_17 
REMARK    6  A    between atoms: C3A_19  and  C7A_21 
ROOT
ATOM      1  C2  CK5 d   1      15.397  46.000  13.554  0.00  0.00     0.727 A 
ATOM      2  N1  CK5 d   1      15.240  46.299  14.844  0.00  0.00    -0.075 NA
ATOM      3  C6  CK5 d   1      14.256  45.708  15.550  0.00  0.00     0.023 A 
ATOM      4  N3  CK5 d   1      14.644  45.144  12.907  0.00  0.00    -0.061 NA
ATOM      5  C4  CK5 d   1      13.633  44.504  13.549  0.00  0.00     0.096 A 
ATOM      6  C5  CK5 d   1      13.394  44.770  14.935  0.00  0.00    -0.036 A 
ATOM      7  H7  CK5 d   1      14.124  45.953  16.598  0.00  0.00     0.115 H 
ATOM      8  H8  CK5 d   1      12.597  44.280  15.483  0.00  0.00     0.089 H 
ENDROOT
BRANCH   1   9
ATOM      9  N7  CK5 d   1      16.486  46.686  12.947  0.00  0.00    -0.188 N 
ATOM     10  H6  CK5 d   1      16.850  47.489  13.480  0.00  0.00     0.184 HD
BRANCH   9  11
ATOM     11  C1B CK5 d   1      17.167  46.420  11.675  0.00  0.00     0.052 A 
ATOM     12  C2B CK5 d   1      16.852  45.376  10.727  0.00  0.00    -0.025 A 
ATOM     13  C3B CK5 d   1      17.600  45.230   9.526  0.00  0.00     0.067 A 
ATOM     14  H2  CK5 d   1      16.035  44.695  10.934  0.00  0.00     0.091 H 
ATOM     15  C4B CK5 d   1      18.665  46.118   9.261  0.00  0.00    -0.051 A 
ATOM     16  C5B CK5 d   1      18.992  47.149  10.178  0.00  0.00    -0.078 A 
ATOM     17  H5  CK5 d   1      19.238  46.011   8.347  0.00  0.00     0.087 H 
ATOM     18  C6B CK5 d   1      18.239  47.292  11.372  0.00  0.00    -0.057 A 
ATOM     19  H4  CK5 d   1      19.813  47.825   9.968  0.00  0.00     0.083 H 
ATOM     20  H3  CK5 d   1      18.490  48.086  12.066  0.00  0.00     0.086 H 
BRANCH  13  21
ATOM     21  O7B CK5 d   1      17.324  44.261   8.606  0.00  0.00    -0.361 OA
ATOM     22  H1  CK5 d   1      17.933  44.332   7.881  0.00  0.00     0.217 HD
ENDBRANCH  13  21
ENDBRANCH   9  11
ENDBRANCH   1   9
BRANCH   5  23
ATOM     23  C5A CK5 d   1      12.866  43.565  12.786  0.00  0.00     0.060 A 
ATOM     24  C1A CK5 d   1      11.617  42.926  12.883  0.00  0.00     0.051 A 
ATOM     25  N2A CK5 d   1      11.347  42.057  11.828  0.00  0.00    -0.250 NA
ATOM     26  C3A CK5 d   1      12.336  42.021  10.952  0.00  0.00     0.072 A 
ATOM     27  S4A CK5 d   1      13.619  43.001  11.328  0.00  0.00    -0.071 SA
BRANCH  24  28
ATOM     28  C6A CK5 d   1      10.543  43.047  13.961  0.00  0.00    -0.034 C 
ATOM     29  H9  CK5 d   1       9.693  42.396  13.707  0.00  0.00     0.035 H 
ATOM     30  H10 CK5 d   1      10.200  44.090  14.022  0.00  0.00     0.035 H 
ATOM     31  H11 CK5 d   1      10.961  42.741  14.931  0.00  0.00     0.035 H 
ENDBRANCH  24  28
BRANCH  26  32
ATOM     32  C7A CK5 d   1      12.382  41.197   9.701  0.00  0.00    -0.029 C 
ATOM     33  H12 CK5 d   1      11.454  40.613   9.612  0.00  0.00     0.036 H 
ATOM     34  H13 CK5 d   1      13.243  40.514   9.743  0.00  0.00     0.036 H 
ATOM     35  H14 CK5 d   1      12.483  41.860   8.829  0.00  0.00     0.036 H 
ENDBRANCH  26  32
ENDBRANCH   5  23
TORSDOF 6
