REMARK WARNING: 32 MAX_TORS EXCEEDED!!!
REMARK  38 active torsions:
REMARK  status: ('A' for Active; 'I' for Inactive)
REMARK    1  A    between atoms: N_1  and  CA_2 
REMARK    2  A    between atoms: CA_2  and  C_3 
REMARK    3  A    between atoms: CA_2  and  CB_5 
REMARK       I    between atoms: C_3  and  N_9 
REMARK    4  A    between atoms: CB_5  and  CG_6 
REMARK    5  A    between atoms: N_9  and  CA_10 
REMARK    6  A    between atoms: CA_10  and  C_11 
REMARK    7  A    between atoms: CA_10  and  CB_13 
REMARK       I    between atoms: C_11  and  N_17 
REMARK    8  A    between atoms: CB_13  and  CG_14 
REMARK    9  A    between atoms: N_17  and  CA_18 
REMARK   10  A    between atoms: CA_18  and  C_19 
REMARK   11  A    between atoms: CA_18  and  CB_21 
REMARK       I    between atoms: C_19  and  N_25 
REMARK   12  A    between atoms: CB_21  and  CG1_22 
REMARK   13  A    between atoms: CB_21  and  CG2_23 
REMARK   14  A    between atoms: CG1_22  and  CD1_24 
REMARK   15  A    between atoms: N_25  and  CA_26 
REMARK   16  A    between atoms: CA_26  and  CB_27 
REMARK   17  A    between atoms: CA_26  and  C_29 
REMARK   18  A    between atoms: CB_27  and  OG_28 
REMARK   19  A    between atoms: OG_28  and  P_31 
REMARK       I    between atoms: C_29  and  N_35 
REMARK   20  A    between atoms: N_35  and  CA_36 
REMARK   21  A    between atoms: CA_36  and  C_37 
REMARK   22  A    between atoms: CA_36  and  CB_39 
REMARK       I    between atoms: C_37  and  N_43 
REMARK   23  A    between atoms: CB_39  and  CG_40 
REMARK   24  A    between atoms: CG_40  and  CD1_41 
REMARK   25  A    between atoms: CG_40  and  CD2_42 
REMARK   26  A    between atoms: N_43  and  CA_44 
REMARK   27  A    between atoms: CA_44  and  C_45 
REMARK   28  A    between atoms: CA_44  and  CB_47 
REMARK       I    between atoms: C_45  and  N_51 
REMARK   29  A    between atoms: CB_47  and  CG_48 
REMARK   30  A    between atoms: CG_48  and  CD1_49 
REMARK   31  A    between atoms: CG_48  and  CD2_50 
REMARK   32  A    between atoms: N_51  and  CA_52 
REMARK   33  A    between atoms: CA_52  and  C_53 
REMARK   34  A    between atoms: CA_52  and  CB_55 
REMARK   35  A    between atoms: CB_55  and  CG_56 
REMARK   36  A    between atoms: CG_56  and  CD_57 
REMARK   37  A    between atoms: CD_57  and  CE_58 
REMARK   38  A    between atoms: CE_58  and  NZ_59 
ROOT
ATOM      1  C   SEP d   1      18.096  37.177  66.969  0.00  0.00     0.243 C 
ATOM      2  O   SEP d   1      17.993  36.656  65.863  0.00  0.00    -0.271 OA
ATOM      3  N   LEU d   1      17.155  37.083  67.898  0.00  0.00    -0.346 N 
ATOM      4  H26 LEU d   1      17.305  37.498  68.795  0.00  0.00     0.163 HD
ENDROOT
BRANCH   3   5
ATOM      5  CA  LEU d   1      15.905  36.383  67.631  0.00  0.00     0.089 C 
ATOM      6  H27 LEU d   1      16.143  35.361  67.301  0.00  0.00     0.087 H 
BRANCH   5   7
ATOM      7  C   LEU d   1      15.109  37.080  66.534  0.00  0.00     0.241 C 
ATOM      8  O   LEU d   1      14.998  38.288  66.516  0.00  0.00    -0.271 OA
ATOM      9  N   LEU d   1      14.578  36.286  65.617  0.00  0.00    -0.346 N 
ATOM     10  H37 LEU d   1      14.743  35.301  65.670  0.00  0.00     0.163 HD
BRANCH   9  11
ATOM     11  CA  LEU d   1      13.761  36.809  64.535  0.00  0.00     0.089 C 
ATOM     12  H38 LEU d   1      14.324  37.577  63.984  0.00  0.00     0.087 H 
BRANCH  11  13
ATOM     13  C   LEU d   1      12.488  37.448  65.140  0.00  0.00     0.241 C 
ATOM     14  O   LEU d   1      12.007  37.013  66.182  0.00  0.00    -0.271 OA
ATOM     15  N   LYS d   1      11.977  38.490  64.496  0.00  0.00    -0.345 N 
ATOM     16  H48 LYS d   1      12.412  38.809  63.654  0.00  0.00     0.163 HD
BRANCH  15  17
ATOM     17  CA  LYS d   1      10.784  39.183  64.998  0.00  0.00     0.096 C 
ATOM     18  H49 LYS d   1      10.809  39.150  66.097  0.00  0.00     0.089 H 
BRANCH  17  19
ATOM     19  C   LYS d   1       9.469  38.527  64.529  0.00  0.00     0.196 C 
ATOM     20  O   LYS d   1       9.491  37.813  63.502  0.00  0.00    -0.646 OA
ATOM     21  OXT LYS d   1       8.440  38.756  65.196  0.00  0.00    -0.646 OA
ENDBRANCH  17  19
BRANCH  17  22
ATOM     22  CB  LYS d   1      10.812  40.645  64.551  0.00  0.00    -0.037 C 
ATOM     23  H50 LYS d   1      10.156  40.751  63.674  0.00  0.00     0.036 H 
ATOM     24  H51 LYS d   1      11.844  40.900  64.270  0.00  0.00     0.036 H 
BRANCH  22  25
ATOM     25  CG  LYS d   1      10.349  41.630  65.615  0.00  0.00    -0.061 C 
ATOM     26  H52 LYS d   1       9.293  41.435  65.853  0.00  0.00     0.033 H 
ATOM     27  H53 LYS d   1      10.455  42.655  65.230  0.00  0.00     0.033 H 
BRANCH  25  28
ATOM     28  CD  LYS d   1      11.187  41.481  66.886  0.00  0.00    -0.043 C 
ATOM     29  H54 LYS d   1      12.250  41.585  66.621  0.00  0.00     0.035 H 
ATOM     30  H55 LYS d   1      11.011  40.481  67.309  0.00  0.00     0.035 H 
BRANCH  28  31
ATOM     31  CE  LYS d   1      10.841  42.529  67.946  0.00  0.00     0.080 C 
ATOM     32  H56 LYS d   1      11.384  42.284  68.871  0.00  0.00     0.075 H 
ATOM     33  H57 LYS d   1       9.758  42.490  68.136  0.00  0.00     0.075 H 
BRANCH  31  34
ATOM     34  NZ  LYS d   1      11.203  43.923  67.537  0.00  0.00    -0.079 N 
ATOM     35  H58 LYS d   1      10.952  44.565  68.273  0.00  0.00     0.274 HD
ATOM     36  H59 LYS d   1      10.705  44.166  66.695  0.00  0.00     0.274 HD
ATOM     37  H60 LYS d   1      12.195  43.977  67.368  0.00  0.00     0.274 HD
ENDBRANCH  31  34
ENDBRANCH  28  31
ENDBRANCH  25  28
ENDBRANCH  22  25
ENDBRANCH  17  22
ENDBRANCH  15  17
ENDBRANCH  11  13
BRANCH  11  38
ATOM     38  CB  LEU d   1      13.407  35.665  63.580  0.00  0.00    -0.035 C 
ATOM     39  H39 LEU d   1      12.702  35.009  64.112  0.00  0.00     0.037 H 
ATOM     40  H40 LEU d   1      14.338  35.115  63.379  0.00  0.00     0.037 H 
BRANCH  38  41
ATOM     41  CG  LEU d   1      12.779  35.987  62.226  0.00  0.00    -0.059 C 
ATOM     42  H41 LEU d   1      11.790  36.440  62.389  0.00  0.00     0.038 H 
BRANCH  41  43
ATOM     43  CD1 LEU d   1      13.661  36.983  61.489  0.00  0.00    -0.073 C 
ATOM     44  H42 LEU d   1      13.212  37.218  60.513  0.00  0.00     0.028 H 
ATOM     45  H43 LEU d   1      14.660  36.547  61.338  0.00  0.00     0.028 H 
ATOM     46  H44 LEU d   1      13.749  37.904  62.083  0.00  0.00     0.028 H 
ENDBRANCH  41  43
BRANCH  41  47
ATOM     47  CD2 LEU d   1      12.602  34.707  61.411  0.00  0.00    -0.073 C 
ATOM     48  H45 LEU d   1      11.961  34.005  61.965  0.00  0.00     0.028 H 
ATOM     49  H46 LEU d   1      13.585  34.246  61.235  0.00  0.00     0.028 H 
ATOM     50  H47 LEU d   1      12.132  34.949  60.446  0.00  0.00     0.028 H 
ENDBRANCH  41  47
ENDBRANCH  38  41
ENDBRANCH  11  38
ENDBRANCH   9  11
ENDBRANCH   5   7
BRANCH   5  51
ATOM     51  CB  LEU d   1      15.040  36.306  68.896  0.00  0.00    -0.035 C 
ATOM     52  H28 LEU d   1      15.097  37.281  69.401  0.00  0.00     0.037 H 
ATOM     53  H29 LEU d   1      15.467  35.530  69.548  0.00  0.00     0.037 H 
BRANCH  51  54
ATOM     54  CG  LEU d   1      13.554  35.974  68.682  0.00  0.00    -0.059 C 
ATOM     55  H30 LEU d   1      13.128  36.696  67.970  0.00  0.00     0.038 H 
BRANCH  54  56
ATOM     56  CD1 LEU d   1      13.396  34.581  68.114  0.00  0.00    -0.073 C 
ATOM     57  H31 LEU d   1      12.328  34.363  67.969  0.00  0.00     0.028 H 
ATOM     58  H32 LEU d   1      13.828  33.849  68.813  0.00  0.00     0.028 H 
ATOM     59  H33 LEU d   1      13.918  34.518  67.148  0.00  0.00     0.028 H 
ENDBRANCH  54  56
BRANCH  54  60
ATOM     60  CD2 LEU d   1      12.814  36.087  69.995  0.00  0.00    -0.073 C 
ATOM     61  H34 LEU d   1      12.936  37.103  70.398  0.00  0.00     0.028 H 
ATOM     62  H35 LEU d   1      13.222  35.358  70.710  0.00  0.00     0.028 H 
ATOM     63  H36 LEU d   1      11.745  35.883  69.832  0.00  0.00     0.028 H 
ENDBRANCH  54  60
ENDBRANCH  51  54
ENDBRANCH   5  51
ENDBRANCH   3   5
BRANCH   1  64
ATOM     64  CA  SEP d   1      19.361  37.966  67.388  0.00  0.00     0.110 C 
ATOM     65  H23 SEP d   1      19.602  37.703  68.428  0.00  0.00     0.090 H 
BRANCH  64  66
ATOM     66  N   SEP d   1      20.530  37.659  66.546  0.00  0.00    -0.344 N 
ATOM     67  C   ILE d   1      21.212  36.527  66.668  0.00  0.00     0.241 C 
ATOM     68  O   ILE d   1      20.918  35.652  67.456  0.00  0.00    -0.271 OA
ATOM     69  H22 SEP d   1      20.820  38.326  65.859  0.00  0.00     0.163 HD
BRANCH  67  70
ATOM     70  CA  ILE d   1      22.411  36.366  65.744  0.00  0.00     0.092 C 
ATOM     71  H12 ILE d   1      23.053  37.254  65.838  0.00  0.00     0.088 H 
BRANCH  70  72
ATOM     72  N   ILE d   1      23.191  35.196  66.098  0.00  0.00    -0.346 N 
ATOM     73  C   ASP d   1      24.203  35.296  66.945  0.00  0.00     0.241 C 
ATOM     74  O   ASP d   1      24.526  36.344  67.442  0.00  0.00    -0.271 OA
ATOM     75  H11 ILE d   1      22.963  34.308  65.700  0.00  0.00     0.163 HD
BRANCH  73  76
ATOM     76  CA  ASP d   1      24.970  34.003  67.265  0.00  0.00     0.098 C 
ATOM     77  H8  ASP d   1      24.952  33.365  66.369  0.00  0.00     0.088 H 
BRANCH  76  78
ATOM     78  N   ASP d   1      26.384  34.261  67.618  0.00  0.00    -0.345 N 
ATOM     79  C   ASP d   1      27.379  33.503  67.158  0.00  0.00     0.249 C 
ATOM     80  O   ASP d   1      27.201  32.551  66.398  0.00  0.00    -0.271 OA
ATOM     81  H7  ASP d   1      26.600  35.029  68.221  0.00  0.00     0.163 HD
BRANCH  79  82
ATOM     82  CA  ASP d   1      28.811  33.869  67.627  0.00  0.00     0.185 C 
ATOM     83  H4  ASP d   1      28.917  33.638  68.697  0.00  0.00     0.100 H 
BRANCH  82  84
ATOM     84  N   ASP d   1      29.775  33.052  66.841  0.00  0.00    -0.066 N 
ATOM     85  H1  ASP d   1      30.715  33.273  67.129  0.00  0.00     0.275 HD
ATOM     86  H2  ASP d   1      29.667  33.257  65.860  0.00  0.00     0.275 HD
ATOM     87  H3  ASP d   1      29.596  32.073  67.002  0.00  0.00     0.275 HD
ENDBRANCH  82  84
BRANCH  82  88
ATOM     88  CB  ASP d   1      29.089  35.367  67.405  0.00  0.00     0.050 C 
ATOM     89  H5  ASP d   1      28.480  35.715  66.558  0.00  0.00     0.052 H 
ATOM     90  H6  ASP d   1      30.155  35.494  67.166  0.00  0.00     0.052 H 
BRANCH  88  91
ATOM     91  CG  ASP d   1      28.755  36.228  68.637  0.00  0.00     0.175 C 
ATOM     92  OD1 ASP d   1      27.584  36.225  69.085  0.00  0.00    -0.648 OA
ATOM     93  OD2 ASP d   1      29.666  36.914  69.156  0.00  0.00    -0.648 OA
ENDBRANCH  88  91
ENDBRANCH  82  88
ENDBRANCH  79  82
ENDBRANCH  76  78
BRANCH  76  94
ATOM     94  CB  ASP d   1      24.276  33.249  68.421  0.00  0.00     0.043 C 
ATOM     95  H9  ASP d   1      24.312  33.880  69.321  0.00  0.00     0.052 H 
ATOM     96  H10 ASP d   1      24.824  32.313  68.607  0.00  0.00     0.052 H 
BRANCH  94  97
ATOM     97  CG  ASP d   1      22.816  32.907  68.126  0.00  0.00     0.175 C 
ATOM     98  OD1 ASP d   1      22.491  32.611  66.950  0.00  0.00    -0.648 OA
ATOM     99  OD2 ASP d   1      21.998  32.907  69.075  0.00  0.00    -0.648 OA
ENDBRANCH  94  97
ENDBRANCH  76  94
ENDBRANCH  73  76
ENDBRANCH  70  72
BRANCH  70 100
ATOM    100  CB  ILE d   1      21.916  36.266  64.314  0.00  0.00    -0.030 C 
ATOM    101  H13 ILE d   1      21.480  37.229  64.009  0.00  0.00     0.043 H 
BRANCH 100 102
ATOM    102  CG1 ILE d   1      20.855  35.176  64.213  0.00  0.00    -0.063 C 
ATOM    103  H14 ILE d   1      20.012  35.451  64.863  0.00  0.00     0.033 H 
ATOM    104  H15 ILE d   1      21.295  34.230  64.563  0.00  0.00     0.033 H 
BRANCH 102 105
ATOM    105  CD1 ILE d   1      20.334  34.969  62.828  0.00  0.00    -0.076 C 
ATOM    106  H19 ILE d   1      19.577  34.171  62.837  0.00  0.00     0.027 H 
ATOM    107  H20 ILE d   1      21.162  34.681  62.164  0.00  0.00     0.027 H 
ATOM    108  H21 ILE d   1      19.879  35.902  62.464  0.00  0.00     0.027 H 
ENDBRANCH 102 105
ENDBRANCH 100 102
BRANCH 100 109
ATOM    109  CG2 ILE d   1      23.081  35.931  63.407  0.00  0.00    -0.071 C 
ATOM    110  H16 ILE d   1      23.844  36.720  63.483  0.00  0.00     0.028 H 
ATOM    111  H17 ILE d   1      22.728  35.861  62.367  0.00  0.00     0.028 H 
ATOM    112  H18 ILE d   1      23.518  34.968  63.711  0.00  0.00     0.028 H 
ENDBRANCH 100 109
ENDBRANCH  70 100
ENDBRANCH  67  70
ENDBRANCH  64  66
BRANCH  64 113
ATOM    113  CB  SEP d   1      19.081  39.481  67.302  0.00  0.00     0.059 C 
ATOM    114  H24 SEP d   1      19.927  39.974  67.803  0.00  0.00     0.079 H 
ATOM    115  H25 SEP d   1      18.162  39.652  67.881  0.00  0.00     0.079 H 
BRANCH 113 116
ATOM    116  OG  SEP d   1      18.932  40.051  66.281  0.00  0.00    -0.280 OA
BRANCH 116 117
ATOM    117  P   SEP d   1      19.384  41.517  66.644  0.00  0.00     0.422 P 
ATOM    118  O1P SEP d   1      18.572  42.444  67.622  0.00  0.00    -0.617 OA
ATOM    119  O2P SEP d   1      19.117  42.013  65.135  0.00  0.00    -0.617 OA
ATOM    120  O3P SEP d   1      20.937  41.421  66.980  0.00  0.00    -0.617 OA
ENDBRANCH 116 117
ENDBRANCH 113 116
ENDBRANCH  64 113
ENDBRANCH   1  64
TORSDOF 38
