REMARK  15 active torsions:
REMARK  status: ('A' for Active; 'I' for Inactive)
REMARK    1  A    between atoms: C26_2  and  C25_3 
REMARK       I    between atoms: C26_2  and  N2_12 
REMARK    2  A    between atoms: C25_3  and  C32_4 
REMARK    3  A    between atoms: C25_3  and  N5_8 
REMARK    4  A    between atoms: C32_4  and  C36_5 
REMARK    5  A    between atoms: C36_5  and  C38_6 
REMARK    6  A    between atoms: C36_5  and  C37_7 
REMARK       I    between atoms: N5_8  and  C17_9 
REMARK       I    between atoms: C17_9  and  N4_10 
REMARK    7  A    between atoms: N2_12  and  C28_13 
REMARK    8  A    between atoms: C28_13  and  C14_14 
REMARK       I    between atoms: C14_14  and  N6_16 
REMARK    9  A    between atoms: C19_19  and  C23_22 
REMARK   10  A    between atoms: C13_24  and  C24_28 
REMARK   11  A    between atoms: N3_26  and  C34_27 
REMARK   12  A    between atoms: C30_34  and  O43_36 
REMARK   13  A    between atoms: O43_36  and  C35_37 
REMARK   14  A    between atoms: C35_37  and  C18_38 
REMARK   15  A    between atoms: C31_41  and  C20_43 
ROOT
ATOM      1  C14 FRH d   1      32.695  11.726   1.675  0.00  0.00     0.237 C 
ATOM      2  O44 FRH d   1      31.650  12.356   1.740  0.00  0.00    -0.272 OA
ATOM      3  N6  FRH d   1      33.802  12.099   2.336  0.00  0.00    -0.351 N 
ATOM      4  C22 FRH d   1      33.844  13.352   3.099  0.00  0.00    -0.002 C 
ATOM      5  C15 FRH d   1      34.167  12.997   4.552  0.00  0.00    -0.042 C 
ATOM      6  C19 FRH d   1      35.497  12.248   4.622  0.00  0.00    -0.009 C 
ATOM      7  C27 FRH d   1      35.377  10.976   3.783  0.00  0.00    -0.042 C 
ATOM      8  C29 FRH d   1      35.041  11.314   2.330  0.00  0.00    -0.002 C 
ATOM      9  H19 FRH d   1      32.869  13.858   3.044  0.00  0.00     0.064 H 
ATOM     10  H20 FRH d   1      34.623  14.013   2.692  0.00  0.00     0.064 H 
ATOM     11  H21 FRH d   1      33.368  12.359   4.958  0.00  0.00     0.036 H 
ATOM     12  H22 FRH d   1      34.237  13.920   5.146  0.00  0.00     0.036 H 
ATOM     13  H23 FRH d   1      36.279  12.887   4.186  0.00  0.00     0.049 H 
ATOM     14  H24 FRH d   1      34.580  10.343   4.200  0.00  0.00     0.036 H 
ATOM     15  H25 FRH d   1      36.332  10.431   3.815  0.00  0.00     0.036 H 
ATOM     16  H26 FRH d   1      35.856  11.902   1.883  0.00  0.00     0.064 H 
ATOM     17  H27 FRH d   1      34.897  10.389   1.753  0.00  0.00     0.064 H 
ENDROOT
BRANCH   6  18
ATOM     18  C23 FRH d   1      35.903  11.919   6.040  0.00  0.00     0.036 C 
ATOM     19  C11 FRH d   1      35.261  11.804   7.129  0.00  0.00    -0.029 C 
ATOM     20  C13 FRH d   1      36.020  11.488   8.102  0.00  0.00     0.091 C 
ATOM     21  H28 FRH d   1      34.187  11.958   7.221  0.00  0.00     0.090 H 
ATOM     22  N7  FRH d   1      37.234  11.232   7.619  0.00  0.00    -0.172 NA
ATOM     23  N3  FRH d   1      37.157  11.668   6.395  0.00  0.00    -0.277 N 
BRANCH  20  24
ATOM     24  C24 FRH d   1      35.784  11.379   9.585  0.00  0.00     0.018 A 
ATOM     25  C10 FRH d   1      36.753  11.885  10.452  0.00  0.00    -0.066 A 
ATOM     26  C33 FRH d   1      36.580  11.801  11.831  0.00  0.00    -0.048 A 
ATOM     27  H32 FRH d   1      37.647  12.347  10.049  0.00  0.00     0.085 H 
ATOM     28  C30 FRH d   1      35.432  11.201  12.349  0.00  0.00     0.092 A 
ATOM     29  H33 FRH d   1      37.334  12.200  12.499  0.00  0.00     0.087 H 
ATOM     30  C16 FRH d   1      34.469  10.699  11.485  0.00  0.00     0.090 A 
ATOM     31  C21 FRH d   1      34.640  10.781  10.110  0.00  0.00     0.071 A 
ATOM     32 CL9  FRH d   1      32.991   9.931  12.157  0.00  0.00    -0.080 Cl
ATOM     33 CL8  FRH d   1      33.363  10.110   9.043  0.00  0.00    -0.081 Cl
BRANCH  28  34
ATOM     34  O43 FRH d   1      35.231  11.105  13.704  0.00  0.00    -0.343 OA
BRANCH  34  35
ATOM     35  C35 FRH d   1      36.290  10.801  14.613  0.00  0.00     0.070 C 
ATOM     36  H34 FRH d   1      37.244  10.745  14.068  0.00  0.00     0.085 H 
ATOM     37  H35 FRH d   1      36.092   9.838  15.106  0.00  0.00     0.085 H 
BRANCH  35  38
ATOM     38  C18 FRH d   1      36.356  11.900  15.646  0.00  0.00     0.078 C 
ATOM     39  C39 FRH d   1      36.762  11.796  16.838  0.00  0.00    -0.049 C 
ATOM     40  C12 FRH d   1      36.386  12.772  17.561  0.00  0.00    -0.041 C 
ATOM     41  H36 FRH d   1      37.365  10.966  17.204  0.00  0.00     0.087 H 
ATOM     42  C31 FRH d   1      35.868  13.758  16.807  0.00  0.00     0.152 C 
ATOM     43  H37 FRH d   1      36.472  12.805  18.646  0.00  0.00     0.088 H 
ATOM     44  O42 FRH d   1      35.950  13.272  15.455  0.00  0.00    -0.306 OA
BRANCH  42  45
ATOM     45  C20 FRH d   1      35.322  15.040  17.249  0.00  0.00     0.234 C 
ATOM     46  O40 FRH d   1      34.610  15.692  16.454  0.00  0.00    -0.642 OA
ATOM     47  O41 FRH d   1      35.577  15.455  18.402  0.00  0.00    -0.642 OA
ENDBRANCH  42  45
ENDBRANCH  35  38
ENDBRANCH  34  35
ENDBRANCH  28  34
ENDBRANCH  20  24
BRANCH  23  48
ATOM     48  C34 FRH d   1      38.383  11.828   5.623  0.00  0.00     0.003 C 
ATOM     49  H29 FRH d   1      39.244  11.522   6.235  0.00  0.00     0.059 H 
ATOM     50  H30 FRH d   1      38.497  12.882   5.330  0.00  0.00     0.059 H 
ATOM     51  H31 FRH d   1      38.333  11.200   4.721  0.00  0.00     0.059 H 
ENDBRANCH  23  48
ENDBRANCH   6  18
BRANCH   1  52
ATOM     52  C28 FRH d   1      32.747  10.486   0.808  0.00  0.00     0.069 C 
ATOM     53  H17 FRH d   1      33.739  10.419   0.338  0.00  0.00     0.078 H 
ATOM     54  H18 FRH d   1      32.580   9.601   1.439  0.00  0.00     0.078 H 
BRANCH  52  55
ATOM     55  N2  FRH d   1      31.732  10.524  -0.233  0.00  0.00    -0.351 N 
ATOM     56  C26 FRH d   1      31.885   9.975  -1.440  0.00  0.00     0.241 C 
ATOM     57  O45 FRH d   1      32.968   9.661  -1.913  0.00  0.00    -0.271 OA
ATOM     58  H16 FRH d   1      30.869  10.989  -0.033  0.00  0.00     0.163 HD
BRANCH  56  59
ATOM     59  C25 FRH d   1      30.621   9.741  -2.219  0.00  0.00     0.103 C 
ATOM     60  H1  FRH d   1      29.767   9.992  -1.573  0.00  0.00     0.088 H 
BRANCH  59  61
ATOM     61  C32 FRH d   1      30.559  10.621  -3.465  0.00  0.00    -0.035 C 
ATOM     62  H2  FRH d   1      29.997  10.085  -4.244  0.00  0.00     0.037 H 
ATOM     63  H3  FRH d   1      31.586  10.805  -3.815  0.00  0.00     0.037 H 
BRANCH  61  64
ATOM     64  C36 FRH d   1      29.883  11.967  -3.219  0.00  0.00    -0.059 C 
ATOM     65  H4  FRH d   1      30.261  12.364  -2.265  0.00  0.00     0.038 H 
BRANCH  64  66
ATOM     66  C38 FRH d   1      28.368  11.841  -3.105  0.00  0.00    -0.073 C 
ATOM     67  H5  FRH d   1      27.930  12.834  -2.929  0.00  0.00     0.028 H 
ATOM     68  H6  FRH d   1      28.117  11.176  -2.266  0.00  0.00     0.028 H 
ATOM     69  H7  FRH d   1      27.964  11.422  -4.038  0.00  0.00     0.028 H 
ENDBRANCH  64  66
BRANCH  64  70
ATOM     70  C37 FRH d   1      30.246  12.952  -4.323  0.00  0.00    -0.073 C 
ATOM     71  H8  FRH d   1      31.340  13.034  -4.396  0.00  0.00     0.028 H 
ATOM     72  H9  FRH d   1      29.819  13.938  -4.089  0.00  0.00     0.028 H 
ATOM     73  H10 FRH d   1      29.841  12.595  -5.281  0.00  0.00     0.028 H 
ENDBRANCH  64  70
ENDBRANCH  61  64
ENDBRANCH  59  61
BRANCH  59  74
ATOM     74  N5  FRH d   1      30.514   8.350  -2.609  0.00  0.00    -0.214 N 
ATOM     75  C17 FRH d   1      29.382   7.664  -2.507  0.00  0.00     0.666 C 
ATOM     76  N4  FRH d   1      28.653   7.726  -1.393  0.00  0.00    -0.235 N 
ATOM     77  N1  FRH d   1      28.984   6.908  -3.528  0.00  0.00    -0.235 N 
ATOM     78  H12 FRH d   1      27.776   7.191  -1.321  0.00  0.00     0.174 HD
ATOM     79  H13 FRH d   1      28.967   8.309  -0.604  0.00  0.00     0.174 HD
ATOM     80  H14 FRH d   1      29.550   6.863  -4.387  0.00  0.00     0.174 HD
ATOM     81  H15 FRH d   1      28.110   6.368  -3.459  0.00  0.00     0.174 HD
ATOM     82  H11 FRH d   1      31.349   7.875  -2.980  0.00  0.00     0.178 HD
ENDBRANCH  59  74
ENDBRANCH  56  59
ENDBRANCH  52  55
ENDBRANCH   1  52
TORSDOF 15
