REMARK  2 active torsions:
REMARK  status: ('A' for Active; 'I' for Inactive)
REMARK    1  A    between atoms: C1_1  and  C8_6 
REMARK    2  A    between atoms: C2_2  and  C10_7 
ROOT
ATOM      1  C1  PY1 d   1       4.609   8.328   5.571  0.00  0.00     0.025 A 
ATOM      2  C2  PY1 d   1       5.352   9.557   6.002  0.00  0.00     0.118 A 
ATOM      3  N3  PY1 d   1       5.432   9.582   7.376  0.00  0.00    -0.172 NA
ATOM      4  N4  PY1 d   1       4.778   8.432   7.805  0.00  0.00    -0.288 N 
ATOM      5  C5  PY1 d   1       4.276   7.656   6.764  0.00  0.00     0.009 A 
ATOM      6  H1  PY1 d   1       4.675   8.179   8.798  0.00  0.00     0.188 HD
ATOM      7  H2  PY1 d   1       3.733   6.716   6.854  0.00  0.00     0.115 H 
ENDROOT
BRANCH   1   8
ATOM      8  C8  PY1 d   1       4.263   7.846   4.149  0.00  0.00    -0.008 A 
ATOM      9  C21 PY1 d   1       2.886   7.478   3.698  0.00  0.00     0.004 A 
ATOM     10  C22 PY1 d   1       2.740   7.035   2.285  0.00  0.00     0.067 A 
ATOM     11  C28 PY1 d   1       1.656   7.471   4.512  0.00  0.00    -0.070 A 
ATOM     12  N23 PY1 d   1       3.877   7.014   1.448  0.00  0.00    -0.260 NA
ATOM     13  C31 PY1 d   1       1.447   6.657   1.766  0.00  0.00    -0.054 A 
ATOM     14  C24 PY1 d   1       5.137   7.347   1.847  0.00  0.00     0.004 A 
ATOM     15  C25 PY1 d   1       5.366   7.776   3.188  0.00  0.00    -0.054 A 
ATOM     16  H7  PY1 d   1       5.963   7.286   1.147  0.00  0.00     0.114 H 
ATOM     17  H8  PY1 d   1       6.367   8.053   3.499  0.00  0.00     0.087 H 
ATOM     18  C30 PY1 d   1       0.279   6.668   2.594  0.00  0.00    -0.081 A 
ATOM     19  H12 PY1 d   1       1.359   6.359   0.728  0.00  0.00     0.087 H 
ATOM     20  C29 PY1 d   1       0.378   7.075   3.955  0.00  0.00    -0.082 A 
ATOM     21  H11 PY1 d   1      -0.679   6.367   2.186  0.00  0.00     0.083 H 
ATOM     22  H10 PY1 d   1      -0.508   7.089   4.579  0.00  0.00     0.083 H 
ATOM     23  H9  PY1 d   1       1.709   7.769   5.553  0.00  0.00     0.084 H 
ENDBRANCH   1   8
BRANCH   2  24
ATOM     24  C10 PY1 d   1       5.958  10.629   5.176  0.00  0.00     0.087 A 
ATOM     25  N12 PY1 d   1       7.220  11.077   5.625  0.00  0.00    -0.259 NA
ATOM     26  C13 PY1 d   1       7.962  12.011   5.035  0.00  0.00     0.003 A 
ATOM     27  C14 PY1 d   1       7.462  12.614   3.855  0.00  0.00    -0.066 A 
ATOM     28  H3  PY1 d   1       8.922  12.302   5.446  0.00  0.00     0.114 H 
ATOM     29  C15 PY1 d   1       6.161  12.199   3.327  0.00  0.00    -0.079 A 
ATOM     30  H4  PY1 d   1       8.039  13.378   3.346  0.00  0.00     0.085 H 
ATOM     31  C16 PY1 d   1       5.376  11.198   3.970  0.00  0.00    -0.053 A 
ATOM     32  H5  PY1 d   1       5.785  12.665   2.424  0.00  0.00     0.083 H 
ATOM     33  H6  PY1 d   1       4.412  10.883   3.587  0.00  0.00     0.087 H 
ENDBRANCH   2  24
TORSDOF 2
