REMARK  5 active torsions:
REMARK  status: ('A' for Active; 'I' for Inactive)
REMARK    1  A    between atoms: C1_1  and  C23_17 
REMARK    2  A    between atoms: C10_7  and  C13_10 
REMARK    3  A    between atoms: C11_8  and  N35_26 
REMARK    4  A    between atoms: C13_10  and  C14_11 
REMARK    5  A    between atoms: C23_17  and  C24_18 
ROOT
ATOM      1  C1  PM1 d   1      12.164  -8.888  22.864  0.00  0.00     0.031 A 
ATOM      2  C2  PM1 d   1      13.034  -9.259  23.935  0.00  0.00     0.001 A 
ATOM      3  N3  PM1 d   1      13.976 -10.250  23.842  0.00  0.00    -0.300 N 
ATOM      4  C4  PM1 d   1      14.134 -10.948  22.596  0.00  0.00     0.113 A 
ATOM      5  C5  PM1 d   1      13.315 -10.645  21.504  0.00  0.00    -0.039 A 
ATOM      6  C6  PM1 d   1      12.335  -9.604  21.629  0.00  0.00    -0.064 A 
ATOM      7  C10 PM1 d   1      14.941 -10.778  24.721  0.00  0.00     0.135 A 
ATOM      8  C11 PM1 d   1      15.594 -11.795  23.983  0.00  0.00     0.132 A 
ATOM      9  N12 PM1 d   1      15.113 -11.872  22.730  0.00  0.00    -0.327 N 
ATOM     10  H1  PM1 d   1      12.944  -8.726  24.875  0.00  0.00     0.113 H 
ATOM     11  H2  PM1 d   1      13.419 -11.191  20.573  0.00  0.00     0.089 H 
ATOM     12  H3  PM1 d   1      11.713  -9.353  20.777  0.00  0.00     0.085 H 
ATOM     13  H4  PM1 d   1      15.434 -12.522  21.998  0.00  0.00     0.169 HD
ENDROOT
BRANCH   1  14
ATOM     14  C23 PM1 d   1      11.107  -7.797  22.975  0.00  0.00     0.199 C 
ATOM     15  O33 PM1 d   1      10.379  -7.517  21.989  0.00  0.00    -0.286 OA
BRANCH  14  16
ATOM     16  C24 PM1 d   1      10.944  -7.050  24.311  0.00  0.00     0.092 A 
ATOM     17  C25 PM1 d   1       9.752  -7.248  25.088  0.00  0.00     0.133 A 
ATOM     18  C26 PM1 d   1       9.519  -6.589  26.342  0.00  0.00    -0.044 A 
ATOM     19  F36 PM1 d   1       8.800  -8.083  24.669  0.00  0.00    -0.205 F 
ATOM     20  C27 PM1 d   1      10.496  -5.677  26.858  0.00  0.00    -0.077 A 
ATOM     21  H10 PM1 d   1       8.607  -6.781  26.896  0.00  0.00     0.088 H 
ATOM     22  C28 PM1 d   1      11.707  -5.431  26.137  0.00  0.00    -0.044 A 
ATOM     23  H11 PM1 d   1      10.317  -5.171  27.800  0.00  0.00     0.083 H 
ATOM     24  C29 PM1 d   1      11.928  -6.094  24.883  0.00  0.00     0.133 A 
ATOM     25  H12 PM1 d   1      12.451  -4.750  26.534  0.00  0.00     0.088 H 
ATOM     26  F39 PM1 d   1      13.091  -5.809  24.278  0.00  0.00    -0.205 F 
ENDBRANCH  14  16
ENDBRANCH   1  14
BRANCH   7  27
ATOM     27  C13 PM1 d   1      15.293 -10.497  26.129  0.00  0.00     0.213 C 
ATOM     28  O34 PM1 d   1      16.219 -11.172  26.628  0.00  0.00    -0.285 OA
BRANCH  27  29
ATOM     29  C14 PM1 d   1      14.660  -9.462  26.984  0.00  0.00     0.016 A 
ATOM     30  C15 PM1 d   1      13.397  -9.737  27.636  0.00  0.00    -0.069 A 
ATOM     31  C16 PM1 d   1      12.778  -8.733  28.471  0.00  0.00    -0.082 A 
ATOM     32  H5  PM1 d   1      12.915 -10.698  27.498  0.00  0.00     0.085 H 
ATOM     33  C17 PM1 d   1      13.423  -7.470  28.649  0.00  0.00    -0.083 A 
ATOM     34  H6  PM1 d   1      11.832  -8.936  28.959  0.00  0.00     0.083 H 
ATOM     35  C18 PM1 d   1      14.668  -7.193  28.000  0.00  0.00    -0.082 A 
ATOM     36  H7  PM1 d   1      12.966  -6.716  29.280  0.00  0.00     0.083 H 
ATOM     37  C19 PM1 d   1      15.293  -8.184  27.167  0.00  0.00    -0.069 A 
ATOM     38  H8  PM1 d   1      15.143  -6.229  28.138  0.00  0.00     0.083 H 
ATOM     39  H9  PM1 d   1      16.237  -7.969  26.679  0.00  0.00     0.085 H 
ENDBRANCH  27  29
ENDBRANCH   7  27
BRANCH   8  40
ATOM     40  N35 PM1 d   1      16.674 -12.647  24.481  0.00  0.00    -0.383 N 
ATOM     41  H13 PM1 d   1      17.004 -12.546  25.451  0.00  0.00     0.157 HD
ATOM     42  H14 PM1 d   1      17.104 -13.348  23.861  0.00  0.00     0.157 HD
ENDBRANCH   8  40
TORSDOF 5
