REMARK  7 active torsions:
REMARK  status: ('A' for Active; 'I' for Inactive)
REMARK    1  A    between atoms: P_1  and  O5_5 
REMARK    2  A    between atoms: O5_5  and  C5_6 
REMARK    3  A    between atoms: C5_6  and  C4_7 
REMARK    4  A    between atoms: C3_9  and  O3_10 
REMARK    5  A    between atoms: C2_11  and  O2_12 
REMARK    6  A    between atoms: C1_13  and  N9_14 
REMARK    7  A    between atoms: C6_18  and  N6_19 
ROOT
ATOM      1  C4  AMP d   1      63.204  23.104  43.971  0.00  0.00     0.089 C 
ATOM      2  O4  AMP d   1      62.459  21.970  44.387  0.00  0.00    -0.353 OA
ATOM      3  C3  AMP d   1      63.591  22.844  42.518  0.00  0.00     0.091 C 
ATOM      4  C2  AMP d   1      63.699  21.348  42.440  0.00  0.00     0.105 C 
ATOM      5  C1  AMP d   1      62.676  20.895  43.471  0.00  0.00     0.139 C 
ATOM      6  H3  AMP d   1      64.112  23.207  44.583  0.00  0.00     0.090 H 
ATOM      7  H4  AMP d   1      62.806  23.214  41.842  0.00  0.00     0.091 H 
ATOM      8  H6  AMP d   1      63.447  20.982  41.434  0.00  0.00     0.093 H 
ATOM      9  H8  AMP d   1      63.070  20.024  44.016  0.00  0.00     0.122 H 
ENDROOT
BRANCH   5  10
ATOM     10  N9  AMP d   1      61.420  20.522  42.826  0.00  0.00    -0.294 N 
ATOM     11  C8  AMP d   1      60.412  21.335  42.384  0.00  0.00     0.071 A 
ATOM     12  N7  AMP d   1      59.391  20.696  41.894  0.00  0.00    -0.236 NA
ATOM     13  H9  AMP d   1      60.461  22.422  42.438  0.00  0.00     0.144 H 
ATOM     14  C5  AMP d   1      59.755  19.357  42.025  0.00  0.00     0.149 A 
ATOM     15  C6  AMP d   1      59.090  18.164  41.699  0.00  0.00     0.155 C 
ATOM     16  C4  AMP d   1      60.993  19.246  42.598  0.00  0.00     0.167 A 
ATOM     17  N1  AMP d   1      59.714  17.021  42.012  0.00  0.00    -0.222 NA
ATOM     18  C2  AMP d   1      60.905  17.076  42.604  0.00  0.00     0.091 C 
ATOM     19  N3  AMP d   1      61.670  18.119  42.860  0.00  0.00    -0.222 NA
ATOM     20  H12 AMP d   1      61.306  16.121  42.923  0.00  0.00     0.146 H 
BRANCH  15  21
ATOM     21  N6  AMP d   1      57.889  18.149  41.141  0.00  0.00    -0.382 N 
ATOM     22  H10 AMP d   1      57.436  17.251  40.918  0.00  0.00     0.157 HD
ATOM     23  H11 AMP d   1      57.408  19.035  40.930  0.00  0.00     0.157 HD
ENDBRANCH  15  21
ENDBRANCH   5  10
BRANCH   4  24
ATOM     24  O2  AMP d   1      65.006  20.893  42.806  0.00  0.00    -0.388 OA
ATOM     25  H7  AMP d   1      65.039  19.945  42.746  0.00  0.00     0.210 HD
ENDBRANCH   4  24
BRANCH   1  26
ATOM     26  C5  AMP d   1      62.359  24.357  44.129  0.00  0.00     0.059 C 
ATOM     27  H1  AMP d   1      62.067  24.464  45.184  0.00  0.00     0.079 H 
ATOM     28  H2  AMP d   1      62.951  25.232  43.822  0.00  0.00     0.079 H 
BRANCH  26  29
ATOM     29  O5  AMP d   1      61.191  24.282  43.329  0.00  0.00    -0.280 OA
BRANCH  29  30
ATOM     30  P   AMP d   1      59.741  24.892  43.738  0.00  0.00     0.422 P 
ATOM     31  O1P AMP d   1      59.744  24.755  45.219  0.00  0.00    -0.617 OA
ATOM     32  O2P AMP d   1      58.802  24.012  43.010  0.00  0.00    -0.617 OA
ATOM     33  O3P AMP d   1      59.740  26.283  43.210  0.00  0.00    -0.617 OA
ENDBRANCH  29  30
ENDBRANCH  26  29
ENDBRANCH   1  26
BRANCH   3  34
ATOM     34  O3  AMP d   1      64.843  23.455  42.159  0.00  0.00    -0.390 OA
ATOM     35  H5  AMP d   1      65.534  23.108  42.711  0.00  0.00     0.210 HD
ENDBRANCH   3  34
TORSDOF 7
