REMARK WARNING: 32 MAX_TORS EXCEEDED!!!
REMARK  42 active torsions:
REMARK  status: ('A' for Active; 'I' for Inactive)
REMARK    1  A    between atoms: C_1  and  CH3_3 
REMARK       I    between atoms: C_1  and  N_4 
REMARK    2  A    between atoms: N_4  and  CA_5 
REMARK    3  A    between atoms: CA_5  and  C_6 
REMARK    4  A    between atoms: CA_5  and  CB_8 
REMARK       I    between atoms: C_6  and  N_15 
REMARK    5  A    between atoms: CB_8  and  CG_9 
REMARK    6  A    between atoms: N_15  and  CA_16 
REMARK    7  A    between atoms: CA_16  and  C_17 
REMARK    8  A    between atoms: CA_16  and  CB_19 
REMARK       I    between atoms: C_17  and  N_22 
REMARK    9  A    between atoms: CB_19  and  CG1_20 
REMARK   10  A    between atoms: CB_19  and  CG2_21 
REMARK   11  A    between atoms: N_22  and  CA_23 
REMARK   12  A    between atoms: CA_23  and  C_24 
REMARK   13  A    between atoms: CA_23  and  CB_26 
REMARK       I    between atoms: C_24  and  N_31 
REMARK   14  A    between atoms: CB_26  and  CG_27 
REMARK   15  A    between atoms: CG_27  and  CD_28 
REMARK   16  A    between atoms: CD_28  and  CE_29 
REMARK   17  A    between atoms: CE_29  and  NZ_30 
REMARK   18  A    between atoms: N_31  and  CA_32 
REMARK   19  A    between atoms: CA_32  and  C_33 
REMARK   20  A    between atoms: CA_32  and  CB_35 
REMARK       I    between atoms: C_33  and  N_40 
REMARK   21  A    between atoms: CB_35  and  CG_36 
REMARK   22  A    between atoms: CG_36  and  CD_37 
REMARK       I    between atoms: CD_37  and  NE2_39 
REMARK   23  A    between atoms: N_40  and  CA_41 
REMARK   24  A    between atoms: CA_41  and  C_42 
REMARK   25  A    between atoms: CA_41  and  CB_44 
REMARK       I    between atoms: C_42  and  N_48 
REMARK   26  A    between atoms: CB_44  and  CG_45 
REMARK       I    between atoms: CG_45  and  ND2_47 
REMARK   27  A    between atoms: N_48  and  CA_49 
REMARK   28  A    between atoms: CA_49  and  C_50 
REMARK   29  A    between atoms: CA_49  and  CB_52 
REMARK       I    between atoms: C_50  and  N_53 
REMARK   30  A    between atoms: N_53  and  CM_54 
REMARK   31  A    between atoms: N_53  and  CA_55 
REMARK   32  A    between atoms: CA_55  and  CB_56 
REMARK   33  A    between atoms: CA_55  and  C_57 
REMARK       I    between atoms: C_57  and  N_59 
REMARK   34  A    between atoms: N_59  and  CA_60 
REMARK   35  A    between atoms: CA_60  and  C_61 
REMARK   36  A    between atoms: CA_60  and  CB_63 
REMARK       I    between atoms: C_61  and  N_64 
REMARK   37  A    between atoms: N_64  and  CA_65 
REMARK   38  A    between atoms: CA_65  and  C_66 
REMARK   39  A    between atoms: CA_65  and  CB_68 
REMARK   40  A    between atoms: CB_68  and  CG_69 
REMARK   41  A    between atoms: CG_69  and  CD1_70 
REMARK   42  A    between atoms: CG_69  and  CD2_71 
ROOT
ATOM      1  CA  GLN d   1     -29.779  52.627  11.078  0.00  0.00     0.090 C 
ATOM      2  H36 GLN d   1     -29.698  52.167  12.074  0.00  0.00     0.087 H 
ENDROOT
BRANCH   1   3
ATOM      3  N   GLN d   1     -29.206  53.961  11.044  0.00  0.00    -0.346 N 
ATOM      4  C   LYS d   1     -28.248  54.329  11.887  0.00  0.00     0.241 C 
ATOM      5  O   LYS d   1     -27.853  53.625  12.814  0.00  0.00    -0.271 OA
ATOM      6  H35 GLN d   1     -29.541  54.619  10.369  0.00  0.00     0.163 HD
BRANCH   4   7
ATOM      7  CA  LYS d   1     -27.663  55.709  11.638  0.00  0.00     0.089 C 
ATOM      8  H23 LYS d   1     -28.482  56.411  11.423  0.00  0.00     0.087 H 
BRANCH   7   9
ATOM      9  N   LYS d   1     -26.917  56.211  12.778  0.00  0.00    -0.346 N 
ATOM     10  C   VAL d   1     -27.452  57.096  13.605  0.00  0.00     0.241 C 
ATOM     11  O   VAL d   1     -28.597  57.528  13.463  0.00  0.00    -0.271 OA
ATOM     12  H22 LYS d   1     -25.986  55.884  12.941  0.00  0.00     0.163 HD
BRANCH  10  13
ATOM     13  CA  VAL d   1     -26.580  57.561  14.763  0.00  0.00     0.092 C 
ATOM     14  H14 VAL d   1     -25.520  57.519  14.474  0.00  0.00     0.088 H 
BRANCH  13  15
ATOM     15  N   VAL d   1     -26.940  58.935  15.065  0.00  0.00    -0.346 N 
ATOM     16  C   PHE d   1     -26.032  59.901  15.130  0.00  0.00     0.241 C 
ATOM     17  O   PHE d   1     -24.841  59.706  14.964  0.00  0.00    -0.271 OA
ATOM     18  H13 VAL d   1     -27.901  59.160  15.229  0.00  0.00     0.163 HD
BRANCH  16  19
ATOM     19  CA  PHE d   1     -26.555  61.301  15.418  0.00  0.00     0.093 C 
ATOM     20  H5  PHE d   1     -27.472  61.227  16.020  0.00  0.00     0.088 H 
BRANCH  19  21
ATOM     21  N   PHE d   1     -25.574  62.088  16.154  0.00  0.00    -0.348 N 
ATOM     22  C   ACE d   1     -25.173  61.668  17.353  0.00  0.00     0.214 C 
ATOM     23  O   ACE d   1     -25.646  60.664  17.891  0.00  0.00    -0.274 OA
ATOM     24  H4  PHE d   1     -25.207  62.932  15.764  0.00  0.00     0.163 HD
BRANCH  22  25
ATOM     25  CH3 ACE d   1     -24.135  62.513  18.103  0.00  0.00    -0.003 C 
ATOM     26  H1  ACE d   1     -23.829  63.361  17.473  0.00  0.00     0.040 H 
ATOM     27  H2  ACE d   1     -23.257  61.893  18.336  0.00  0.00     0.040 H 
ATOM     28  H3  ACE d   1     -24.576  62.891  19.038  0.00  0.00     0.040 H 
ENDBRANCH  22  25
ENDBRANCH  19  21
BRANCH  19  29
ATOM     29  CB  PHE d   1     -26.879  61.974  14.083  0.00  0.00    -0.014 C 
ATOM     30  H6  PHE d   1     -27.507  61.288  13.495  0.00  0.00     0.043 H 
ATOM     31  H7  PHE d   1     -25.934  62.155  13.550  0.00  0.00     0.043 H 
BRANCH  29  32
ATOM     32  CG  PHE d   1     -27.603  63.280  14.211  0.00  0.00    -0.056 A 
ATOM     33  CD1 PHE d   1     -28.928  63.319  14.634  0.00  0.00    -0.077 A 
ATOM     34  CE1 PHE d   1     -29.617  64.536  14.722  0.00  0.00    -0.082 A 
ATOM     35  H8  PHE d   1     -29.433  62.397  14.899  0.00  0.00     0.084 H 
ATOM     36  CZ  PHE d   1     -28.973  65.724  14.382  0.00  0.00    -0.083 A 
ATOM     37  H10 PHE d   1     -30.649  64.553  15.054  0.00  0.00     0.083 H 
ATOM     38  CE2 PHE d   1     -27.645  65.695  13.958  0.00  0.00    -0.082 A 
ATOM     39  H12 PHE d   1     -29.503  66.668  14.447  0.00  0.00     0.083 H 
ATOM     40  CD2 PHE d   1     -26.968  64.474  13.876  0.00  0.00    -0.077 A 
ATOM     41  H11 PHE d   1     -27.139  66.616  13.693  0.00  0.00     0.083 H 
ATOM     42  H9  PHE d   1     -25.935  64.456  13.547  0.00  0.00     0.084 H 
ENDBRANCH  29  32
ENDBRANCH  19  29
ENDBRANCH  16  19
ENDBRANCH  13  15
BRANCH  13  43
ATOM     43  CB  VAL d   1     -26.813  56.618  15.981  0.00  0.00    -0.033 C 
ATOM     44  H15 VAL d   1     -26.521  55.596  15.699  0.00  0.00     0.042 H 
BRANCH  43  45
ATOM     45  CG1 VAL d   1     -25.959  57.063  17.157  0.00  0.00    -0.071 C 
ATOM     46  H16 VAL d   1     -26.131  56.391  18.010  0.00  0.00     0.028 H 
ATOM     47  H17 VAL d   1     -26.231  58.091  17.439  0.00  0.00     0.028 H 
ATOM     48  H18 VAL d   1     -24.897  57.029  16.872  0.00  0.00     0.028 H 
ENDBRANCH  43  45
BRANCH  43  49
ATOM     49  CG2 VAL d   1     -28.283  56.618  16.367  0.00  0.00    -0.071 C 
ATOM     50  H19 VAL d   1     -28.888  56.294  15.507  0.00  0.00     0.028 H 
ATOM     51  H20 VAL d   1     -28.584  57.633  16.665  0.00  0.00     0.028 H 
ATOM     52  H21 VAL d   1     -28.441  55.927  17.208  0.00  0.00     0.028 H 
ENDBRANCH  43  49
ENDBRANCH  13  43
ENDBRANCH  10  13
ENDBRANCH   7   9
BRANCH   7  53
ATOM     53  CB  LYS d   1     -26.753  55.599  10.413  0.00  0.00    -0.038 C 
ATOM     54  H24 LYS d   1     -26.276  56.577  10.249  0.00  0.00     0.036 H 
ATOM     55  H25 LYS d   1     -27.376  55.345   9.543  0.00  0.00     0.036 H 
BRANCH  53  56
ATOM     56  CG  LYS d   1     -25.645  54.537  10.539  0.00  0.00    -0.061 C 
ATOM     57  H26 LYS d   1     -26.043  53.661  11.073  0.00  0.00     0.033 H 
ATOM     58  H27 LYS d   1     -24.802  54.960  11.106  0.00  0.00     0.033 H 
BRANCH  56  59
ATOM     59  CD  LYS d   1     -25.153  54.102   9.159  0.00  0.00    -0.043 C 
ATOM     60  H28 LYS d   1     -25.199  54.970   8.484  0.00  0.00     0.035 H 
ATOM     61  H29 LYS d   1     -25.820  53.311   8.786  0.00  0.00     0.035 H 
BRANCH  59  62
ATOM     62  CE  LYS d   1     -23.723  53.566   9.159  0.00  0.00     0.080 C 
ATOM     63  H30 LYS d   1     -23.050  54.409   9.374  0.00  0.00     0.075 H 
ATOM     64  H31 LYS d   1     -23.512  53.175   8.153  0.00  0.00     0.075 H 
BRANCH  62  65
ATOM     65  NZ  LYS d   1     -23.422  52.489  10.133  0.00  0.00    -0.079 N 
ATOM     66  H32 LYS d   1     -22.456  52.215  10.043  0.00  0.00     0.274 HD
ATOM     67  H33 LYS d   1     -24.015  51.694   9.949  0.00  0.00     0.274 HD
ATOM     68  H34 LYS d   1     -23.591  52.825  11.068  0.00  0.00     0.274 HD
ENDBRANCH  62  65
ENDBRANCH  59  62
ENDBRANCH  56  59
ENDBRANCH  53  56
ENDBRANCH   7  53
ENDBRANCH   4   7
ENDBRANCH   1   3
BRANCH   1  69
ATOM     69  C   GLN d   1     -28.911  51.917  10.036  0.00  0.00     0.241 C 
ATOM     70  O   GLN d   1     -28.638  52.481   8.970  0.00  0.00    -0.271 OA
ATOM     71  N   ASN d   1     -28.449  50.710  10.347  0.00  0.00    -0.346 N 
ATOM     72  H43 ASN d   1     -28.672  50.312  11.237  0.00  0.00     0.163 HD
BRANCH  71  73
ATOM     73  CA  ASN d   1     -27.622  49.958   9.412  0.00  0.00     0.097 C 
ATOM     74  H44 ASN d   1     -26.871  50.632   8.974  0.00  0.00     0.088 H 
BRANCH  73  75
ATOM     75  C   ASN d   1     -28.512  49.405   8.300  0.00  0.00     0.241 C 
ATOM     76  O   ASN d   1     -29.659  49.020   8.540  0.00  0.00    -0.271 OA
ATOM     77  N   ALA d   1     -27.989  49.377   7.080  0.00  0.00    -0.346 N 
ATOM     78  H49 ALA d   1     -27.057  49.710   6.936  0.00  0.00     0.163 HD
BRANCH  77  79
ATOM     79  CA  ALA d   1     -28.753  48.868   5.946  0.00  0.00     0.086 C 
ATOM     80  H50 ALA d   1     -29.767  49.292   5.985  0.00  0.00     0.086 H 
BRANCH  79  81
ATOM     81  C   ALA d   1     -28.857  47.337   6.006  0.00  0.00     0.242 C 
ATOM     82  O   ALA d   1     -27.850  46.662   6.225  0.00  0.00    -0.271 OA
ATOM     83  N   MAA d   1     -30.052  46.774   5.816  0.00  0.00    -0.342 N 
BRANCH  83  84
ATOM     84  CM  MAA d   1     -31.133  47.532   5.490  0.00  0.00    -0.015 C 
ATOM     85  H54 MAA d   1     -30.857  48.596   5.521  0.00  0.00     0.056 H 
ATOM     86  H55 MAA d   1     -31.944  47.342   6.208  0.00  0.00     0.056 H 
ATOM     87  H56 MAA d   1     -31.472  47.270   4.477  0.00  0.00     0.056 H 
ENDBRANCH  83  84
BRANCH  83  88
ATOM     88  CA  MAA d   1     -30.157  45.312   5.848  0.00  0.00     0.088 C 
ATOM     89  H57 MAA d   1     -29.411  44.926   6.559  0.00  0.00     0.087 H 
BRANCH  88  90
ATOM     90  CB  MAA d   1     -31.548  44.861   6.314  0.00  0.00    -0.049 C 
ATOM     91  H58 MAA d   1     -31.592  43.762   6.326  0.00  0.00     0.030 H 
ATOM     92  H59 MAA d   1     -32.310  45.251   5.623  0.00  0.00     0.030 H 
ATOM     93  H60 MAA d   1     -31.739  45.247   7.326  0.00  0.00     0.030 H 
ENDBRANCH  88  90
BRANCH  88  94
ATOM     94  C   MAA d   1     -29.858  44.736   4.465  0.00  0.00     0.240 C 
ATOM     95  O   MAA d   1     -30.381  45.214   3.456  0.00  0.00    -0.271 OA
ATOM     96  N   ALA d   1     -29.008  43.719   4.427  0.00  0.00    -0.346 N 
ATOM     97  H61 ALA d   1     -28.609  43.388   5.282  0.00  0.00     0.163 HD
BRANCH  96  98
ATOM     98  CA  ALA d   1     -28.638  43.070   3.177  0.00  0.00     0.086 C 
ATOM     99  H62 ALA d   1     -28.487  43.840   2.407  0.00  0.00     0.086 H 
BRANCH  98 100
ATOM    100  C   ALA d   1     -29.752  42.127   2.723  0.00  0.00     0.240 C 
ATOM    101  O   ALA d   1     -30.354  41.438   3.549  0.00  0.00    -0.271 OA
ATOM    102  N   LEU d   1     -30.015  42.118   1.414  0.00  0.00    -0.345 N 
ATOM    103  H66 LEU d   1     -29.486  42.726   0.822  0.00  0.00     0.163 HD
BRANCH 102 104
ATOM    104  CA  LEU d   1     -31.036  41.267   0.795  0.00  0.00     0.096 C 
ATOM    105  H67 LEU d   1     -31.885  41.150   1.485  0.00  0.00     0.089 H 
BRANCH 104 106
ATOM    106  C   LEU d   1     -30.424  39.915   0.474  0.00  0.00     0.196 C 
ATOM    107  O   LEU d   1     -29.181  39.800   0.555  0.00  0.00    -0.646 OA
ATOM    108  O1  LEU d   1     -31.146  38.939   0.137  0.00  0.00    -0.646 OA
ENDBRANCH 104 106
BRANCH 104 109
ATOM    109  CB  LEU d   1     -31.519  41.856  -0.532  0.00  0.00    -0.034 C 
ATOM    110  H68 LEU d   1     -32.202  41.108  -0.962  0.00  0.00     0.037 H 
ATOM    111  H69 LEU d   1     -30.624  41.943  -1.166  0.00  0.00     0.037 H 
BRANCH 109 112
ATOM    112  CG  LEU d   1     -32.240  43.191  -0.646  0.00  0.00    -0.059 C 
ATOM    113  H70 LEU d   1     -31.723  43.938  -0.025  0.00  0.00     0.038 H 
BRANCH 112 114
ATOM    114  CD1 LEU d   1     -32.191  43.623  -2.094  0.00  0.00    -0.073 C 
ATOM    115  H71 LEU d   1     -32.706  44.588  -2.206  0.00  0.00     0.028 H 
ATOM    116  H72 LEU d   1     -32.688  42.867  -2.719  0.00  0.00     0.028 H 
ATOM    117  H73 LEU d   1     -31.143  43.728  -2.410  0.00  0.00     0.028 H 
ENDBRANCH 112 114
BRANCH 112 118
ATOM    118  CD2 LEU d   1     -33.673  43.071  -0.171  0.00  0.00    -0.073 C 
ATOM    119  H74 LEU d   1     -33.685  42.756   0.883  0.00  0.00     0.028 H 
ATOM    120  H75 LEU d   1     -34.201  42.324  -0.783  0.00  0.00     0.028 H 
ATOM    121  H76 LEU d   1     -34.174  44.045  -0.268  0.00  0.00     0.028 H 
ENDBRANCH 112 118
ENDBRANCH 109 112
ENDBRANCH 104 109
ENDBRANCH 102 104
ENDBRANCH  98 100
BRANCH  98 122
ATOM    122  CB  ALA d   1     -27.333  42.286   3.360  0.00  0.00    -0.049 C 
ATOM    123  H63 ALA d   1     -27.061  41.800   2.412  0.00  0.00     0.030 H 
ATOM    124  H64 ALA d   1     -27.471  41.521   4.138  0.00  0.00     0.030 H 
ATOM    125  H65 ALA d   1     -26.530  42.975   3.662  0.00  0.00     0.030 H 
ENDBRANCH  98 122
ENDBRANCH  96  98
ENDBRANCH  88  94
ENDBRANCH  83  88
ENDBRANCH  79  81
BRANCH  79 126
ATOM    126  CB  ALA d   1     -28.087  49.296   4.629  0.00  0.00    -0.049 C 
ATOM    127  H51 ALA d   1     -28.670  48.908   3.780  0.00  0.00     0.030 H 
ATOM    128  H52 ALA d   1     -27.065  48.892   4.587  0.00  0.00     0.030 H 
ATOM    129  H53 ALA d   1     -28.050  50.394   4.577  0.00  0.00     0.030 H 
ENDBRANCH  79 126
ENDBRANCH  77  79
ENDBRANCH  73  75
BRANCH  73 130
ATOM    130  CB  ASN d   1     -26.897  48.803  10.129  0.00  0.00     0.036 C 
ATOM    131  H45 ASN d   1     -26.393  48.181   9.374  0.00  0.00     0.051 H 
ATOM    132  H46 ASN d   1     -27.643  48.197  10.664  0.00  0.00     0.051 H 
BRANCH 130 133
ATOM    133  CG  ASN d   1     -25.851  49.295  11.137  0.00  0.00     0.217 C 
ATOM    134  OD1 ASN d   1     -25.314  50.393  11.001  0.00  0.00    -0.274 OA
ATOM    135  ND2 ASN d   1     -25.554  48.476  12.141  0.00  0.00    -0.370 N 
ATOM    136  H47 ASN d   1     -24.878  48.749  12.826  0.00  0.00     0.159 HD
ATOM    137  H48 ASN d   1     -26.006  47.587  12.211  0.00  0.00     0.159 HD
ENDBRANCH 130 133
ENDBRANCH  73 130
ENDBRANCH  71  73
ENDBRANCH   1  69
BRANCH   1 138
ATOM    138  CB  GLN d   1     -31.238  52.642  10.616  0.00  0.00    -0.030 C 
ATOM    139  H37 GLN d   1     -31.434  51.706  10.073  0.00  0.00     0.037 H 
ATOM    140  H38 GLN d   1     -31.372  53.495   9.935  0.00  0.00     0.037 H 
BRANCH 138 141
ATOM    141  CG  GLN d   1     -32.272  52.765  11.745  0.00  0.00     0.011 C 
ATOM    142  H39 GLN d   1     -33.274  52.849  11.298  0.00  0.00     0.047 H 
ATOM    143  H40 GLN d   1     -32.053  53.673  12.326  0.00  0.00     0.047 H 
BRANCH 141 144
ATOM    144  CD  GLN d   1     -32.256  51.564  12.688  0.00  0.00     0.215 C 
ATOM    145  OE1 GLN d   1     -31.418  51.474  13.577  0.00  0.00    -0.274 OA
ATOM    146  NE2 GLN d   1     -33.178  50.632  12.479  0.00  0.00    -0.370 N 
ATOM    147  H41 GLN d   1     -33.214  49.824  13.067  0.00  0.00     0.159 HD
ATOM    148  H42 GLN d   1     -33.837  50.738  11.734  0.00  0.00     0.159 HD
ENDBRANCH 141 144
ENDBRANCH 138 141
ENDBRANCH   1 138
TORSDOF 42
