REMARK  17 active torsions:
REMARK  status: ('A' for Active; 'I' for Inactive)
REMARK    1  A    between atoms: C1_1  and  O1_2 
REMARK    2  A    between atoms: O1_2  and  C7_3 
REMARK    3  A    between atoms: C9_5  and  N14_6 
REMARK    4  A    between atoms: C11_10  and  C13_12 
REMARK       I    between atoms: C13_12  and  N18_13 
REMARK    5  A    between atoms: N18_13  and  C19_14 
REMARK    6  A    between atoms: C19_14  and  C20_15 
REMARK    7  A    between atoms: C20_15  and  C21_16 
REMARK    8  A    between atoms: C21_16  and  N22_17 
REMARK    9  A    between atoms: N25_20  and  C28_21 
REMARK   10  A    between atoms: C28_21  and  C35_22 
REMARK   11  A    between atoms: C35_22  and  C36_23 
REMARK   12  A    between atoms: C36_23  and  N37_24 
REMARK   13  A    between atoms: C2_28  and  O2_29 
REMARK   14  A    between atoms: C3_30  and  O3_31 
REMARK   15  A    between atoms: C4_32  and  O4_33 
REMARK   16  A    between atoms: C5_34  and  C6_35 
REMARK   17  A    between atoms: C6_35  and  O6_36 
ROOT
ATOM      1  C13 15B d   1     -12.954  23.355  -0.570  0.00  0.00     0.251 C 
ATOM      2  N18 15B d   1     -12.979  24.322  -1.350  0.00  0.00    -0.357 N 
ATOM      3  O17 15B d   1     -13.519  23.447   0.527  0.00  0.00    -0.268 OA
ATOM      4  H5  15B d   1     -12.452  24.252  -2.197  0.00  0.00     0.162 HD
ENDROOT
BRANCH   2   5
ATOM      5  C19 15B d   1     -13.720  25.544  -1.116  0.00  0.00    -0.003 C 
ATOM      6  H6  15B d   1     -13.094  26.432  -1.288  0.00  0.00     0.064 H 
ATOM      7  H7  15B d   1     -14.129  25.576  -0.095  0.00  0.00     0.064 H 
BRANCH   5   8
ATOM      8  C20 15B d   1     -14.829  25.436  -2.156  0.00  0.00    -0.028 C 
ATOM      9  H8  15B d   1     -14.576  24.615  -2.843  0.00  0.00     0.037 H 
ATOM     10  H9  15B d   1     -14.869  26.383  -2.715  0.00  0.00     0.037 H 
BRANCH   8  11
ATOM     11  C21 15B d   1     -16.204  25.167  -1.585  0.00  0.00     0.085 C 
ATOM     12  H10 15B d   1     -16.198  25.412  -0.513  0.00  0.00     0.076 H 
ATOM     13  H11 15B d   1     -16.441  24.101  -1.716  0.00  0.00     0.076 H 
BRANCH  11  14
ATOM     14  N22 15B d   1     -17.101  25.860  -2.159  0.00  0.00    -0.068 N 
ATOM     15  C23 15B d   1     -16.648  27.236  -2.350  0.00  0.00     0.106 C 
ATOM     16  C24 15B d   1     -17.730  28.099  -2.973  0.00  0.00     0.106 C 
ATOM     17  H13 15B d   1     -15.769  27.234  -3.011  0.00  0.00     0.078 H 
ATOM     18  H14 15B d   1     -16.372  27.660  -1.373  0.00  0.00     0.078 H 
ATOM     19  N25 15B d   1     -18.869  28.162  -2.081  0.00  0.00    -0.068 N 
ATOM     20  H15 15B d   1     -18.040  27.662  -3.934  0.00  0.00     0.078 H 
ATOM     21  H16 15B d   1     -17.339  29.113  -3.141  0.00  0.00     0.078 H 
ATOM     22  C26 15B d   1     -19.429  26.809  -2.016  0.00  0.00     0.106 C 
ATOM     23  H17 15B d   1     -18.524  28.383  -1.160  0.00  0.00     0.280 HD
ATOM     24  C27 15B d   1     -18.384  25.829  -1.457  0.00  0.00     0.106 C 
ATOM     25  H27 15B d   1     -19.724  26.489  -3.026  0.00  0.00     0.078 H 
ATOM     26  H28 15B d   1     -20.312  26.812  -1.360  0.00  0.00     0.078 H 
ATOM     27  H29 15B d   1     -18.206  26.079  -0.401  0.00  0.00     0.078 H 
ATOM     28  H30 15B d   1     -18.793  24.810  -1.529  0.00  0.00     0.078 H 
ATOM     29  H12 15B d   1     -17.250  25.458  -3.071  0.00  0.00     0.280 HD
BRANCH  19  30
ATOM     30  C28 15B d   1     -19.653  29.058  -2.366  0.00  0.00     0.085 C 
ATOM     31  H18 15B d   1     -20.665  28.736  -2.080  0.00  0.00     0.076 H 
ATOM     32  H19 15B d   1     -19.613  29.219  -3.453  0.00  0.00     0.076 H 
BRANCH  30  33
ATOM     33  C35 15B d   1     -19.407  30.163  -1.789  0.00  0.00    -0.020 C 
ATOM     34  H20 15B d   1     -18.770  29.955  -0.916  0.00  0.00     0.037 H 
ATOM     35  H21 15B d   1     -20.363  30.589  -1.452  0.00  0.00     0.037 H 
BRANCH  33  36
ATOM     36  C36 15B d   1     -18.704  31.209  -2.642  0.00  0.00     0.081 C 
ATOM     37  H22 15B d   1     -18.948  31.026  -3.699  0.00  0.00     0.075 H 
ATOM     38  H23 15B d   1     -17.618  31.114  -2.494  0.00  0.00     0.075 H 
BRANCH  36  39
ATOM     39  N37 15B d   1     -19.107  32.564  -2.297  0.00  0.00    -0.079 N 
ATOM     40  H24 15B d   1     -18.618  33.220  -2.885  0.00  0.00     0.274 HD
ATOM     41  H25 15B d   1     -18.882  32.746  -1.331  0.00  0.00     0.274 HD
ATOM     42  H26 15B d   1     -20.100  32.665  -2.435  0.00  0.00     0.274 HD
ENDBRANCH  36  39
ENDBRANCH  33  36
ENDBRANCH  30  33
ENDBRANCH  19  30
ENDBRANCH  11  14
ENDBRANCH   8  11
ENDBRANCH   5   8
ENDBRANCH   2   5
BRANCH   1  43
ATOM     43  C11 15B d   1     -12.201  22.233  -0.947  0.00  0.00     0.037 A 
ATOM     44  C10 15B d   1     -11.888  21.911  -2.276  0.00  0.00    -0.036 A 
ATOM     45  C9  15B d   1     -11.115  20.780  -2.573  0.00  0.00     0.106 A 
ATOM     46  H3  15B d   1     -12.247  22.543  -3.080  0.00  0.00     0.088 H 
ATOM     47  C8  15B d   1     -10.650  19.952  -1.570  0.00  0.00    -0.019 A 
ATOM     48  C7  15B d   1     -10.952  20.291  -0.271  0.00  0.00     0.075 A 
ATOM     49  H2  15B d   1     -10.068  19.067  -1.798  0.00  0.00     0.091 H 
ATOM     50  C12 15B d   1     -11.725  21.404   0.065  0.00  0.00    -0.035 A 
ATOM     51  H4  15B d   1     -11.952  21.620   1.103  0.00  0.00     0.089 H 
BRANCH  45  52
ATOM     52  N14 15B d   1     -10.815  20.461  -3.834  0.00  0.00    -0.116 N 
ATOM     53  O15 15B d   1     -11.206  21.164  -4.740  0.00  0.00    -0.532 OA
ATOM     54  O16 15B d   1     -10.137  19.471  -4.082  0.00  0.00    -0.532 OA
ENDBRANCH  45  52
BRANCH  48  55
ATOM     55  O1  15B d   1     -10.463  19.405   0.732  0.00  0.00    -0.318 OA
BRANCH  55  56
ATOM     56  C1  15B d   1     -10.976  19.657   1.986  0.00  0.00     0.164 C 
ATOM     57  C2  15B d   1     -10.696  18.402   2.778  0.00  0.00     0.110 C 
ATOM     58  C3  15B d   1     -11.057  18.692   4.228  0.00  0.00     0.092 C 
ATOM     59  H31 15B d   1      -9.629  18.143   2.715  0.00  0.00     0.094 H 
ATOM     60  C4  15B d   1     -10.346  19.950   4.738  0.00  0.00     0.090 C 
ATOM     61  H33 15B d   1     -12.143  18.855   4.300  0.00  0.00     0.091 H 
ATOM     62  C5  15B d   1     -10.633  21.125   3.819  0.00  0.00     0.089 C 
ATOM     63  H35 15B d   1     -10.738  20.197   5.736  0.00  0.00     0.091 H 
ATOM     64  O5  15B d   1     -10.261  20.768   2.488  0.00  0.00    -0.348 OA
ATOM     65  H37 15B d   1     -11.710  21.344   3.856  0.00  0.00     0.090 H 
ATOM     66  H1  15B d   1     -12.055  19.871   1.957  0.00  0.00     0.134 H 
BRANCH  57  67
ATOM     67  O2  15B d   1     -11.464  17.344   2.218  0.00  0.00    -0.388 OA
ATOM     68  H32 15B d   1     -12.387  17.564   2.268  0.00  0.00     0.210 HD
ENDBRANCH  57  67
BRANCH  58  69
ATOM     69  O3  15B d   1     -10.709  17.560   5.001  0.00  0.00    -0.390 OA
ATOM     70  H34 15B d   1     -11.191  16.804   4.688  0.00  0.00     0.210 HD
ENDBRANCH  58  69
BRANCH  60  71
ATOM     71  O4  15B d   1      -8.953  19.676   4.863  0.00  0.00    -0.390 OA
ATOM     72  H36 15B d   1      -8.825  18.963   5.478  0.00  0.00     0.210 HD
ENDBRANCH  60  71
BRANCH  62  73
ATOM     73  C6  15B d   1      -9.863  22.385   4.199  0.00  0.00     0.043 C 
ATOM     74  H38 15B d   1      -8.787  22.211   4.050  0.00  0.00     0.078 H 
ATOM     75  H39 15B d   1     -10.053  22.621   5.256  0.00  0.00     0.078 H 
BRANCH  73  76
ATOM     76  O6  15B d   1     -10.280  23.487   3.387  0.00  0.00    -0.398 OA
ATOM     77  H40 15B d   1     -10.115  23.286   2.473  0.00  0.00     0.209 HD
ENDBRANCH  73  76
ENDBRANCH  62  73
ENDBRANCH  55  56
ENDBRANCH  48  55
ENDBRANCH   1  43
TORSDOF 17
