REMARK  5 active torsions:
REMARK  status: ('A' for Active; 'I' for Inactive)
REMARK    1  A    between atoms: C22_7  and  C17_8 
REMARK    2  A    between atoms: C17_8  and  N13_9 
REMARK    3  A    between atoms: N13_9  and  C16_10 
REMARK    4  A    between atoms: N13_9  and  C1_15 
REMARK    5  A    between atoms: C1_15  and  C2_16 
ROOT
ATOM      1  N13 CBT d   1       9.041  13.152  29.869  0.00  0.00    -0.205 N 
ENDROOT
BRANCH   1   2
ATOM      2  C17 CBT d   1       7.891  12.685  29.064  0.00  0.00     0.036 C 
ATOM      3  H5  CBT d   1       7.128  12.275  29.742  0.00  0.00     0.072 H 
ATOM      4  H6  CBT d   1       7.472  13.542  28.516  0.00  0.00     0.072 H 
BRANCH   2   5
ATOM      5  C22 CBT d   1       8.287  11.595  28.049  0.00  0.00    -0.040 A 
ATOM      6  C26 CBT d   1       9.394  10.735  28.274  0.00  0.00    -0.074 A 
ATOM      7  C28 CBT d   1       9.645   9.652  27.390  0.00  0.00    -0.061 A 
ATOM      8  H2  CBT d   1      10.048  10.905  29.121  0.00  0.00     0.084 H 
ATOM      9  C29 CBT d   1       8.800   9.470  26.266  0.00  0.00     0.034 A 
ATOM     10  H1  CBT d   1      10.471   8.974  27.572  0.00  0.00     0.086 H 
ATOM     11 CL3  CBT d   1       9.135   8.453  25.214  0.00  0.00    -0.084 Cl
ATOM     12  C27 CBT d   1       7.690  10.312  26.043  0.00  0.00    -0.061 A 
ATOM     13  C25 CBT d   1       7.466  11.369  26.936  0.00  0.00    -0.074 A 
ATOM     14  H3  CBT d   1       7.027  10.146  25.202  0.00  0.00     0.086 H 
ATOM     15  H4  CBT d   1       6.629  12.035  26.760  0.00  0.00     0.084 H 
ENDBRANCH   2   5
ENDBRANCH   1   2
BRANCH   1  16
ATOM     16  C16 CBT d   1       9.343  12.581  31.040  0.00  0.00     0.730 A 
ATOM     17  N18 CBT d   1      10.285  13.025  31.884  0.00  0.00     0.029 NA
ATOM     18  N20 CBT d   1      10.176  12.296  33.071  0.00  0.00     0.033 NA
ATOM     19  N21 CBT d   1       9.110  11.392  32.923  0.00  0.00     0.008 NA
ATOM     20  N19 CBT d   1       8.630  11.616  31.631  0.00  0.00    -0.115 N 
ATOM     21  H7  CBT d   1       7.843  11.113  31.197  0.00  0.00     0.203 HD
ENDBRANCH   1  16
BRANCH   1  22
ATOM     22  C1  CBT d   1       9.845  14.285  29.350  0.00  0.00     0.036 C 
ATOM     23  H8  CBT d   1      10.126  14.072  28.308  0.00  0.00     0.072 H 
ATOM     24  H9  CBT d   1      10.754  14.385  29.962  0.00  0.00     0.072 H 
BRANCH  22  25
ATOM     25  C2  CBT d   1       9.072  15.610  29.393  0.00  0.00    -0.040 A 
ATOM     26  C3  CBT d   1       8.072  15.856  30.355  0.00  0.00    -0.074 A 
ATOM     27  C5  CBT d   1       7.474  17.134  30.405  0.00  0.00    -0.061 A 
ATOM     28  H10 CBT d   1       7.767  15.077  31.045  0.00  0.00     0.084 H 
ATOM     29  C7  CBT d   1       7.817  18.178  29.527  0.00  0.00     0.034 A 
ATOM     30  H11 CBT d   1       6.714  17.320  31.156  0.00  0.00     0.086 H 
ATOM     31 CL8  CBT d   1       7.196  19.565  29.679  0.00  0.00    -0.084 Cl
ATOM     32  C6  CBT d   1       8.776  17.917  28.548  0.00  0.00    -0.061 A 
ATOM     33  C4  CBT d   1       9.396  16.641  28.497  0.00  0.00    -0.074 A 
ATOM     34  H12 CBT d   1       9.046  18.684  27.831  0.00  0.00     0.086 H 
ATOM     35  H13 CBT d   1      10.148  16.456  27.738  0.00  0.00     0.084 H 
ENDBRANCH  22  25
ENDBRANCH   1  22
TORSDOF 5
