REMARK  7 active torsions:
REMARK  status: ('A' for Active; 'I' for Inactive)
REMARK    1  A    between atoms: C2_2  and  C7_7 
REMARK    2  A    between atoms: C4_4  and  O13_13 
REMARK    3  A    between atoms: C11_11  and  C18_18 
REMARK    4  A    between atoms: C12_12  and  C14_14 
REMARK    5  A    between atoms: C14_14  and  O15_15 
REMARK    6  A    between atoms: O15_15  and  C16_16 
REMARK    7  A    between atoms: C16_16  and  C17_17 
ROOT
ATOM      1  C7  NAT d   1      18.023  13.604 109.890  0.00  0.00     0.070 C 
ATOM      2  N8  NAT d   1      19.322  13.194 109.344  0.00  0.00    -0.354 N 
ATOM      3  C9  NAT d   1      20.214  14.044 108.786  0.00  0.00     0.172 C 
ATOM      4  N10 NAT d   1      19.882  15.339 108.648  0.00  0.00    -0.337 N 
ATOM      5  C11 NAT d   1      18.538  15.829 108.949  0.00  0.00     0.022 C 
ATOM      6  C12 NAT d   1      17.603  14.994 109.458  0.00  0.00     0.066 C 
ATOM      7  S20 NAT d   1      21.694  13.519 108.224  0.00  0.00    -0.041 SA
ATOM      8  H5  NAT d   1      17.282  12.913 109.463  0.00  0.00     0.088 H 
ATOM      9  H6  NAT d   1      19.563  12.224 109.387  0.00  0.00     0.163 HD
ATOM     10  H7  NAT d   1      20.575  15.986 108.330  0.00  0.00     0.168 HD
ENDROOT
BRANCH   1  11
ATOM     11  C2  NAT d   1      17.947  13.440 111.364  0.00  0.00    -0.028 A 
ATOM     12  C1  NAT d   1      18.944  14.074 112.222  0.00  0.00    -0.074 A 
ATOM     13  C6  NAT d   1      18.912  13.921 113.665  0.00  0.00    -0.080 A 
ATOM     14  H1  NAT d   1      19.727  14.673 111.771  0.00  0.00     0.084 H 
ATOM     15  C5  NAT d   1      17.840  13.107 114.208  0.00  0.00    -0.051 A 
ATOM     16  H4  NAT d   1      19.651  14.391 114.304  0.00  0.00     0.083 H 
ATOM     17  C4  NAT d   1      16.872  12.448 113.361  0.00  0.00     0.066 A 
ATOM     18  H3  NAT d   1      17.763  12.990 115.283  0.00  0.00     0.087 H 
ATOM     19  C3  NAT d   1      16.905  12.614 111.915  0.00  0.00    -0.043 A 
ATOM     20  H2  NAT d   1      16.172  12.133 111.277  0.00  0.00     0.088 H 
BRANCH  17  21
ATOM     21  O13 NAT d   1      15.942  11.647 113.924  0.00  0.00    -0.361 OA
ATOM     22  H8  NAT d   1      15.075  11.970 113.708  0.00  0.00     0.217 HD
ENDBRANCH  17  21
ENDBRANCH   1  11
BRANCH   6  23
ATOM     23  C14 NAT d   1      16.170  15.389 109.684  0.00  0.00     0.293 C 
ATOM     24  O19 NAT d   1      15.349  14.547 109.934  0.00  0.00    -0.259 OA
BRANCH  23  25
ATOM     25  O15 NAT d   1      15.865  16.706 109.607  0.00  0.00    -0.318 OA
BRANCH  25  26
ATOM     26  C16 NAT d   1      14.524  17.328 109.724  0.00  0.00     0.026 C 
ATOM     27  H9  NAT d   1      14.142  17.177 110.745  0.00  0.00     0.074 H 
ATOM     28  H10 NAT d   1      13.841  16.855 109.003  0.00  0.00     0.074 H 
BRANCH  26  29
ATOM     29  C17 NAT d   1      14.604  18.841 109.430  0.00  0.00    -0.056 C 
ATOM     30  H11 NAT d   1      13.602  19.286 109.521  0.00  0.00     0.030 H 
ATOM     31  H12 NAT d   1      14.983  18.997 108.409  0.00  0.00     0.030 H 
ATOM     32  H13 NAT d   1      15.284  19.319 110.150  0.00  0.00     0.030 H 
ENDBRANCH  26  29
ENDBRANCH  25  26
ENDBRANCH  23  25
ENDBRANCH   6  23
BRANCH   5  33
ATOM     33  C18 NAT d   1      18.351  17.297 108.631  0.00  0.00    -0.037 C 
ATOM     34  H14 NAT d   1      17.323  17.598 108.880  0.00  0.00     0.035 H 
ATOM     35  H15 NAT d   1      18.533  17.466 107.559  0.00  0.00     0.035 H 
ATOM     36  H16 NAT d   1      19.061  17.894 109.222  0.00  0.00     0.035 H 
ENDBRANCH   5  33
TORSDOF 7
