REMARK  10 active torsions:
REMARK  status: ('A' for Active; 'I' for Inactive)
REMARK    1  A    between atoms: C2_2  and  C7_7 
REMARK    2  A    between atoms: C8_15  and  C4_4 
REMARK    3  A    between atoms: C14_10  and  C16_12 
REMARK    4  A    between atoms: O3_27  and  C32_16 
REMARK    5  A    between atoms: C36_20  and  O14_26 
REMARK    6  A    between atoms: C37_21  and  C38_22 
REMARK    7  A    between atoms: C38_22  and  O4_24 
REMARK    8  A    between atoms: O4_24  and  C39_25 
REMARK    9  A    between atoms: C40_28  and  O3_27 
REMARK   10  A    between atoms: C40_28  and  C41_29 
ROOT
ATOM      1  C8  234 d   1      28.809  31.486  19.196  0.00  0.00    -0.075 C 
ATOM      2  C41 234 d   1      28.131  30.979  20.266  0.00  0.00    -0.079 C 
ATOM      3  H5  234 d   1      28.235  32.047  18.460  0.00  0.00     0.084 H 
ATOM      4  H15 234 d   1      28.692  30.421  21.014  0.00  0.00     0.080 H 
ENDROOT
BRANCH   2   5
ATOM      5  C40 234 d   1      26.650  31.150  20.467  0.00  0.00     0.041 C 
ATOM      6  H13 234 d   1      26.458  32.078  21.026  0.00  0.00     0.081 H 
ATOM      7  H14 234 d   1      26.148  31.200  19.490  0.00  0.00     0.081 H 
BRANCH   5   8
ATOM      8  O3  234 d   1      26.155  30.039  21.202  0.00  0.00    -0.346 OA
BRANCH   8   9
ATOM      9  C32 234 d   1      24.749  29.996  21.499  0.00  0.00     0.088 A 
ATOM     10  C33 234 d   1      23.927  31.186  21.541  0.00  0.00    -0.050 A 
ATOM     11  C34 234 d   1      22.540  31.119  21.836  0.00  0.00    -0.078 A 
ATOM     12  H6  234 d   1      24.381  32.150  21.343  0.00  0.00     0.087 H 
ATOM     13  C35 234 d   1      21.937  29.867  22.099  0.00  0.00    -0.050 A 
ATOM     14  H7  234 d   1      21.945  32.025  21.860  0.00  0.00     0.083 H 
ATOM     15  C36 234 d   1      22.700  28.669  22.072  0.00  0.00     0.084 A 
ATOM     16  H8  234 d   1      20.878  29.821  22.324  0.00  0.00     0.087 H 
ATOM     17  C37 234 d   1      24.111  28.708  21.778  0.00  0.00     0.105 A 
BRANCH  15  18
ATOM     18  O14 234 d   1      22.009  27.492  22.347  0.00  0.00    -0.360 OA
ATOM     19  H12 234 d   1      22.386  27.076  23.114  0.00  0.00     0.217 HD
ENDBRANCH  15  18
BRANCH  17  20
ATOM     20  C38 234 d   1      24.870  27.420  21.767  0.00  0.00     0.298 C 
ATOM     21  O11 234 d   1      24.934  26.728  22.766  0.00  0.00    -0.259 OA
BRANCH  20  22
ATOM     22  O4  234 d   1      25.460  27.098  20.602  0.00  0.00    -0.322 OA
BRANCH  22  23
ATOM     23  C39 234 d   1      26.211  25.866  20.531  0.00  0.00     0.013 C 
ATOM     24  H9  234 d   1      26.628  25.748  19.520  0.00  0.00     0.067 H 
ATOM     25  H10 234 d   1      25.547  25.018  20.755  0.00  0.00     0.067 H 
ATOM     26  H11 234 d   1      27.030  25.893  21.264  0.00  0.00     0.067 H 
ENDBRANCH  22  23
ENDBRANCH  20  22
ENDBRANCH  17  20
ENDBRANCH   8   9
ENDBRANCH   5   8
ENDBRANCH   2   5
BRANCH   1  27
ATOM     27  C4  234 d   1      30.274  31.334  18.952  0.00  0.00    -0.035 A 
ATOM     28  C3  234 d   1      31.114  30.620  19.843  0.00  0.00    -0.057 A 
ATOM     29  C2  234 d   1      32.506  30.481  19.609  0.00  0.00     0.039 A 
ATOM     30  H1  234 d   1      30.680  30.168  20.728  0.00  0.00     0.086 H 
ATOM     31  C1  234 d   1      33.046  31.094  18.433  0.00  0.00     0.129 A 
ATOM     32  C6  234 d   1      32.225  31.812  17.526  0.00  0.00    -0.044 A 
ATOM     33  F1  234 d   1      34.352  31.014  18.142  0.00  0.00    -0.205 F 
ATOM     34  C5  234 d   1      30.839  31.926  17.792  0.00  0.00    -0.070 A 
ATOM     35  H3  234 d   1      32.653  32.268  16.640  0.00  0.00     0.088 H 
ATOM     36  H2  234 d   1      30.203  32.471  17.103  0.00  0.00     0.084 H 
BRANCH  29  37
ATOM     37  C7  234 d   1      33.294  29.705  20.623  0.00  0.00     0.117 A 
ATOM     38  O12 234 d   1      32.689  29.167  21.747  0.00  0.00    -0.212 OA
ATOM     39  N13 234 d   1      33.709  28.520  22.477  0.00  0.00    -0.121 NA
ATOM     40  C14 234 d   1      34.887  28.661  21.814  0.00  0.00     0.163 A 
ATOM     41  C15 234 d   1      34.619  29.433  20.605  0.00  0.00    -0.011 A 
ATOM     42  H4  234 d   1      35.339  29.730  19.844  0.00  0.00     0.092 H 
BRANCH  40  43
ATOM     43  C16 234 d   1      36.254  28.126  22.225  0.00  0.00     0.231 C 
ATOM     44  O1  234 d   1      37.224  28.872  22.225  0.00  0.00    -0.643 OA
ATOM     45  O2  234 d   1      36.288  26.800  22.580  0.00  0.00    -0.643 OA
ENDBRANCH  40  43
ENDBRANCH  29  37
ENDBRANCH   1  27
TORSDOF 10
