REMARK  15 active torsions:
REMARK  status: ('A' for Active; 'I' for Inactive)
REMARK    1  A    between atoms: C1_1  and  C2_2 
REMARK    2  A    between atoms: C1_1  and  C3_6 
REMARK       I    between atoms: C2_2  and  N1_4 
REMARK    3  A    between atoms: N1_4  and  O2_5 
REMARK    4  A    between atoms: C3_6  and  C4_7 
REMARK    5  A    between atoms: C3_6  and  C5_9 
REMARK       I    between atoms: C4_7  and  N2_14 
REMARK    6  A    between atoms: C5_9  and  C6_10 
REMARK    7  A    between atoms: C6_10  and  C7_11 
REMARK    8  A    between atoms: C7_11  and  C8_12 
REMARK    9  A    between atoms: C8_12  and  C9_13 
REMARK   10  A    between atoms: N2_14  and  C10_15 
REMARK   11  A    between atoms: C10_15  and  C11_16 
REMARK   12  A    between atoms: C10_15  and  C14_19 
REMARK   13  A    between atoms: C11_16  and  C12_17 
REMARK   14  A    between atoms: C11_16  and  C13_18 
REMARK       I    between atoms: C14_19  and  N3_21 
REMARK   15  A    between atoms: C15_22  and  C19_26 
ROOT
ATOM      1  C4  BB2 d   1     -16.795 144.809  45.677  0.00  0.00     0.223 C 
ATOM      2  O3  BB2 d   1     -15.645 145.196  45.410  0.00  0.00    -0.273 OA
ATOM      3  N2  BB2 d   1     -17.604 145.382  46.574  0.00  0.00    -0.347 N 
ATOM      4  H17 BB2 d   1     -18.491 144.945  46.723  0.00  0.00     0.163 HD
ENDROOT
BRANCH   3   5
ATOM      5  C10 BB2 d   1     -17.324 146.582  47.359  0.00  0.00     0.092 C 
ATOM      6  H18 BB2 d   1     -16.683 147.213  46.725  0.00  0.00     0.088 H 
BRANCH   5   7
ATOM      7  C11 BB2 d   1     -18.618 147.393  47.581  0.00  0.00    -0.033 C 
ATOM      8  H19 BB2 d   1     -19.247 146.655  48.100  0.00  0.00     0.042 H 
BRANCH   7   9
ATOM      9  C12 BB2 d   1     -19.422 147.703  46.322  0.00  0.00    -0.071 C 
ATOM     10  H20 BB2 d   1     -20.318 148.281  46.592  0.00  0.00     0.028 H 
ATOM     11  H21 BB2 d   1     -19.724 146.762  45.839  0.00  0.00     0.028 H 
ATOM     12  H22 BB2 d   1     -18.803 148.290  45.627  0.00  0.00     0.028 H 
ENDBRANCH   7   9
BRANCH   7  13
ATOM     13  C13 BB2 d   1     -18.637 148.575  48.562  0.00  0.00    -0.071 C 
ATOM     14  H23 BB2 d   1     -18.050 148.319  49.456  0.00  0.00     0.028 H 
ATOM     15  H24 BB2 d   1     -19.675 148.792  48.855  0.00  0.00     0.028 H 
ATOM     16  H25 BB2 d   1     -18.200 149.461  48.078  0.00  0.00     0.028 H 
ENDBRANCH   7  13
ENDBRANCH   5   7
BRANCH   5  17
ATOM     17  C14 BB2 d   1     -16.497 146.322  48.623  0.00  0.00     0.243 C 
ATOM     18  O4  BB2 d   1     -17.043 145.603  49.469  0.00  0.00    -0.271 OA
ATOM     19  N3  BB2 d   1     -15.331 147.002  48.830  0.00  0.00    -0.336 N 
ATOM     20  C15 BB2 d   1     -14.545 147.091  50.071  0.00  0.00     0.098 A 
ATOM     21  C16 BB2 d   1     -14.633 147.774  47.771  0.00  0.00    -0.001 A 
ATOM     22  C18 BB2 d   1     -13.287 147.919  49.792  0.00  0.00    -0.035 A 
ATOM     23  H26 BB2 d   1     -14.259 146.071  50.367  0.00  0.00     0.089 H 
ATOM     24  C17 BB2 d   1     -13.366 148.346  48.363  0.00  0.00    -0.048 A 
ATOM     25  H31 BB2 d   1     -12.387 147.309  49.957  0.00  0.00     0.036 H 
ATOM     26  H32 BB2 d   1     -13.258 148.800  50.450  0.00  0.00     0.036 H 
ATOM     27  H29 BB2 d   1     -13.389 149.444  48.303  0.00  0.00     0.035 H 
ATOM     28  H30 BB2 d   1     -12.493 147.967  47.812  0.00  0.00     0.035 H 
ATOM     29  H27 BB2 d   1     -15.280 148.590  47.417  0.00  0.00     0.064 H 
ATOM     30  H28 BB2 d   1     -14.385 147.111  46.929  0.00  0.00     0.064 H 
BRANCH  20  31
ATOM     31  C19 BB2 d   1     -15.265 147.754  51.256  0.00  0.00     0.196 C 
ATOM     32  O5  BB2 d   1     -15.983 148.778  51.100  0.00  0.00    -0.646 OA
ATOM     33  O   BB2 d   1     -15.135 147.263  52.409  0.00  0.00    -0.646 OA
ENDBRANCH  20  31
ENDBRANCH   5  17
ENDBRANCH   3   5
BRANCH   1  34
ATOM     34  C3  BB2 d   1     -17.486 143.649  44.931  0.00  0.00     0.032 C 
ATOM     35  H5  BB2 d   1     -18.444 143.421  45.422  0.00  0.00     0.055 H 
BRANCH  34  36
ATOM     36  C1  BB2 d   1     -17.727 144.248  43.513  0.00  0.00     0.022 C 
ATOM     37  H1  BB2 d   1     -18.189 145.238  43.639  0.00  0.00     0.048 H 
ATOM     38  H2  BB2 d   1     -16.748 144.359  43.023  0.00  0.00     0.048 H 
BRANCH  36  39
ATOM     39  C2  BB2 d   1     -18.620 143.431  42.592  0.00  0.00     0.241 C 
ATOM     40  O1  BB2 d   1     -19.820 143.699  42.552  0.00  0.00    -0.271 OA
ATOM     41  N1  BB2 d   1     -18.037 142.438  41.915  0.00  0.00    -0.237 N 
ATOM     42  H3  BB2 d   1     -17.050 142.310  42.013  0.00  0.00     0.197 HD
BRANCH  41  43
ATOM     43  O2  BB2 d   1     -18.680 141.645  41.149  0.00  0.00    -0.287 OA
ATOM     44  H4  BB2 d   1     -18.078 141.017  40.768  0.00  0.00     0.244 HD
ENDBRANCH  41  43
ENDBRANCH  36  39
ENDBRANCH  34  36
BRANCH  34  45
ATOM     45  C5  BB2 d   1     -16.681 142.331  44.823  0.00  0.00    -0.053 C 
ATOM     46  H6  BB2 d   1     -16.230 142.369  43.821  0.00  0.00     0.034 H 
ATOM     47  H7  BB2 d   1     -17.446 141.542  44.851  0.00  0.00     0.034 H 
BRANCH  45  48
ATOM     48  C6  BB2 d   1     -15.558 141.803  45.725  0.00  0.00    -0.064 C 
ATOM     49  H8  BB2 d   1     -14.729 142.526  45.711  0.00  0.00     0.033 H 
ATOM     50  H9  BB2 d   1     -15.211 140.839  45.323  0.00  0.00     0.033 H 
BRANCH  48  51
ATOM     51  C7  BB2 d   1     -15.996 141.595  47.176  0.00  0.00    -0.065 C 
ATOM     52  H10 BB2 d   1     -16.770 142.349  47.382  0.00  0.00     0.033 H 
ATOM     53  H11 BB2 d   1     -15.114 141.794  47.802  0.00  0.00     0.033 H 
BRANCH  51  54
ATOM     54  C8  BB2 d   1     -16.563 140.251  47.635  0.00  0.00    -0.069 C 
ATOM     55  H12 BB2 d   1     -15.813 139.484  47.389  0.00  0.00     0.032 H 
ATOM     56  H13 BB2 d   1     -17.477 140.071  47.051  0.00  0.00     0.032 H 
BRANCH  54  57
ATOM     57  C9  BB2 d   1     -16.928 140.064  49.105  0.00  0.00    -0.077 C 
ATOM     58  H14 BB2 d   1     -17.318 139.047  49.260  0.00  0.00     0.027 H 
ATOM     59  H15 BB2 d   1     -17.697 140.798  49.388  0.00  0.00     0.027 H 
ATOM     60  H16 BB2 d   1     -16.033 140.212  49.727  0.00  0.00     0.027 H 
ENDBRANCH  54  57
ENDBRANCH  51  54
ENDBRANCH  48  51
ENDBRANCH  45  48
ENDBRANCH  34  45
ENDBRANCH   1  34
TORSDOF 15
