REMARK  7 active torsions:
REMARK  status: ('A' for Active; 'I' for Inactive)
REMARK    1  A    between atoms: N6_6  and  C24_24 
REMARK    2  A    between atoms: N9_9  and  C28_28 
REMARK    3  A    between atoms: C24_24  and  C35_35 
REMARK    4  A    between atoms: C25_25  and  O33_33 
REMARK    5  A    between atoms: C26_26  and  N31_31 
REMARK    6  A    between atoms: N31_31  and  C32_32 
REMARK    7  A    between atoms: O33_33  and  C34_34 
ROOT
ATOM      1  C24 STU d   1      39.010   7.613  30.195  0.00  0.00     0.168 C 
ATOM      2  C25 STU d   1      38.021   6.351  30.368  0.00  0.00     0.113 C 
ATOM      3  C26 STU d   1      38.577   4.994  29.784  0.00  0.00     0.134 C 
ATOM      4  C27 STU d   1      39.957   4.765  30.436  0.00  0.00     0.005 C 
ATOM      5  C28 STU d   1      40.783   6.030  30.800  0.00  0.00     0.115 C 
ATOM      6  O29 STU d   1      40.426   7.211  30.121  0.00  0.00    -0.333 OA
ATOM      7  H12 STU d   1      37.039   6.581  29.930  0.00  0.00     0.094 H 
ATOM      8  H13 STU d   1      38.735   5.110  28.702  0.00  0.00     0.088 H 
ATOM      9  H14 STU d   1      40.559   4.165  29.737  0.00  0.00     0.042 H 
ATOM     10  H15 STU d   1      39.796   4.196  31.363  0.00  0.00     0.042 H 
ATOM     11  H16 STU d   1      41.784   5.776  30.420  0.00  0.00     0.118 H 
ENDROOT
BRANCH   3  12
ATOM     12  N31 STU d   1      37.572   3.909  29.963  0.00  0.00    -0.072 N 
ATOM     13  H17 STU d   1      37.161   4.014  30.877  0.00  0.00     0.277 HD
ATOM     14  H18 STU d   1      38.055   3.026  29.911  0.00  0.00     0.277 HD
BRANCH  12  15
ATOM     15  C32 STU d   1      36.464   3.888  28.958  0.00  0.00     0.065 C 
ATOM     16  H19 STU d   1      35.783   3.054  29.181  0.00  0.00     0.067 H 
ATOM     17  H20 STU d   1      36.885   3.758  27.950  0.00  0.00     0.067 H 
ATOM     18  H21 STU d   1      35.909   4.837  29.004  0.00  0.00     0.067 H 
ENDBRANCH  12  15
ENDBRANCH   3  12
BRANCH   2  19
ATOM     19  O33 STU d   1      37.940   6.106  31.804  0.00  0.00    -0.384 OA
BRANCH  19  20
ATOM     20  C34 STU d   1      36.665   6.372  32.441  0.00  0.00     0.005 C 
ATOM     21  H22 STU d   1      36.738   6.148  33.516  0.00  0.00     0.066 H 
ATOM     22  H23 STU d   1      35.889   5.739  31.987  0.00  0.00     0.066 H 
ATOM     23  H24 STU d   1      36.401   7.431  32.304  0.00  0.00     0.066 H 
ENDBRANCH  19  20
ENDBRANCH   2  19
BRANCH   1  24
ATOM     24  N6  STU d   1      38.881   8.589  31.347  0.00  0.00    -0.308 N 
ATOM     25  C5  STU d   1      38.011   9.698  31.495  0.00  0.00     0.049 A 
ATOM     26  C4  STU d   1      37.032  10.300  30.610  0.00  0.00    -0.056 A 
ATOM     27  C23 STU d   1      38.189  10.233  32.820  0.00  0.00     0.004 A 
ATOM     28  C3  STU d   1      36.281  11.404  31.073  0.00  0.00    -0.081 A 
ATOM     29  H4  STU d   1      36.879   9.910  29.610  0.00  0.00     0.087 H 
ATOM     30  C2  STU d   1      36.469  11.942  32.400  0.00  0.00    -0.082 A 
ATOM     31  H3  STU d   1      35.547  11.857  30.417  0.00  0.00     0.083 H 
ATOM     32  C1  STU d   1      37.411  11.374  33.276  0.00  0.00    -0.070 A 
ATOM     33  H2  STU d   1      35.879  12.791  32.724  0.00  0.00     0.083 H 
ATOM     34  H1  STU d   1      37.554  11.779  34.271  0.00  0.00     0.084 H 
ATOM     35  C22 STU d   1      39.158   9.425  33.473  0.00  0.00     0.015 A 
ATOM     36  C7  STU d   1      39.563   8.454  32.541  0.00  0.00     0.077 A 
ATOM     37  C21 STU d   1      39.669   9.381  34.788  0.00  0.00    -0.010 C 
ATOM     38  C8  STU d   1      40.500   7.429  32.949  0.00  0.00     0.077 A 
ATOM     39  N9  STU d   1      41.017   6.389  32.205  0.00  0.00    -0.316 N 
ATOM     40  C16 STU d   1      41.008   7.375  34.262  0.00  0.00     0.022 A 
ATOM     41  C10 STU d   1      41.863   5.653  33.038  0.00  0.00     0.048 A 
ATOM     42  C11 STU d   1      42.652   4.493  32.649  0.00  0.00    -0.056 A 
ATOM     43  C15 STU d   1      41.870   6.241  34.330  0.00  0.00     0.004 A 
ATOM     44  C12 STU d   1      43.449   3.995  33.714  0.00  0.00    -0.081 A 
ATOM     45  H5  STU d   1      42.633   4.058  31.657  0.00  0.00     0.087 H 
ATOM     46  C13 STU d   1      43.470   4.560  35.016  0.00  0.00    -0.082 A 
ATOM     47  H6  STU d   1      44.078   3.133  33.521  0.00  0.00     0.083 H 
ATOM     48  C14 STU d   1      42.694   5.688  35.384  0.00  0.00    -0.070 A 
ATOM     49  H7  STU d   1      44.110   4.107  35.765  0.00  0.00     0.083 H 
ATOM     50  H8  STU d   1      42.716   6.107  36.384  0.00  0.00     0.084 H 
ATOM     51  C17 STU d   1      40.575   8.386  35.190  0.00  0.00     0.054 C 
ATOM     52  C18 STU d   1      40.955   8.658  36.592  0.00  0.00     0.253 C 
ATOM     53  N19 STU d   1      40.149   9.671  37.011  0.00  0.00    -0.353 N 
ATOM     54  O30 STU d   1      41.868   8.092  37.251  0.00  0.00    -0.268 OA
ATOM     55  C20 STU d   1      39.386  10.277  35.972  0.00  0.00     0.021 C 
ATOM     56  H9  STU d   1      40.097   9.965  37.965  0.00  0.00     0.163 HD
ATOM     57  H10 STU d   1      39.723  11.306  35.780  0.00  0.00     0.071 H 
ATOM     58  H11 STU d   1      38.314  10.282  36.218  0.00  0.00     0.071 H 
ENDBRANCH   1  24
BRANCH   1  59
ATOM     59  C35 STU d   1      38.830   8.206  28.775  0.00  0.00    -0.028 C 
ATOM     60  H25 STU d   1      38.945   7.408  28.027  0.00  0.00     0.034 H 
ATOM     61  H26 STU d   1      39.590   8.982  28.603  0.00  0.00     0.034 H 
ATOM     62  H27 STU d   1      37.827   8.649  28.687  0.00  0.00     0.034 H 
ENDBRANCH   1  59
TORSDOF 7
