REMARK  1 active torsions:
REMARK  status: ('A' for Active; 'I' for Inactive)
REMARK    1  A    between atoms: C18_18  and  N20_20 
ROOT
ATOM      1  N1  ATU d   1      24.166 -19.574   7.262  0.00  0.00    -0.326 N 
ATOM      2  C2  ATU d   1      22.812 -19.535   7.167  0.00  0.00     0.226 C 
ATOM      3  C3  ATU d   1      21.955 -19.223   8.387  0.00  0.00     0.036 C 
ATOM      4  O4  ATU d   1      22.248 -19.730   6.092  0.00  0.00    -0.273 OA
ATOM      5  C5  ATU d   1      24.884 -18.163   9.183  0.00  0.00     0.018 A 
ATOM      6  C6  ATU d   1      25.121 -19.057   8.057  0.00  0.00     0.047 A 
ATOM      7  C7  ATU d   1      26.399 -19.717   7.956  0.00  0.00    -0.056 A 
ATOM      8  C8  ATU d   1      27.428 -19.510   8.934  0.00  0.00    -0.081 A 
ATOM      9  C9  ATU d   1      27.189 -18.623  10.050  0.00  0.00    -0.082 A 
ATOM     10  C10 ATU d   1      25.924 -17.959  10.164  0.00  0.00    -0.069 A 
ATOM     11  N11 ATU d   1      23.450 -16.227   9.956  0.00  0.00    -0.354 N 
ATOM     12  C12 ATU d   1      22.305 -17.956   9.165  0.00  0.00    -0.009 A 
ATOM     13  C13 ATU d   1      23.673 -17.484   9.389  0.00  0.00     0.053 A 
ATOM     14  C14 ATU d   1      21.291 -16.933   9.499  0.00  0.00     0.002 A 
ATOM     15  C15 ATU d   1      22.112 -15.770  10.039  0.00  0.00     0.043 A 
ATOM     16  C16 ATU d   1      21.435 -14.580  10.468  0.00  0.00    -0.054 A 
ATOM     17  C17 ATU d   1      20.009 -14.498  10.386  0.00  0.00    -0.049 A 
ATOM     18  C18 ATU d   1      19.220 -15.595   9.875  0.00  0.00     0.103 A 
ATOM     19  C19 ATU d   1      19.873 -16.806   9.437  0.00  0.00    -0.038 A 
ATOM     20  H1  ATU d   1      24.563 -20.144   6.543  0.00  0.00     0.169 HD
ATOM     21  H2  ATU d   1      22.039 -20.073   9.080  0.00  0.00     0.054 H 
ATOM     22  H3  ATU d   1      20.913 -19.128   8.047  0.00  0.00     0.054 H 
ATOM     23  H4  ATU d   1      26.586 -20.384   7.123  0.00  0.00     0.086 H 
ATOM     24  H5  ATU d   1      28.381 -20.017   8.836  0.00  0.00     0.083 H 
ATOM     25  H6  ATU d   1      27.960 -18.461  10.794  0.00  0.00     0.083 H 
ATOM     26  H7  ATU d   1      25.745 -17.293  11.000  0.00  0.00     0.085 H 
ATOM     27  H8  ATU d   1      24.232 -15.652  10.302  0.00  0.00     0.166 HD
ATOM     28  H9  ATU d   1      22.004 -13.742  10.854  0.00  0.00     0.087 H 
ATOM     29  H10 ATU d   1      19.510 -13.593  10.714  0.00  0.00     0.087 H 
ATOM     30  H11 ATU d   1      19.278 -17.628   9.057  0.00  0.00     0.088 H 
ENDROOT
BRANCH  18  31
ATOM     31  N20 ATU d   1      17.725 -15.484   9.796  0.00  0.00    -0.116 N 
ATOM     32  O21 ATU d   1      17.134 -14.482  10.154  0.00  0.00    -0.532 OA
ATOM     33  O22 ATU d   1      17.059 -16.397   9.368  0.00  0.00    -0.532 OA
ENDBRANCH  18  31
TORSDOF 1
