REMARK  1 active torsions:
REMARK  status: ('A' for Active; 'I' for Inactive)
REMARK    1  A    between atoms: N24_20  and  O39_21 
ROOT
ATOM      1  C1  IXM d   1      40.306   3.918  35.381  0.00  0.00     0.024 A 
ATOM      2  C2  IXM d   1      39.689   5.274  35.224  0.00  0.00     0.124 A 
ATOM      3  C3  IXM d   1      40.821   3.877  36.699  0.00  0.00     0.045 A 
ATOM      4  N4  IXM d   1      40.596   5.055  37.347  0.00  0.00    -0.353 N 
ATOM      5  C5  IXM d   1      41.470   2.735  37.209  0.00  0.00    -0.056 A 
ATOM      6  C7  IXM d   1      41.614   1.606  36.362  0.00  0.00    -0.081 A 
ATOM      7  C9  IXM d   1      41.102   1.640  35.027  0.00  0.00    -0.082 A 
ATOM      8  C11 IXM d   1      40.437   2.806  34.523  0.00  0.00    -0.068 A 
ATOM      9  C13 IXM d   1      39.939   5.973  36.556  0.00  0.00     0.081 A 
ATOM     10  C14 IXM d   1      39.592   7.234  36.934  0.00  0.00     0.073 A 
ATOM     11  C15 IXM d   1      40.117   7.736  38.276  0.00  0.00     0.259 A 
ATOM     12  N16 IXM d   1      39.588   9.009  38.435  0.00  0.00    -0.322 N 
ATOM     13  C17 IXM d   1      38.798   9.372  37.355  0.00  0.00     0.046 A 
ATOM     14  C18 IXM d   1      38.752   8.333  36.387  0.00  0.00     0.009 A 
ATOM     15  C19 IXM d   1      38.110  10.598  37.215  0.00  0.00    -0.056 A 
ATOM     16  C20 IXM d   1      37.333  10.792  36.048  0.00  0.00    -0.081 A 
ATOM     17  C21 IXM d   1      37.264   9.769  35.052  0.00  0.00    -0.082 A 
ATOM     18  C22 IXM d   1      37.978   8.536  35.221  0.00  0.00    -0.070 A 
ATOM     19  O23 IXM d   1      40.847   7.149  39.076  0.00  0.00    -0.267 OA
ATOM     20  N24 IXM d   1      39.040   5.805  34.233  0.00  0.00    -0.133 NA
ATOM     21  H1  IXM d   1      40.885   5.239  38.319  0.00  0.00     0.166 HD
ATOM     22  H2  IXM d   1      41.850   2.720  38.224  0.00  0.00     0.086 H 
ATOM     23  H3  IXM d   1      42.113   0.716  36.727  0.00  0.00     0.083 H 
ATOM     24  H4  IXM d   1      41.218   0.772  34.388  0.00  0.00     0.083 H 
ATOM     25  H5  IXM d   1      40.046   2.832  33.512  0.00  0.00     0.085 H 
ATOM     26  H6  IXM d   1      39.756   9.592  39.230  0.00  0.00     0.169 HD
ATOM     27  H7  IXM d   1      38.175  11.366  37.977  0.00  0.00     0.086 H 
ATOM     28  H8  IXM d   1      36.789  11.719  35.909  0.00  0.00     0.083 H 
ATOM     29  H9  IXM d   1      36.667   9.926  34.161  0.00  0.00     0.083 H 
ATOM     30  H10 IXM d   1      37.925   7.766  34.460  0.00  0.00     0.084 H 
ENDROOT
BRANCH  20  31
ATOM     31  O39 IXM d   1      38.883   5.011  33.096  0.00  0.00    -0.266 OA
ATOM     32  H11 IXM d   1      38.407   4.221  33.326  0.00  0.00     0.247 HD
ENDBRANCH  20  31
TORSDOF 1
