REMARK  28 active torsions:
REMARK  status: ('A' for Active; 'I' for Inactive)
REMARK    1  A    between atoms: CA_2  and  N_1 
REMARK    2  A    between atoms: CA_2  and  CB_5 
REMARK    3  A    between atoms: C_3  and  CA_2 
REMARK       I    between atoms: N_9  and  C_3 
REMARK    4  A    between atoms: CB_5  and  CG_6 
REMARK    5  A    between atoms: CG_6  and  SD_7 
REMARK    6  A    between atoms: SD_7  and  CE_8 
REMARK    7  A    between atoms: CA_10  and  N_9 
REMARK    8  A    between atoms: CA_10  and  CB_13 
REMARK    9  A    between atoms: C_11  and  CA_10 
REMARK       I    between atoms: N_18  and  C_11 
REMARK   10  A    between atoms: CB_13  and  CG_14 
REMARK   11  A    between atoms: CG_14  and  CD_15 
REMARK       I    between atoms: CD_15  and  NE2_17 
REMARK   12  A    between atoms: CA_19  and  N_18 
REMARK   13  A    between atoms: CA_19  and  CB_22 
REMARK   14  A    between atoms: C_20  and  CA_19 
REMARK       I    between atoms: N_24  and  C_20 
REMARK   15  A    between atoms: CB_22  and  OG_23 
REMARK   16  A    between atoms: CA_25  and  N_24 
REMARK   17  A    between atoms: CA_25  and  CB_26 
REMARK   18  A    between atoms: C_33  and  CA_25 
REMARK   19  A    between atoms: CB_26  and  CG2_27 
REMARK   20  A    between atoms: CB_26  and  OG1_28 
REMARK   21  A    between atoms: OG1_28  and  P_29 
REMARK   22  A    between atoms: CA_36  and  C_37 
REMARK       I    between atoms: C_37  and  N_42 
REMARK   23  A    between atoms: N_42  and  CA_43 
REMARK   24  A    between atoms: CA_43  and  CB_46 
REMARK   25  A    between atoms: CA_43  and  C_44 
REMARK   26  A    between atoms: CB_46  and  CG_47 
REMARK   27  A    between atoms: CG_47  and  CD1_48 
REMARK   28  A    between atoms: CG_47  and  CD2_49 
ROOT
ATOM      1  C   NON d   1      29.557   9.686 -40.190  0.00  0.00     0.243 C 
ATOM      2  O   NON d   1      30.187  10.128 -41.147  0.00  0.00    -0.271 OA
ATOM      3  N   NON d   1      28.364  10.155 -39.827  0.00  0.00    -0.345 N 
ATOM      4  H25 NON d   1      27.973   9.825 -38.968  0.00  0.00     0.163 HD
ENDROOT
BRANCH   3   5
ATOM      5  CA  NON d   1      27.594  11.118 -40.603  0.00  0.00     0.102 C 
ATOM      6  H26 NON d   1      27.393  10.706 -41.603  0.00  0.00     0.089 H 
BRANCH   5   7
ATOM      7  CB  NON d   1      26.288  11.214 -39.817  0.00  0.00     0.075 C 
ATOM      8  H27 NON d   1      26.501  11.620 -38.817  0.00  0.00     0.087 H 
BRANCH   7   9
ATOM      9  CG2 NON d   1      25.291  12.137 -40.497  0.00  0.00    -0.049 C 
ATOM     10  H28 NON d   1      24.366  12.180 -39.903  0.00  0.00     0.031 H 
ATOM     11  H29 NON d   1      25.063  11.754 -41.502  0.00  0.00     0.031 H 
ATOM     12  H30 NON d   1      25.722  13.146 -40.578  0.00  0.00     0.031 H 
ENDBRANCH   7   9
BRANCH   7  13
ATOM     13  OG1 NON d   1      25.777   9.878 -39.677  0.00  0.00    -0.275 OA
BRANCH  13  14
ATOM     14  P   NON d   1      25.175   9.232 -38.317  0.00  0.00     0.422 P 
ATOM     15  O1P NON d   1      24.476  10.558 -37.541  0.00  0.00    -0.617 OA
ATOM     16  O2P NON d   1      26.805   8.913 -38.028  0.00  0.00    -0.617 OA
ATOM     17  O3P NON d   1      24.245   8.058 -39.080  0.00  0.00    -0.617 OA
ENDBRANCH  13  14
ENDBRANCH   7  13
ENDBRANCH   5   7
BRANCH   5  18
ATOM     18  C   NON d   1      28.295  12.473 -40.799  0.00  0.00     0.179 C 
ATOM     19  O   NON d   1      28.713  13.082 -39.591  0.00  0.00    -0.175 OA
ATOM     20  N   NON d   1      28.468  13.007 -42.023  0.00  0.00    -0.348 N 
ATOM     21  CA  NON d   1      29.175  14.293 -42.239  0.00  0.00     0.091 C 
ATOM     22  CD  NON d   1      28.030  12.421 -43.307  0.00  0.00    -0.002 C 
ATOM     23  CB  NON d   1      29.438  14.294 -43.748  0.00  0.00    -0.036 C 
ATOM     24  H31 NON d   1      30.122  14.290 -41.679  0.00  0.00     0.087 H 
ATOM     25  CG  NON d   1      28.302  13.505 -44.321  0.00  0.00    -0.048 C 
ATOM     26  H32 NON d   1      30.401  13.813 -43.976  0.00  0.00     0.036 H 
ATOM     27  H33 NON d   1      29.438  15.321 -44.143  0.00  0.00     0.036 H 
ATOM     28  H34 NON d   1      27.416  14.143 -44.453  0.00  0.00     0.035 H 
ATOM     29  H35 NON d   1      28.585  13.067 -45.289  0.00  0.00     0.035 H 
ATOM     30  H36 NON d   1      26.958  12.174 -43.278  0.00  0.00     0.064 H 
ATOM     31  H37 NON d   1      28.609  11.515 -43.540  0.00  0.00     0.064 H 
BRANCH  21  32
ATOM     32  C   NON d   1      28.392  15.549 -41.847  0.00  0.00     0.241 C 
ATOM     33  O   NON d   1      27.174  15.501 -41.677  0.00  0.00    -0.271 OA
ATOM     34  N   NON d   1      29.111  16.659 -41.693  0.00  0.00    -0.345 N 
ATOM     35  H38 NON d   1      30.099  16.612 -41.840  0.00  0.00     0.163 HD
BRANCH  34  36
ATOM     36  CA  NON d   1      28.522  17.943 -41.319  0.00  0.00     0.096 C 
ATOM     37  H39 NON d   1      27.909  17.788 -40.419  0.00  0.00     0.089 H 
BRANCH  36  38
ATOM     38  CB  NON d   1      29.624  18.967 -40.992  0.00  0.00    -0.034 C 
ATOM     39  H40 NON d   1      29.148  19.956 -40.922  0.00  0.00     0.037 H 
ATOM     40  H41 NON d   1      30.340  18.963 -41.827  0.00  0.00     0.037 H 
BRANCH  38  41
ATOM     41  CG  NON d   1      30.416  18.742 -39.703  0.00  0.00    -0.059 C 
ATOM     42  H42 NON d   1      30.612  17.663 -39.617  0.00  0.00     0.038 H 
BRANCH  41  43
ATOM     43  CD1 NON d   1      31.754  19.462 -39.757  0.00  0.00    -0.073 C 
ATOM     44  H43 NON d   1      32.303  19.285 -38.821  0.00  0.00     0.028 H 
ATOM     45  H44 NON d   1      31.585  20.541 -39.885  0.00  0.00     0.028 H 
ATOM     46  H45 NON d   1      32.342  19.080 -40.605  0.00  0.00     0.028 H 
ENDBRANCH  41  43
BRANCH  41  47
ATOM     47  CD2 NON d   1      29.639  19.175 -38.462  0.00  0.00    -0.073 C 
ATOM     48  H46 NON d   1      28.673  18.649 -38.432  0.00  0.00     0.028 H 
ATOM     49  H47 NON d   1      29.464  20.260 -38.499  0.00  0.00     0.028 H 
ATOM     50  H48 NON d   1      30.220  18.927 -37.561  0.00  0.00     0.028 H 
ENDBRANCH  41  47
ENDBRANCH  38  41
ENDBRANCH  36  38
BRANCH  36  51
ATOM     51  C   NON d   1      27.619  18.509 -42.428  0.00  0.00     0.196 C 
ATOM     52  O   NON d   1      27.055  17.766 -43.236  0.00  0.00    -0.646 OA
ATOM     53  O1  NON d   1      27.452  19.755 -42.513  0.00  0.00    -0.646 OA
ENDBRANCH  36  51
ENDBRANCH  34  36
ENDBRANCH  21  32
ENDBRANCH   5  18
ENDBRANCH   3   5
BRANCH   1  54
ATOM     54  CA  NON d   1      30.150   8.525 -39.373  0.00  0.00     0.109 C 
ATOM     55  H21 NON d   1      29.494   7.648 -39.475  0.00  0.00     0.090 H 
BRANCH  54  56
ATOM     56  N   NON d   1      31.425   8.244 -39.989  0.00  0.00    -0.344 N 
ATOM     57  C   NON d   1      31.492   7.626 -41.163  0.00  0.00     0.241 C 
ATOM     58  O   NON d   1      30.495   7.322 -41.811  0.00  0.00    -0.271 OA
ATOM     59  H20 NON d   1      32.268   8.518 -39.526  0.00  0.00     0.163 HD
BRANCH  57  60
ATOM     60  CA  NON d   1      32.892   7.339 -41.709  0.00  0.00     0.090 C 
ATOM     61  H13 NON d   1      33.545   7.017 -40.884  0.00  0.00     0.087 H 
BRANCH  60  62
ATOM     62  N   NON d   1      32.835   6.274 -42.713  0.00  0.00    -0.346 N 
ATOM     63  C   NON d   1      33.766   5.334 -42.830  0.00  0.00     0.249 C 
ATOM     64  O   NON d   1      34.706   5.224 -42.054  0.00  0.00    -0.271 OA
ATOM     65  H12 NON d   1      32.057   6.254 -43.341  0.00  0.00     0.163 HD
BRANCH  63  66
ATOM     66  CA  NON d   1      33.601   4.352 -43.992  0.00  0.00     0.176 C 
ATOM     67  H4  NON d   1      33.076   4.851 -44.820  0.00  0.00     0.099 H 
BRANCH  66  68
ATOM     68  N   NON d   1      34.938   3.868 -44.476  0.00  0.00    -0.066 N 
ATOM     69  H1  NON d   1      34.806   3.224 -45.240  0.00  0.00     0.275 HD
ATOM     70  H2  NON d   1      35.419   3.402 -43.723  0.00  0.00     0.275 HD
ATOM     71  H3  NON d   1      35.486   4.654 -44.790  0.00  0.00     0.275 HD
ENDBRANCH  66  68
BRANCH  66  72
ATOM     72  CB  NON d   1      32.779   3.172 -43.503  0.00  0.00    -0.022 C 
ATOM     73  H5  NON d   1      32.058   3.549 -42.763  0.00  0.00     0.037 H 
ATOM     74  H6  NON d   1      33.465   2.462 -43.018  0.00  0.00     0.037 H 
BRANCH  72  75
ATOM     75  CG  NON d   1      32.011   2.423 -44.550  0.00  0.00    -0.021 C 
ATOM     76  H7  NON d   1      32.671   1.698 -45.049  0.00  0.00     0.049 H 
ATOM     77  H8  NON d   1      31.611   3.127 -45.294  0.00  0.00     0.049 H 
BRANCH  75  78
ATOM     78  SD  NON d   1      30.648   1.552 -43.734  0.00  0.00    -0.173 SA
BRANCH  78  79
ATOM     79  CE  NON d   1      29.455   2.919 -43.518  0.00  0.00    -0.035 C 
ATOM     80  H9  NON d   1      28.549   2.540 -43.022  0.00  0.00     0.041 H 
ATOM     81  H10 NON d   1      29.189   3.332 -44.502  0.00  0.00     0.041 H 
ATOM     82  H11 NON d   1      29.909   3.707 -42.900  0.00  0.00     0.041 H 
ENDBRANCH  78  79
ENDBRANCH  75  78
ENDBRANCH  72  75
ENDBRANCH  66  72
ENDBRANCH  63  66
ENDBRANCH  60  62
BRANCH  60  83
ATOM     83  CB  NON d   1      33.450   8.619 -42.321  0.00  0.00    -0.030 C 
ATOM     84  H14 NON d   1      34.466   8.417 -42.691  0.00  0.00     0.037 H 
ATOM     85  H15 NON d   1      33.491   9.393 -41.540  0.00  0.00     0.037 H 
BRANCH  83  86
ATOM     86  CG  NON d   1      32.606   9.139 -43.476  0.00  0.00     0.011 C 
ATOM     87  H16 NON d   1      31.564   9.217 -43.133  0.00  0.00     0.047 H 
ATOM     88  H17 NON d   1      32.667   8.414 -44.301  0.00  0.00     0.047 H 
BRANCH  86  89
ATOM     89  CD  NON d   1      33.038  10.500 -44.004  0.00  0.00     0.215 C 
ATOM     90  NE2 NON d   1      34.248  10.947 -43.640  0.00  0.00    -0.370 N 
ATOM     91  H18 NON d   1      34.571  11.836 -43.964  0.00  0.00     0.159 HD
ATOM     92  H19 NON d   1      34.828  10.391 -43.044  0.00  0.00     0.159 HD
ATOM     93  OE1 NON d   1      32.287  11.129 -44.753  0.00  0.00    -0.274 OA
ENDBRANCH  86  89
ENDBRANCH  83  86
ENDBRANCH  60  83
ENDBRANCH  57  60
ENDBRANCH  54  56
BRANCH  54  94
ATOM     94  CB  NON d   1      30.300   8.822 -37.867  0.00  0.00     0.044 C 
ATOM     95  H22 NON d   1      30.855   7.995 -37.399  0.00  0.00     0.077 H 
ATOM     96  H23 NON d   1      29.297   8.889 -37.420  0.00  0.00     0.077 H 
BRANCH  94  97
ATOM     97  OG  NON d   1      30.992  10.034 -37.612  0.00  0.00    -0.398 OA
ATOM     98  H24 NON d   1      31.863   9.985 -37.987  0.00  0.00     0.209 HD
ENDBRANCH  94  97
ENDBRANCH  54  94
ENDBRANCH   1  54
TORSDOF 28
