REMARK  4 active torsions:
REMARK  status: ('A' for Active; 'I' for Inactive)
REMARK    1  A    between atoms: C6_6  and  C8_8 
REMARK    2  A    between atoms: C9_9  and  N15_15 
REMARK    3  A    between atoms: N15_15  and  C16_16 
REMARK    4  A    between atoms: C20_20  and  C23_23 
ROOT
ATOM      1  C8  679 d   1      39.225   8.315  35.856  0.00  0.00     0.077 A 
ATOM      2  C9  679 d   1      40.252   7.386  36.238  0.00  0.00     0.103 A 
ATOM      3  C10 679 d   1      40.790   7.861  37.430  0.00  0.00     0.248 A 
ATOM      4  C11 679 d   1      39.274   9.323  36.862  0.00  0.00     0.235 A 
ATOM      5  O12 679 d   1      38.534  10.317  36.920  0.00  0.00    -0.272 OA
ATOM      6  O13 679 d   1      41.659   7.273  38.083  0.00  0.00    -0.271 OA
ATOM      7  N14 679 d   1      40.226   9.038  37.750  0.00  0.00    -0.295 N 
ATOM      8  H5  679 d   1      39.920   8.861  35.201  0.00  0.00     0.066 H 
ATOM      9  H6  679 d   1      39.513   6.758  36.756  0.00  0.00     0.089 H 
ATOM     10  H7  679 d   1      40.480   9.609  38.530  0.00  0.00     0.171 HD
ENDROOT
BRANCH   2  11
ATOM     11  N15 679 d   1      40.736   6.213  35.617  0.00  0.00    -0.376 N 
ATOM     12  H8  679 d   1      41.257   5.606  36.265  0.00  0.00     0.160 HD
BRANCH  11  13
ATOM     13  C16 679 d   1      40.668   5.689  34.322  0.00  0.00     0.029 A 
ATOM     14  C17 679 d   1      40.784   6.532  33.164  0.00  0.00    -0.056 A 
ATOM     15  C18 679 d   1      40.686   5.983  31.878  0.00  0.00    -0.059 A 
ATOM     16  H9  679 d   1      40.948   7.597  33.285  0.00  0.00     0.087 H 
ATOM     17  C19 679 d   1      40.478   4.591  31.721  0.00  0.00     0.051 A 
ATOM     18  H10 679 d   1      40.769   6.622  31.006  0.00  0.00     0.086 H 
ATOM     19  C20 679 d   1      40.363   3.690  32.848  0.00  0.00     0.064 A 
ATOM     20 CL2  679 d   1      40.378   4.146  30.103  0.00  0.00    -0.083 Cl
ATOM     21  C21 679 d   1      40.462   4.285  34.157  0.00  0.00    -0.039 A 
ATOM     22  H11 679 d   1      40.378   3.654  35.035  0.00  0.00     0.088 H 
BRANCH  19  23
ATOM     23  C23 679 d   1      40.170   2.338  32.742  0.00  0.00     0.211 C 
ATOM     24  O24 679 d   1      41.117   1.609  33.131  0.00  0.00    -0.644 OA
ATOM     25  O25 679 d   1      39.129   1.828  32.241  0.00  0.00    -0.644 OA
ENDBRANCH  19  23
ENDBRANCH  11  13
ENDBRANCH   2  11
BRANCH   1  26
ATOM     26  C6  679 d   1      38.310   8.289  34.760  0.00  0.00    -0.041 A 
ATOM     27  C1  679 d   1      37.664   7.074  34.367  0.00  0.00    -0.076 A 
ATOM     28  C2  679 d   1      36.756   7.046  33.277  0.00  0.00    -0.081 A 
ATOM     29  H1  679 d   1      37.872   6.160  34.911  0.00  0.00     0.084 H 
ATOM     30  C3  679 d   1      36.467   8.230  32.563  0.00  0.00    -0.062 A 
ATOM     31  H2  679 d   1      36.283   6.114  32.992  0.00  0.00     0.083 H 
ATOM     32  C4  679 d   1      37.096   9.446  32.944  0.00  0.00     0.034 A 
ATOM     33  H3  679 d   1      35.772   8.211  31.732  0.00  0.00     0.086 H 
ATOM     34  C5  679 d   1      38.011   9.479  34.028  0.00  0.00    -0.055 A 
ATOM     35 CL7  679 d   1      36.744  10.886  32.102  0.00  0.00    -0.084 Cl
ATOM     36  H4  679 d   1      38.486  10.414  34.303  0.00  0.00     0.086 H 
ENDBRANCH   1  26
TORSDOF 4
