REMARK  2 active torsions:
REMARK  status: ('A' for Active; 'I' for Inactive)
REMARK    1  A    between atoms: C6_1  and  N4_2 
REMARK    2  A    between atoms: C8_7  and  N2_8 
ROOT
ATOM      1  C6  DQU d   1      18.641  17.394  19.090  0.00  0.00     0.026 A 
ATOM      2  C1  DQU d   1      17.355  16.910  18.703  0.00  0.00    -0.056 A 
ATOM      3  C2  DQU d   1      16.353  16.671  19.671  0.00  0.00    -0.051 A 
ATOM      4  C3  DQU d   1      16.613  16.909  21.060  0.00  0.00     0.091 A 
ATOM      5  N3  DQU d   1      15.606  16.668  21.997  0.00  0.00    -0.064 NA
ATOM      6  C8  DQU d   1      15.818  16.880  23.276  0.00  0.00     0.701 A 
ATOM      7  N1  DQU d   1      17.083  17.369  23.775  0.00  0.00    -0.154 N 
ATOM      8  C7  DQU d   1      18.178  17.644  22.874  0.00  0.00     0.272 A 
ATOM      9  O1  DQU d   1      19.245  18.062  23.340  0.00  0.00    -0.267 OA
ATOM     10  C4  DQU d   1      17.917  17.402  21.448  0.00  0.00     0.064 A 
ATOM     11  C5  DQU d   1      18.919  17.636  20.454  0.00  0.00    -0.040 A 
ATOM     12  H3  DQU d   1      17.145  16.724  17.656  0.00  0.00     0.087 H 
ATOM     13  H4  DQU d   1      15.381  16.305  19.360  0.00  0.00     0.087 H 
ATOM     14  H7  DQU d   1      17.202  17.519  24.756  0.00  0.00     0.187 HD
ATOM     15  H8  DQU d   1      19.896  18.001  20.749  0.00  0.00     0.088 H 
ENDROOT
BRANCH   1  16
ATOM     16  N4  DQU d   1      19.686  17.640  18.054  0.00  0.00    -0.399 N 
ATOM     17  H1  DQU d   1      19.479  17.462  17.061  0.00  0.00     0.156 HD
ATOM     18  H2  DQU d   1      20.615  17.988  18.332  0.00  0.00     0.156 HD
ENDBRANCH   1  16
BRANCH   6  19
ATOM     19  N2  DQU d   1      14.844  16.652  24.246  0.00  0.00    -0.233 N 
ATOM     20  H5  DQU d   1      13.915  16.303  23.971  0.00  0.00     0.174 HD
ATOM     21  H6  DQU d   1      15.053  16.833  25.238  0.00  0.00     0.174 HD
ENDBRANCH   6  19
TORSDOF 2
