REMARK  10 active torsions:
REMARK  status: ('A' for Active; 'I' for Inactive)
REMARK    1  A    between atoms: CAG_6  and  CAQ_7 
REMARK    2  A    between atoms: CAQ_7  and  CAP_8 
REMARK    3  A    between atoms: CBA_10  and  OBC_11 
REMARK    4  A    between atoms: CAN_14  and  CAM_15 
REMARK    5  A    between atoms: CAM_15  and  CAL_16 
REMARK    6  A    between atoms: CAX_17  and  CBB_18 
REMARK    7  A    between atoms: CAK_20  and  CAE_21 
REMARK    8  A    between atoms: CAV_23  and  OAU_24 
REMARK    9  A    between atoms: OAU_24  and  CAT_25 
REMARK   10  A    between atoms: CAT_25  and  CAS_26 
ROOT
ATOM      1  CAM G24 d   1      15.151  25.108  46.852  0.00  0.00    -0.016 C 
ATOM      2  H12 G24 d   1      15.630  25.937  47.393  0.00  0.00     0.047 H 
ATOM      3  H13 G24 d   1      15.656  24.961  45.886  0.00  0.00     0.047 H 
ENDROOT
BRANCH   1   4
ATOM      4  CAN G24 d   1      13.673  25.505  46.570  0.00  0.00    -0.053 A 
ATOM      5  CAO G24 d   1      13.365  26.029  45.295  0.00  0.00    -0.068 A 
ATOM      6  CAP G24 d   1      12.058  26.456  44.979  0.00  0.00    -0.020 A 
ATOM      7  H8  G24 d   1      14.146  26.104  44.547  0.00  0.00     0.085 H 
ATOM      8  CBA G24 d   1      11.062  26.366  45.943  0.00  0.00     0.072 A 
ATOM      9  CAZ G24 d   1      11.345  25.840  47.225  0.00  0.00    -0.050 A 
ATOM     10  CAY G24 d   1      12.659  25.407  47.542  0.00  0.00    -0.074 A 
ATOM     11  H10 G24 d   1      10.557  25.767  47.966  0.00  0.00     0.087 H 
ATOM     12  H11 G24 d   1      12.880  25.004  48.524  0.00  0.00     0.084 H 
BRANCH   6  13
ATOM     13  CAQ G24 d   1      11.790  26.962  43.563  0.00  0.00    -0.014 C 
ATOM     14  H6  G24 d   1      11.008  27.735  43.583  0.00  0.00     0.047 H 
ATOM     15  H7  G24 d   1      12.711  27.384  43.135  0.00  0.00     0.047 H 
BRANCH  13  16
ATOM     16  CAG G24 d   1      11.322  25.766  42.721  0.00  0.00    -0.054 A 
ATOM     17  CAF G24 d   1      12.261  25.035  41.974  0.00  0.00    -0.077 A 
ATOM     18  CAB G24 d   1      11.849  23.926  41.209  0.00  0.00    -0.082 A 
ATOM     19  H1  G24 d   1      13.305  25.325  41.986  0.00  0.00     0.084 H 
ATOM     20  CAC G24 d   1      10.495  23.545  41.185  0.00  0.00    -0.083 A 
ATOM     21  H2  G24 d   1      12.578  23.364  40.637  0.00  0.00     0.083 H 
ATOM     22  CAD G24 d   1       9.551  24.276  41.933  0.00  0.00    -0.082 A 
ATOM     23  H3  G24 d   1      10.180  22.693  40.594  0.00  0.00     0.083 H 
ATOM     24  CAH G24 d   1       9.960  25.388  42.701  0.00  0.00    -0.077 A 
ATOM     25  H4  G24 d   1       8.507  23.984  41.919  0.00  0.00     0.083 H 
ATOM     26  H5  G24 d   1       9.232  25.950  43.274  0.00  0.00     0.084 H 
ENDBRANCH  13  16
ENDBRANCH   6  13
BRANCH   8  27
ATOM     27  OBC G24 d   1       9.816  26.806  45.622  0.00  0.00    -0.360 OA
ATOM     28  H9  G24 d   1       9.238  26.687  46.366  0.00  0.00     0.217 HD
ENDBRANCH   8  27
ENDBRANCH   1   4
BRANCH   1  29
ATOM     29  CAL G24 d   1      15.331  23.817  47.691  0.00  0.00    -0.042 A 
ATOM     30  CAX G24 d   1      15.660  23.877  49.075  0.00  0.00    -0.052 A 
ATOM     31  CAW G24 d   1      15.842  22.710  49.827  0.00  0.00    -0.044 A 
ATOM     32  CAV G24 d   1      15.704  21.441  49.233  0.00  0.00     0.070 A 
ATOM     33  H17 G24 d   1      16.092  22.785  50.879  0.00  0.00     0.088 H 
ATOM     34  CAJ G24 d   1      15.383  21.355  47.879  0.00  0.00    -0.044 A 
ATOM     35  CAK G24 d   1      15.195  22.522  47.110  0.00  0.00    -0.052 A 
ATOM     36  H21 G24 d   1      15.277  20.382  47.413  0.00  0.00     0.088 H 
BRANCH  30  37
ATOM     37  CBB G24 d   1      15.833  25.229  49.775  0.00  0.00    -0.051 C 
ATOM     38  H14 G24 d   1      16.084  25.064  50.833  0.00  0.00     0.033 H 
ATOM     39  H15 G24 d   1      14.896  25.801  49.705  0.00  0.00     0.033 H 
ATOM     40  H16 G24 d   1      16.644  25.792  49.290  0.00  0.00     0.033 H 
ENDBRANCH  30  37
BRANCH  32  41
ATOM     41  OAU G24 d   1      15.869  20.284  49.954  0.00  0.00    -0.341 OA
BRANCH  41  42
ATOM     42  CAT G24 d   1      16.855  20.430  51.006  0.00  0.00     0.105 C 
ATOM     43  H22 G24 d   1      16.591  21.294  51.634  0.00  0.00     0.091 H 
ATOM     44  H23 G24 d   1      17.845  20.593  50.556  0.00  0.00     0.091 H 
BRANCH  42  45
ATOM     45  CAS G24 d   1      16.896  19.174  51.869  0.00  0.00     0.198 C 
ATOM     46  OAR G24 d   1      15.877  18.890  52.543  0.00  0.00    -0.646 OA
ATOM     47  OAI G24 d   1      17.949  18.497  51.857  0.00  0.00    -0.646 OA
ENDBRANCH  42  45
ENDBRANCH  41  42
ENDBRANCH  32  41
BRANCH  35  48
ATOM     48  CAE G24 d   1      14.831  22.371  45.623  0.00  0.00    -0.051 C 
ATOM     49  H18 G24 d   1      14.773  21.303  45.366  0.00  0.00     0.033 H 
ATOM     50  H19 G24 d   1      15.602  22.855  45.006  0.00  0.00     0.033 H 
ATOM     51  H20 G24 d   1      13.857  22.847  45.434  0.00  0.00     0.033 H 
ENDBRANCH  35  48
ENDBRANCH   1  29
TORSDOF 10
