REMARK WARNING: 32 MAX_TORS EXCEEDED!!!
REMARK  35 active torsions:
REMARK  status: ('A' for Active; 'I' for Inactive)
REMARK    1  A    between atoms: N_1  and  CA_2 
REMARK    2  A    between atoms: CA_2  and  C_3 
REMARK    3  A    between atoms: CA_2  and  CB_5 
REMARK       I    between atoms: C_3  and  N_16 
REMARK    4  A    between atoms: CB_5  and  CG_6 
REMARK       I    between atoms: CG_6  and  ND2_8 
REMARK    5  A    between atoms: N_16  and  CA_17 
REMARK    6  A    between atoms: CA_17  and  C_18 
REMARK    7  A    between atoms: CA_17  and  CB_20 
REMARK       I    between atoms: C_18  and  N_37 
REMARK    8  A    between atoms: CB_20  and  CG_21 
REMARK    9  A    between atoms: CG_21  and  CD_22 
REMARK   10  A    between atoms: CD_22  and  NE_23 
REMARK       I    between atoms: NE_23  and  CZ_24 
REMARK       I    between atoms: CZ_24  and  NH1_25 
REMARK   11  A    between atoms: N_37  and  CA_38 
REMARK   12  A    between atoms: CA_38  and  C_39 
REMARK   13  A    between atoms: CA_38  and  CB_41 
REMARK       I    between atoms: C_39  and  N_55 
REMARK   14  A    between atoms: CB_41  and  CG_42 
REMARK   15  A    between atoms: CG_42  and  CD1_43 
REMARK   16  A    between atoms: CG_42  and  CD2_44 
REMARK   17  A    between atoms: N_55  and  CA_56 
REMARK   18  A    between atoms: CA_56  and  C_57 
REMARK   19  A    between atoms: CA_56  and  CB_59 
REMARK       I    between atoms: C_57  and  N_73 
REMARK   20  A    between atoms: CB_59  and  CG_60 
REMARK   21  A    between atoms: CG_60  and  CD1_61 
REMARK   22  A    between atoms: CG_60  and  CD2_62 
REMARK   23  A    between atoms: N_73  and  CA_74 
REMARK   24  A    between atoms: CA_74  and  C_75 
REMARK   25  A    between atoms: CA_74  and  CB_77 
REMARK       I    between atoms: C_75  and  N_91 
REMARK   26  A    between atoms: CB_77  and  CG_78 
REMARK   27  A    between atoms: CG_78  and  CD1_79 
REMARK   28  A    between atoms: CG_78  and  CD2_80 
REMARK   29  A    between atoms: N_91  and  CA_92 
REMARK   30  A    between atoms: CA_92  and  C_93 
REMARK   31  A    between atoms: CA_92  and  CB_95 
REMARK       I    between atoms: C_93  and  N_105 
REMARK   32  A    between atoms: CB_95  and  OG1_96 
REMARK   33  A    between atoms: CB_95  and  CG2_97 
REMARK   34  A    between atoms: N_105  and  CA_106 
REMARK   35  A    between atoms: CA_106  and  C_107 
ROOT
ATOM      1  C   LEU d   1      -7.184   3.278   4.019  0.00  0.00     0.241 C 
ATOM      2  O   LEU d   1      -6.027   2.871   3.946  0.00  0.00    -0.271 OA
ATOM      3  N   LEU d   1      -7.962   3.429   2.950  0.00  0.00    -0.346 N 
ATOM      4  H33 LEU d   1      -8.897   3.764   3.070  0.00  0.00     0.163 HD
ENDROOT
BRANCH   3   5
ATOM      5  CA  LEU d   1      -7.483   3.118   1.608  0.00  0.00     0.089 C 
ATOM      6  H34 LEU d   1      -6.434   3.440   1.530  0.00  0.00     0.087 H 
BRANCH   5   7
ATOM      7  C   LEU d   1      -8.297   3.862   0.555  0.00  0.00     0.241 C 
ATOM      8  O   LEU d   1      -9.373   3.415   0.159  0.00  0.00    -0.271 OA
ATOM      9  N   LEU d   1      -7.777   4.999   0.104  0.00  0.00    -0.346 N 
ATOM     10  H44 LEU d   1      -6.898   5.310   0.465  0.00  0.00     0.163 HD
BRANCH   9  11
ATOM     11  CA  LEU d   1      -8.456   5.803  -0.904  0.00  0.00     0.089 C 
ATOM     12  H45 LEU d   1      -9.525   5.544  -0.893  0.00  0.00     0.087 H 
BRANCH  11  13
ATOM     13  C   LEU d   1      -7.901   5.511  -2.294  0.00  0.00     0.241 C 
ATOM     14  O   LEU d   1      -6.751   5.094  -2.438  0.00  0.00    -0.271 OA
ATOM     15  N   THR d   1      -8.725   5.729  -3.313  0.00  0.00    -0.344 N 
ATOM     16  H55 THR d   1      -9.648   6.068  -3.130  0.00  0.00     0.163 HD
BRANCH  15  17
ATOM     17  CA  THR d   1      -8.317   5.486  -4.691  0.00  0.00     0.113 C 
ATOM     18  H56 THR d   1      -7.343   4.975  -4.673  0.00  0.00     0.091 H 
BRANCH  17  19
ATOM     19  C   THR d   1      -8.162   6.794  -5.459  0.00  0.00     0.243 C 
ATOM     20  O   THR d   1      -8.364   7.877  -4.909  0.00  0.00    -0.271 OA
ATOM     21  N   GLY d   1      -7.802   6.686  -6.736  0.00  0.00    -0.349 N 
ATOM     22  H62 GLY d   1      -7.652   5.780  -7.132  0.00  0.00     0.163 HD
BRANCH  21  23
ATOM     23  CA  GLY d   1      -7.625   7.867  -7.561  0.00  0.00     0.075 C 
ATOM     24  H63 GLY d   1      -6.603   8.247  -7.419  0.00  0.00     0.080 H 
ATOM     25  H64 GLY d   1      -8.348   8.632  -7.242  0.00  0.00     0.080 H 
BRANCH  23  26
ATOM     26  C   GLY d   1      -7.837   7.582  -9.034  0.00  0.00     0.191 C 
ATOM     27  O   GLY d   1      -7.861   6.390  -9.411  0.00  0.00    -0.647 OA
ATOM     28  OXT GLY d   1      -7.980   8.549  -9.812  0.00  0.00    -0.647 OA
ENDBRANCH  23  26
ENDBRANCH  21  23
ENDBRANCH  17  19
BRANCH  17  29
ATOM     29  CB  THR d   1      -9.327   4.584  -5.425  0.00  0.00     0.060 C 
ATOM     30  H57 THR d   1      -8.885   4.265  -6.380  0.00  0.00     0.086 H 
BRANCH  29  31
ATOM     31  OG1 THR d   1     -10.532   5.311  -5.692  0.00  0.00    -0.393 OA
ATOM     32  H58 THR d   1     -11.148   4.746  -6.144  0.00  0.00     0.210 HD
ENDBRANCH  29  31
BRANCH  29  33
ATOM     33  CG2 THR d   1      -9.648   3.347  -4.597  0.00  0.00    -0.050 C 
ATOM     34  H59 THR d   1     -10.370   2.719  -5.140  0.00  0.00     0.031 H 
ATOM     35  H60 THR d   1     -10.081   3.653  -3.633  0.00  0.00     0.031 H 
ATOM     36  H61 THR d   1      -8.725   2.775  -4.420  0.00  0.00     0.031 H 
ENDBRANCH  29  33
ENDBRANCH  17  29
ENDBRANCH  15  17
ENDBRANCH  11  13
BRANCH  11  37
ATOM     37  CB  LEU d   1      -8.311   7.293  -0.584  0.00  0.00    -0.035 C 
ATOM     38  H46 LEU d   1      -7.554   7.715  -1.262  0.00  0.00     0.037 H 
ATOM     39  H47 LEU d   1      -7.965   7.386   0.456  0.00  0.00     0.037 H 
BRANCH  37  40
ATOM     40  CG  LEU d   1      -9.591   8.116  -0.732  0.00  0.00    -0.059 C 
ATOM     41  H48 LEU d   1     -10.375   7.467  -1.149  0.00  0.00     0.038 H 
BRANCH  40  42
ATOM     42  CD1 LEU d   1     -10.061   8.625   0.622  0.00  0.00    -0.073 C 
ATOM     43  H49 LEU d   1     -10.981   9.213   0.493  0.00  0.00     0.028 H 
ATOM     44  H50 LEU d   1      -9.280   9.259   1.067  0.00  0.00     0.028 H 
ATOM     45  H51 LEU d   1     -10.262   7.771   1.285  0.00  0.00     0.028 H 
ENDBRANCH  40  42
BRANCH  40  46
ATOM     46  CD2 LEU d   1      -9.367   9.275  -1.690  0.00  0.00    -0.073 C 
ATOM     47  H52 LEU d   1      -9.028   8.887  -2.662  0.00  0.00     0.028 H 
ATOM     48  H53 LEU d   1      -8.602   9.949  -1.277  0.00  0.00     0.028 H 
ATOM     49  H54 LEU d   1     -10.309   9.827  -1.824  0.00  0.00     0.028 H 
ENDBRANCH  40  46
ENDBRANCH  37  40
ENDBRANCH  11  37
ENDBRANCH   9  11
ENDBRANCH   5   7
BRANCH   5  50
ATOM     50  CB  LEU d   1      -7.550   1.611   1.355  0.00  0.00    -0.035 C 
ATOM     51  H35 LEU d   1      -7.840   1.455   0.306  0.00  0.00     0.037 H 
ATOM     52  H36 LEU d   1      -8.322   1.189   2.016  0.00  0.00     0.037 H 
BRANCH  50  53
ATOM     53  CG  LEU d   1      -6.245   0.849   1.604  0.00  0.00    -0.059 C 
ATOM     54  H37 LEU d   1      -5.919   1.048   2.636  0.00  0.00     0.038 H 
BRANCH  53  55
ATOM     55  CD1 LEU d   1      -6.463  -0.648   1.450  0.00  0.00    -0.073 C 
ATOM     56  H38 LEU d   1      -5.516  -1.177   1.632  0.00  0.00     0.028 H 
ATOM     57  H39 LEU d   1      -6.813  -0.865   0.430  0.00  0.00     0.028 H 
ATOM     58  H40 LEU d   1      -7.217  -0.985   2.176  0.00  0.00     0.028 H 
ENDBRANCH  53  55
BRANCH  53  59
ATOM     59  CD2 LEU d   1      -5.155   1.330   0.656  0.00  0.00    -0.073 C 
ATOM     60  H41 LEU d   1      -5.012   2.413   0.782  0.00  0.00     0.028 H 
ATOM     61  H42 LEU d   1      -5.451   1.117  -0.382  0.00  0.00     0.028 H 
ATOM     62  H43 LEU d   1      -4.214   0.807   0.883  0.00  0.00     0.028 H 
ENDBRANCH  53  59
ENDBRANCH  50  53
ENDBRANCH   5  50
ENDBRANCH   3   5
BRANCH   1  63
ATOM     63  CA  LEU d   1      -7.798   3.636   5.372  0.00  0.00     0.089 C 
ATOM     64  H23 LEU d   1      -8.182   2.715   5.834  0.00  0.00     0.087 H 
BRANCH  63  65
ATOM     65  N   LEU d   1      -6.794   4.214   6.258  0.00  0.00    -0.346 N 
ATOM     66  C   ARG d   1      -6.175   3.486   7.182  0.00  0.00     0.241 C 
ATOM     67  O   ARG d   1      -6.400   2.288   7.357  0.00  0.00    -0.271 OA
ATOM     68  H22 LEU d   1      -6.565   5.183   6.168  0.00  0.00     0.163 HD
BRANCH  66  69
ATOM     69  CA  ARG d   1      -5.149   4.222   8.038  0.00  0.00     0.089 C 
ATOM     70  H10 ARG d   1      -5.145   5.282   7.744  0.00  0.00     0.087 H 
BRANCH  69  71
ATOM     71  N   ARG d   1      -5.490   4.137   9.453  0.00  0.00    -0.346 N 
ATOM     72  C   ASN d   1      -5.331   5.173  10.270  0.00  0.00     0.249 C 
ATOM     73  O   ASN d   1      -4.890   6.261   9.897  0.00  0.00    -0.271 OA
ATOM     74  H9  ARG d   1      -5.852   3.279   9.817  0.00  0.00     0.163 HD
BRANCH  72  75
ATOM     75  CA  ASN d   1      -5.725   4.949  11.727  0.00  0.00     0.183 C 
ATOM     76  H4  ASN d   1      -6.184   5.870  12.115  0.00  0.00     0.099 H 
BRANCH  75  77
ATOM     77  N   ASN d   1      -6.699   3.833  11.853  0.00  0.00    -0.066 N 
ATOM     78  H1  ASN d   1      -6.942   3.707  12.823  0.00  0.00     0.275 HD
ATOM     79  H2  ASN d   1      -6.286   2.985  11.497  0.00  0.00     0.275 HD
ATOM     80  H3  ASN d   1      -7.529   4.050  11.325  0.00  0.00     0.275 HD
ENDBRANCH  75  77
BRANCH  75  81
ATOM     81  CB  ASN d   1      -4.485   4.614  12.560  0.00  0.00     0.044 C 
ATOM     82  H5  ASN d   1      -3.774   5.450  12.486  0.00  0.00     0.051 H 
ATOM     83  H6  ASN d   1      -4.023   3.703  12.153  0.00  0.00     0.051 H 
BRANCH  81  84
ATOM     84  CG  ASN d   1      -4.810   4.381  14.024  0.00  0.00     0.217 C 
ATOM     85  OD1 ASN d   1      -5.938   4.597  14.465  0.00  0.00    -0.274 OA
ATOM     86  ND2 ASN d   1      -3.815   3.938  14.786  0.00  0.00    -0.370 N 
ATOM     87  H7  ASN d   1      -3.969   3.766  15.759  0.00  0.00     0.159 HD
ATOM     88  H8  ASN d   1      -2.913   3.777  14.386  0.00  0.00     0.159 HD
ENDBRANCH  81  84
ENDBRANCH  75  81
ENDBRANCH  72  75
ENDBRANCH  69  71
BRANCH  69  89
ATOM     89  CB  ARG d   1      -3.755   3.640   7.793  0.00  0.00    -0.036 C 
ATOM     90  H11 ARG d   1      -3.632   3.476   6.712  0.00  0.00     0.036 H 
ATOM     91  H12 ARG d   1      -3.683   2.677   8.320  0.00  0.00     0.036 H 
BRANCH  89  92
ATOM     92  CG  ARG d   1      -2.626   4.538   8.275  0.00  0.00    -0.048 C 
ATOM     93  H13 ARG d   1      -2.982   5.579   8.299  0.00  0.00     0.035 H 
ATOM     94  H14 ARG d   1      -1.780   4.456   7.576  0.00  0.00     0.035 H 
BRANCH  92  95
ATOM     95  CD  ARG d   1      -2.157   4.144   9.667  0.00  0.00     0.009 C 
ATOM     96  H15 ARG d   1      -1.402   3.349   9.576  0.00  0.00     0.064 H 
ATOM     97  H16 ARG d   1      -3.018   3.767  10.239  0.00  0.00     0.064 H 
BRANCH  95  98
ATOM     98  NE  ARG d   1      -1.570   5.272  10.387  0.00  0.00    -0.227 N 
ATOM     99  CZ  ARG d   1      -0.263   5.519  10.437  0.00  0.00     0.665 C 
ATOM    100  NH1 ARG d   1       0.592   4.725   9.805  0.00  0.00    -0.235 N 
ATOM    101  NH2 ARG d   1       0.190   6.564  11.118  0.00  0.00    -0.235 N 
ATOM    102  H18 ARG d   1       1.603   4.920   9.846  0.00  0.00     0.174 HD
ATOM    103  H19 ARG d   1       0.245   3.914   9.273  0.00  0.00     0.174 HD
ATOM    104  H20 ARG d   1      -0.470   7.183  11.610  0.00  0.00     0.174 HD
ATOM    105  H21 ARG d   1       1.201   6.756  11.154  0.00  0.00     0.174 HD
ATOM    106  H17 ARG d   1      -2.204   5.913  10.885  0.00  0.00     0.177 HD
ENDBRANCH  95  98
ENDBRANCH  92  95
ENDBRANCH  89  92
ENDBRANCH  69  89
ENDBRANCH  66  69
ENDBRANCH  63  65
BRANCH  63 107
ATOM    107  CB  LEU d   1      -8.964   4.612   5.188  0.00  0.00    -0.035 C 
ATOM    108  H24 LEU d   1      -9.154   4.716   4.110  0.00  0.00     0.037 H 
ATOM    109  H25 LEU d   1      -8.662   5.585   5.603  0.00  0.00     0.037 H 
BRANCH 107 110
ATOM    110  CG  LEU d   1     -10.274   4.194   5.863  0.00  0.00    -0.059 C 
ATOM    111  H26 LEU d   1     -11.039   4.950   5.633  0.00  0.00     0.038 H 
BRANCH 110 112
ATOM    112  CD1 LEU d   1     -10.750   2.855   5.324  0.00  0.00    -0.073 C 
ATOM    113  H27 LEU d   1     -11.690   2.573   5.821  0.00  0.00     0.028 H 
ATOM    114  H28 LEU d   1      -9.987   2.088   5.522  0.00  0.00     0.028 H 
ATOM    115  H29 LEU d   1     -10.918   2.935   4.240  0.00  0.00     0.028 H 
ENDBRANCH 110 112
BRANCH 110 116
ATOM    116  CD2 LEU d   1     -10.100   4.134   7.373  0.00  0.00    -0.073 C 
ATOM    117  H30 LEU d   1      -9.756   5.112   7.742  0.00  0.00     0.028 H 
ATOM    118  H31 LEU d   1      -9.356   3.364   7.626  0.00  0.00     0.028 H 
ATOM    119  H32 LEU d   1     -11.062   3.883   7.843  0.00  0.00     0.028 H 
ENDBRANCH 110 116
ENDBRANCH 107 110
ENDBRANCH  63 107
ENDBRANCH   1  63
TORSDOF 35
