REMARK  4 active torsions:
REMARK  status: ('A' for Active; 'I' for Inactive)
REMARK    1  A    between atoms: C2_2  and  C9_3 
REMARK    2  A    between atoms: C9_3  and  S1_15 
REMARK    3  A    between atoms: C8_6  and  N2_7 
REMARK    4  A    between atoms: S1_15  and  C10_16 
ROOT
ATOM      1  C1  AIQ d   1      17.120  16.978  18.715  0.00  0.00    -0.049 A 
ATOM      2  C2  AIQ d   1      16.110  16.732  19.688  0.00  0.00    -0.016 A 
ATOM      3  C3  AIQ d   1      16.433  16.918  21.077  0.00  0.00     0.098 A 
ATOM      4  N3  AIQ d   1      15.501  16.708  22.060  0.00  0.00    -0.064 NA
ATOM      5  C8  AIQ d   1      15.726  16.855  23.334  0.00  0.00     0.701 A 
ATOM      6  N1  AIQ d   1      16.923  17.235  23.791  0.00  0.00    -0.154 N 
ATOM      7  C7  AIQ d   1      17.955  17.486  22.974  0.00  0.00     0.272 A 
ATOM      8  O1  AIQ d   1      19.047  17.838  23.385  0.00  0.00    -0.267 OA
ATOM      9  C4  AIQ d   1      17.753  17.335  21.463  0.00  0.00     0.065 A 
ATOM     10  C5  AIQ d   1      18.755  17.576  20.474  0.00  0.00    -0.040 A 
ATOM     11  C6  AIQ d   1      18.434  17.400  19.102  0.00  0.00     0.027 A 
ATOM     12  N4  AIQ d   1      19.364  17.637  18.149  0.00  0.00    -0.399 N 
ATOM     13  H1  AIQ d   1      16.891  16.844  17.664  0.00  0.00     0.087 H 
ATOM     14  H6  AIQ d   1      17.053  17.336  24.777  0.00  0.00     0.187 HD
ATOM     15  H7  AIQ d   1      19.750  17.890  20.768  0.00  0.00     0.088 H 
ATOM     16  H8  AIQ d   1      19.127  17.508  17.155  0.00  0.00     0.156 HD
ATOM     17  H9  AIQ d   1      20.309  17.946  18.417  0.00  0.00     0.156 HD
ENDROOT
BRANCH   2  18
ATOM     18  C9  AIQ d   1      14.683  16.278  19.310  0.00  0.00     0.010 C 
ATOM     19  H2  AIQ d   1      14.240  17.046  18.659  0.00  0.00     0.057 H 
ATOM     20  H3  AIQ d   1      14.093  16.197  20.235  0.00  0.00     0.057 H 
BRANCH  18  21
ATOM     21  S1  AIQ d   1      14.600  14.676  18.439  0.00  0.00    -0.087 SA
BRANCH  21  22
ATOM     22  C10 AIQ d   1      14.231  15.282  16.788  0.00  0.00     0.166 A 
ATOM     23  N5  AIQ d   1      15.076  16.032  16.059  0.00  0.00    -0.344 N 
ATOM     24  C11 AIQ d   1      14.448  16.282  14.889  0.00  0.00    -0.004 A 
ATOM     25  H10 AIQ d   1      16.015  16.352  16.337  0.00  0.00     0.167 HD
ATOM     26  C12 AIQ d   1      13.232  15.731  14.814  0.00  0.00     0.020 A 
ATOM     27  H11 AIQ d   1      14.888  16.873  14.087  0.00  0.00     0.113 H 
ATOM     28  N6  AIQ d   1      13.189  15.101  16.102  0.00  0.00    -0.236 NA
ATOM     29  H12 AIQ d   1      12.494  15.754  14.014  0.00  0.00     0.117 H 
ENDBRANCH  21  22
ENDBRANCH  18  21
ENDBRANCH   2  18
BRANCH   5  30
ATOM     30  N2  AIQ d   1      14.746  16.626  24.188  0.00  0.00    -0.233 N 
ATOM     31  H4  AIQ d   1      13.821  16.333  23.843  0.00  0.00     0.174 HD
ATOM     32  H5  AIQ d   1      14.907  16.741  25.199  0.00  0.00     0.174 HD
ENDBRANCH   5  30
TORSDOF 4
