REMARK  6 active torsions:
REMARK  status: ('A' for Active; 'I' for Inactive)
REMARK    1  A    between atoms: C4_1  and  N4_2 
REMARK    2  A    between atoms: C4_1  and  C6_3 
REMARK    3  A    between atoms: C2_5  and  C9_15 
REMARK    4  A    between atoms: C8_8  and  N2_9 
REMARK    5  A    between atoms: C9_15  and  S1_16 
REMARK    6  A    between atoms: S1_16  and  C10_17 
ROOT
ATOM      1  C6  KMB d   1      18.302  17.510  18.616  0.00  0.00    -0.031 A 
ATOM      2  C1  KMB d   1      16.998  17.017  18.320  0.00  0.00    -0.066 A 
ATOM      3  C2  KMB d   1      16.095  16.700  19.372  0.00  0.00    -0.018 A 
ATOM      4  C3  KMB d   1      16.494  16.880  20.729  0.00  0.00     0.098 A 
ATOM      5  N3  KMB d   1      15.651  16.591  21.769  0.00  0.00    -0.064 NA
ATOM      6  C8  KMB d   1      15.974  16.741  23.014  0.00  0.00     0.701 A 
ATOM      7  N1  KMB d   1      17.170  17.193  23.386  0.00  0.00    -0.154 N 
ATOM      8  C7  KMB d   1      18.122  17.525  22.512  0.00  0.00     0.272 A 
ATOM      9  O1  KMB d   1      19.213  17.937  22.871  0.00  0.00    -0.267 OA
ATOM     10  C41 KMB d   1      17.809  17.376  21.020  0.00  0.00     0.063 A 
ATOM     11  C5  KMB d   1      18.717  17.691  19.968  0.00  0.00    -0.058 A 
ATOM     12  H6  KMB d   1      16.693  16.883  17.288  0.00  0.00     0.085 H 
ATOM     13  H9  KMB d   1      17.363  17.288  24.363  0.00  0.00     0.187 HD
ATOM     14  H10 KMB d   1      19.710  18.063  20.193  0.00  0.00     0.086 H 
ENDROOT
BRANCH   3  15
ATOM     15  C9  KMB d   1      14.708  16.168  19.040  0.00  0.00     0.007 C 
ATOM     16  H11 KMB d   1      14.340  15.547  19.870  0.00  0.00     0.056 H 
ATOM     17  H12 KMB d   1      14.752  15.563  18.122  0.00  0.00     0.056 H 
BRANCH  15  18
ATOM     18  S1  KMB d   1      13.589  17.587  18.789  0.00  0.00    -0.125 SA
BRANCH  18  19
ATOM     19  C10 KMB d   1      12.033  16.737  18.597  0.00  0.00     0.000 A 
ATOM     20  C11 KMB d   1      11.986  15.415  18.046  0.00  0.00    -0.067 A 
ATOM     21  C12 KMB d   1      10.742  14.742  17.898  0.00  0.00    -0.082 A 
ATOM     22  H13 KMB d   1      12.904  14.925  17.740  0.00  0.00     0.085 H 
ATOM     23  C13 KMB d   1       9.540  15.386  18.295  0.00  0.00    -0.083 A 
ATOM     24  H14 KMB d   1      10.711  13.741  17.484  0.00  0.00     0.083 H 
ATOM     25  C14 KMB d   1       9.579  16.702  18.841  0.00  0.00    -0.082 A 
ATOM     26  H15 KMB d   1       8.591  14.875  18.183  0.00  0.00     0.083 H 
ATOM     27  C15 KMB d   1      10.824  17.375  18.992  0.00  0.00    -0.067 A 
ATOM     28  H16 KMB d   1       8.659  17.191  19.142  0.00  0.00     0.083 H 
ATOM     29  H17 KMB d   1      10.851  18.375  19.409  0.00  0.00     0.085 H 
ENDBRANCH  18  19
ENDBRANCH  15  18
ENDBRANCH   3  15
BRANCH   1  30
ATOM     30  C4  KMB d   1      19.255  17.847  17.481  0.00  0.00     0.103 C 
ATOM     31  H1  KMB d   1      20.292  17.606  17.758  0.00  0.00     0.082 H 
ATOM     32  H2  KMB d   1      18.982  17.299  16.567  0.00  0.00     0.082 H 
BRANCH  30  33
ATOM     33  N4  KMB d   1      19.078  19.404  17.274  0.00  0.00    -0.075 N 
ATOM     34  H3  KMB d   1      19.682  19.715  16.529  0.00  0.00     0.274 HD
ATOM     35  H4  KMB d   1      19.320  19.886  18.126  0.00  0.00     0.274 HD
ATOM     36  H5  KMB d   1      18.119  19.604  17.035  0.00  0.00     0.274 HD
ENDBRANCH  30  33
ENDBRANCH   1  30
BRANCH   6  37
ATOM     37  N2  KMB d   1      15.141  16.456  23.972  0.00  0.00    -0.233 N 
ATOM     38  H7  KMB d   1      14.200  16.102  23.748  0.00  0.00     0.174 HD
ATOM     39  H8  KMB d   1      15.422  16.584  24.954  0.00  0.00     0.174 HD
ENDBRANCH   6  37
TORSDOF 6
