REMARK  10 active torsions:
REMARK  status: ('A' for Active; 'I' for Inactive)
REMARK    1  A    between atoms: C32_1  and  C33_2 
REMARK    2  A    between atoms: C32_1  and  C1_15 
REMARK    3  A    between atoms: C36_7  and  C37_8 
REMARK    4  A    between atoms: C37_8  and  P40_11 
REMARK    5  A    between atoms: C1_15  and  C12_16 
REMARK    6  A    between atoms: C1_15  and  C51_30 
REMARK    7  A    between atoms: C1_15  and  N61_36 
REMARK    8  A    between atoms: C12_16  and  C13_17 
REMARK    9  A    between atoms: C16_22  and  C17_23 
REMARK   10  A    between atoms: C17_23  and  P20_26 
ROOT
ATOM      1  C1  335 d   1      -0.022  72.030  70.665  0.00  0.00     0.087 C 
ENDROOT
BRANCH   1   2
ATOM      2  C32 335 d   1       0.482  71.483  69.230  0.00  0.00    -0.012 C 
ATOM      3  H1  335 d   1       1.090  70.585  69.412  0.00  0.00     0.044 H 
ATOM      4  H2  335 d   1      -0.410  71.210  68.647  0.00  0.00     0.044 H 
BRANCH   2   5
ATOM      5  C33 335 d   1       1.331  72.456  68.362  0.00  0.00    -0.055 A 
ATOM      6  C4A 335 d   1       0.681  73.200  67.360  0.00  0.00    -0.076 A 
ATOM      7  C5A 335 d   1       1.364  74.079  66.534  0.00  0.00    -0.070 A 
ATOM      8  H3  335 d   1      -0.389  73.082  67.230  0.00  0.00     0.084 H 
ATOM      9  C36 335 d   1       2.759  74.257  66.684  0.00  0.00     0.027 A 
ATOM     10  H5  335 d   1       0.828  74.631  65.771  0.00  0.00     0.084 H 
ATOM     11  C5B 335 d   1       3.448  73.526  67.679  0.00  0.00    -0.070 A 
ATOM     12  C4B 335 d   1       2.752  72.632  68.517  0.00  0.00    -0.076 A 
ATOM     13  H6  335 d   1       4.518  73.654  67.798  0.00  0.00     0.084 H 
ATOM     14  H4  335 d   1       3.287  72.076  69.279  0.00  0.00     0.084 H 
BRANCH   9  15
ATOM     15  C37 335 d   1       3.456  75.223  65.770  0.00  0.00     0.380 C 
ATOM     16  F38 335 d   1       4.525  75.661  66.449  0.00  0.00    -0.185 F 
ATOM     17  F39 335 d   1       2.621  76.241  65.585  0.00  0.00    -0.185 F 
BRANCH  15  18
ATOM     18  P40 335 d   1       3.941  74.630  64.237  0.00  0.00     0.339 P 
ATOM     19  O41 335 d   1       2.715  74.108  63.442  0.00  0.00    -0.635 OA
ATOM     20  O42 335 d   1       4.842  73.532  64.431  0.00  0.00    -0.635 OA
ATOM     21  O43 335 d   1       4.586  75.748  63.438  0.00  0.00    -0.635 OA
ENDBRANCH  15  18
ENDBRANCH   9  15
ENDBRANCH   2   5
ENDBRANCH   1   2
BRANCH   1  22
ATOM     22  C12 335 d   1      -0.875  73.369  70.508  0.00  0.00    -0.012 C 
ATOM     23  H7  335 d   1      -0.198  74.156  70.146  0.00  0.00     0.044 H 
ATOM     24  H8  335 d   1      -1.256  73.642  71.503  0.00  0.00     0.044 H 
BRANCH  22  25
ATOM     25  C13 335 d   1      -2.062  73.309  69.560  0.00  0.00    -0.055 A 
ATOM     26  C1A 335 d   1      -2.207  74.362  68.589  0.00  0.00    -0.076 A 
ATOM     27  C2A 335 d   1      -3.271  74.389  67.693  0.00  0.00    -0.070 A 
ATOM     28  H9  335 d   1      -1.468  75.154  68.555  0.00  0.00     0.084 H 
ATOM     29  C16 335 d   1      -4.260  73.368  67.700  0.00  0.00     0.027 A 
ATOM     30  H11 335 d   1      -3.347  75.201  66.979  0.00  0.00     0.084 H 
ATOM     31  C2B 335 d   1      -4.152  72.293  68.658  0.00  0.00    -0.070 A 
ATOM     32  C1B 335 d   1      -3.057  72.271  69.583  0.00  0.00    -0.076 A 
ATOM     33  H12 335 d   1      -4.896  71.505  68.678  0.00  0.00     0.084 H 
ATOM     34  H10 335 d   1      -2.978  71.466  70.305  0.00  0.00     0.084 H 
BRANCH  29  35
ATOM     35  C17 335 d   1      -5.434  73.442  66.704  0.00  0.00     0.380 C 
ATOM     36  F18 335 d   1      -6.131  72.310  66.787  0.00  0.00    -0.185 F 
ATOM     37  F19 335 d   1      -4.984  73.509  65.431  0.00  0.00    -0.185 F 
BRANCH  35  38
ATOM     38  P20 335 d   1      -6.492  74.707  67.030  0.00  0.00     0.339 P 
ATOM     39  O21 335 d   1      -5.866  76.085  66.698  0.00  0.00    -0.635 OA
ATOM     40  O22 335 d   1      -6.841  74.689  68.493  0.00  0.00    -0.635 OA
ATOM     41  O23 335 d   1      -7.732  74.558  66.180  0.00  0.00    -0.635 OA
ENDBRANCH  35  38
ENDBRANCH  29  35
ENDBRANCH  22  25
ENDBRANCH   1  22
BRANCH   1  42
ATOM     42  C51 335 d   1       1.251  72.332  71.618  0.00  0.00    -0.028 A 
ATOM     43  C6A 335 d   1       2.179  71.297  71.960  0.00  0.00    -0.074 A 
ATOM     44  C53 335 d   1       3.283  71.572  72.805  0.00  0.00    -0.082 A 
ATOM     45  H13 335 d   1       2.036  70.296  71.570  0.00  0.00     0.084 H 
ATOM     46  C55 335 d   1       3.478  72.919  73.336  0.00  0.00    -0.083 A 
ATOM     47  H16 335 d   1       3.982  70.783  73.057  0.00  0.00     0.083 H 
ATOM     48  C54 335 d   1       2.566  73.959  73.005  0.00  0.00    -0.082 A 
ATOM     49  H15 335 d   1       4.321  73.127  73.985  0.00  0.00     0.083 H 
ATOM     50  C6B 335 d   1       1.473  73.666  72.162  0.00  0.00    -0.074 A 
ATOM     51  H17 335 d   1       2.708  74.961  73.394  0.00  0.00     0.083 H 
ATOM     52  H14 335 d   1       0.776  74.458  71.911  0.00  0.00     0.084 H 
ENDBRANCH   1  42
BRANCH   1  53
ATOM     53  N61 335 d   1      -0.810  70.803  71.168  0.00  0.00    -0.257 N 
ATOM     54  N62 335 d   1      -1.236  69.658  70.509  0.00  0.00     0.007 NA
ATOM     55  N63 335 d   1      -1.844  68.985  71.484  0.00  0.00    -0.158 NA
ATOM     56  C7A 335 d   1      -1.896  69.519  72.748  0.00  0.00     0.102 A 
ATOM     57  C7B 335 d   1      -1.194  70.812  72.624  0.00  0.00     0.080 A 
ATOM     58  C8A 335 d   1      -2.430  69.102  73.992  0.00  0.00    -0.052 A 
ATOM     59  C8B 335 d   1      -1.061  71.654  73.813  0.00  0.00    -0.053 A 
ATOM     60  C9B 335 d   1      -1.598  71.235  75.059  0.00  0.00    -0.081 A 
ATOM     61  H19 335 d   1      -0.548  72.606  73.742  0.00  0.00     0.087 H 
ATOM     62  C9A 335 d   1      -2.286  69.951  75.151  0.00  0.00    -0.081 A 
ATOM     63  H21 335 d   1      -1.498  71.864  75.936  0.00  0.00     0.083 H 
ATOM     64  H20 335 d   1      -2.695  69.630  76.103  0.00  0.00     0.083 H 
ATOM     65  H18 335 d   1      -2.944  68.151  74.073  0.00  0.00     0.087 H 
ENDBRANCH   1  53
TORSDOF 10
