REMARK  8 active torsions:
REMARK  status: ('A' for Active; 'I' for Inactive)
REMARK    1  A    between atoms: CA_2  and  N_1 
REMARK       I    between atoms: N_1  and  C1_11 
REMARK    2  A    between atoms: CA_2  and  C_3 
REMARK    3  A    between atoms: CB_10  and  CA_2 
REMARK    4  A    between atoms: C1_11  and  O2_13 
REMARK    5  A    between atoms: O2_13  and  C3_15 
REMARK    6  A    between atoms: C3_15  and  C4_14 
REMARK    7  A    between atoms: C3_15  and  C6_16 
REMARK    8  A    between atoms: C3_15  and  C5_17 
ROOT
ATOM      1  CA  TCO d   1      74.642 -10.564 133.923  0.00  0.00     0.068 C 
ATOM      2  H2  TCO d   1      74.742 -11.543 134.415  0.00  0.00     0.084 H 
ENDROOT
BRANCH   1   3
ATOM      3  N   TCO d   1      74.006  -9.577 134.866  0.00  0.00    -0.326 N 
ATOM      4  C1  TCO d   1      73.260  -9.859 135.996  0.00  0.00     0.361 C 
ATOM      5  O1  TCO d   1      73.223 -10.960 136.570  0.00  0.00    -0.238 OA
ATOM      6  H1  TCO d   1      74.138  -8.609 134.651  0.00  0.00     0.165 HD
BRANCH   4   7
ATOM      7  O2  TCO d   1      72.515  -8.754 136.441  0.00  0.00    -0.294 OA
BRANCH   7   8
ATOM      8  C3  TCO d   1      71.871  -8.567 137.743  0.00  0.00     0.061 C 
BRANCH   8   9
ATOM      9  C4  TCO d   1      71.270  -7.131 137.690  0.00  0.00    -0.048 C 
ATOM     10  H15 TCO d   1      70.763  -6.910 138.641  0.00  0.00     0.031 H 
ATOM     11  H16 TCO d   1      70.545  -7.067 136.865  0.00  0.00     0.031 H 
ATOM     12  H17 TCO d   1      72.077  -6.402 137.527  0.00  0.00     0.031 H 
ENDBRANCH   8   9
BRANCH   8  13
ATOM     13  C6  TCO d   1      72.925  -8.541 138.870  0.00  0.00    -0.048 C 
ATOM     14  H18 TCO d   1      72.423  -8.400 139.839  0.00  0.00     0.031 H 
ATOM     15  H19 TCO d   1      73.627  -7.712 138.697  0.00  0.00     0.031 H 
ATOM     16  H20 TCO d   1      73.477  -9.493 138.878  0.00  0.00     0.031 H 
ENDBRANCH   8  13
BRANCH   8  17
ATOM     17  C5  TCO d   1      70.739  -9.604 137.935  0.00  0.00    -0.048 C 
ATOM     18  H21 TCO d   1      70.265  -9.452 138.916  0.00  0.00     0.031 H 
ATOM     19  H22 TCO d   1      71.159 -10.619 137.885  0.00  0.00     0.031 H 
ATOM     20  H23 TCO d   1      69.988  -9.478 137.141  0.00  0.00     0.031 H 
ENDBRANCH   8  17
ENDBRANCH   7   8
ENDBRANCH   4   7
ENDBRANCH   1   3
BRANCH   1  21
ATOM     21  C   TCO d   1      76.059 -10.047 133.499  0.00  0.00     0.110 C 
ATOM     22  O   TCO d   1      77.153 -10.614 133.679  0.00  0.00    -0.305 OA
ATOM     23  H3  TCO d   1      76.091  -9.085 132.990  0.00  0.00     0.146 H 
ENDBRANCH   1  21
BRANCH   1  24
ATOM     24  CB  TCO d   1      73.697 -10.695 132.651  0.00  0.00    -0.028 C 
ATOM     25  CG2 TCO d   1      73.445 -12.148 132.231  0.00  0.00    -0.059 C 
ATOM     26  CD2 TCO d   1      72.994 -12.400 130.775  0.00  0.00    -0.065 C 
ATOM     27  H4  TCO d   1      74.382 -12.704 132.387  0.00  0.00     0.033 H 
ATOM     28  H5  TCO d   1      72.665 -12.552 132.893  0.00  0.00     0.033 H 
ATOM     29  CE  TCO d   1      72.204 -11.204 130.201  0.00  0.00    -0.065 C 
ATOM     30  H6  TCO d   1      72.353 -13.294 130.751  0.00  0.00     0.033 H 
ATOM     31  H7  TCO d   1      73.884 -12.570 130.151  0.00  0.00     0.033 H 
ATOM     32  CD1 TCO d   1      73.062  -9.934 130.185  0.00  0.00    -0.065 C 
ATOM     33  H8  TCO d   1      71.314 -11.029 130.824  0.00  0.00     0.033 H 
ATOM     34  H9  TCO d   1      71.892 -11.440 129.173  0.00  0.00     0.033 H 
ATOM     35  CG1 TCO d   1      73.948  -9.726 131.444  0.00  0.00    -0.059 C 
ATOM     36  H10 TCO d   1      72.389  -9.069 130.094  0.00  0.00     0.033 H 
ATOM     37  H11 TCO d   1      73.722  -9.979 129.306  0.00  0.00     0.033 H 
ATOM     38  H12 TCO d   1      73.783  -8.699 131.802  0.00  0.00     0.033 H 
ATOM     39  H13 TCO d   1      74.998  -9.843 131.136  0.00  0.00     0.033 H 
ATOM     40  H14 TCO d   1      72.722 -10.361 133.034  0.00  0.00     0.043 H 
ENDBRANCH   1  24
TORSDOF 8
