REMARK  10 active torsions:
REMARK  status: ('A' for Active; 'I' for Inactive)
REMARK    1  A    between atoms: C32_1  and  C33_2 
REMARK    2  A    between atoms: C1_15  and  C32_1 
REMARK    3  A    between atoms: C36_7  and  C37_8 
REMARK    4  A    between atoms: C37_8  and  P40_11 
REMARK    5  A    between atoms: C1_15  and  C12_16 
REMARK    6  A    between atoms: C51_30  and  C1_15 
REMARK    7  A    between atoms: C1_15  and  N61_38 
REMARK    8  A    between atoms: C12_16  and  C13_17 
REMARK    9  A    between atoms: C16_22  and  C17_23 
REMARK   10  A    between atoms: C17_23  and  P20_26 
ROOT
ATOM      1  C1  P27 d   1      -0.128  72.031  70.656  0.00  0.00     0.092 C 
ENDROOT
BRANCH   1   2
ATOM      2  C32 P27 d   1       0.345  71.469  69.201  0.00  0.00    -0.011 C 
ATOM      3  H1  P27 d   1       0.953  70.566  69.359  0.00  0.00     0.044 H 
ATOM      4  H2  P27 d   1      -0.553  71.209  68.621  0.00  0.00     0.044 H 
BRANCH   2   5
ATOM      5  C33 P27 d   1       1.189  72.493  68.371  0.00  0.00    -0.055 A 
ATOM      6  C4A P27 d   1       0.584  73.223  67.333  0.00  0.00    -0.076 A 
ATOM      7  C5A P27 d   1       1.310  74.085  66.500  0.00  0.00    -0.070 A 
ATOM      8  H3  P27 d   1      -0.482  73.115  67.171  0.00  0.00     0.084 H 
ATOM      9  C36 P27 d   1       2.711  74.247  66.674  0.00  0.00     0.027 A 
ATOM     10  H5  P27 d   1       0.799  74.633  65.717  0.00  0.00     0.084 H 
ATOM     11  C5B P27 d   1       3.353  73.534  67.715  0.00  0.00    -0.070 A 
ATOM     12  C4B P27 d   1       2.604  72.664  68.558  0.00  0.00    -0.076 A 
ATOM     13  H6  P27 d   1       4.419  73.651  67.871  0.00  0.00     0.084 H 
ATOM     14  H4  P27 d   1       3.108  72.124  69.351  0.00  0.00     0.084 H 
BRANCH   9  15
ATOM     15  C37 P27 d   1       3.464  75.194  65.787  0.00  0.00     0.380 C 
ATOM     16  F38 P27 d   1       4.542  75.628  66.443  0.00  0.00    -0.185 F 
ATOM     17  F39 P27 d   1       2.677  76.261  65.618  0.00  0.00    -0.185 F 
BRANCH  15  18
ATOM     18  P40 P27 d   1       3.921  74.691  64.291  0.00  0.00     0.339 P 
ATOM     19  O41 P27 d   1       2.694  74.158  63.488  0.00  0.00    -0.635 OA
ATOM     20  O42 P27 d   1       4.939  73.583  64.384  0.00  0.00    -0.635 OA
ATOM     21  O43 P27 d   1       4.469  75.912  63.573  0.00  0.00    -0.635 OA
ENDBRANCH  15  18
ENDBRANCH   9  15
ENDBRANCH   2   5
ENDBRANCH   1   2
BRANCH   1  22
ATOM     22  C12 P27 d   1      -0.973  73.388  70.575  0.00  0.00    -0.011 C 
ATOM     23  H7  P27 d   1      -0.297  74.203  70.275  0.00  0.00     0.044 H 
ATOM     24  H8  P27 d   1      -1.386  73.602  71.572  0.00  0.00     0.044 H 
BRANCH  22  25
ATOM     25  C13 P27 d   1      -2.140  73.322  69.564  0.00  0.00    -0.055 A 
ATOM     26  C1A P27 d   1      -2.278  74.375  68.609  0.00  0.00    -0.076 A 
ATOM     27  C2A P27 d   1      -3.350  74.438  67.696  0.00  0.00    -0.070 A 
ATOM     28  H9  P27 d   1      -1.528  75.157  68.585  0.00  0.00     0.084 H 
ATOM     29  C16 P27 d   1      -4.340  73.456  67.689  0.00  0.00     0.027 A 
ATOM     30  H11 P27 d   1      -3.405  75.260  66.991  0.00  0.00     0.084 H 
ATOM     31  C2B P27 d   1      -4.241  72.365  68.632  0.00  0.00    -0.070 A 
ATOM     32  C1B P27 d   1      -3.146  72.306  69.565  0.00  0.00    -0.076 A 
ATOM     33  H12 P27 d   1      -4.995  71.587  68.637  0.00  0.00     0.084 H 
ATOM     34  H10 P27 d   1      -3.084  71.487  70.272  0.00  0.00     0.084 H 
BRANCH  29  35
ATOM     35  C17 P27 d   1      -5.517  73.562  66.709  0.00  0.00     0.380 C 
ATOM     36  F18 P27 d   1      -6.210  72.416  66.690  0.00  0.00    -0.185 F 
ATOM     37  F19 P27 d   1      -5.049  73.715  65.495  0.00  0.00    -0.185 F 
BRANCH  35  38
ATOM     38  P20 P27 d   1      -6.557  74.764  67.044  0.00  0.00     0.339 P 
ATOM     39  O21 P27 d   1      -5.956  76.132  66.661  0.00  0.00    -0.635 OA
ATOM     40  O22 P27 d   1      -6.826  74.766  68.537  0.00  0.00    -0.635 OA
ATOM     41  O23 P27 d   1      -7.830  74.538  66.274  0.00  0.00    -0.635 OA
ENDBRANCH  35  38
ENDBRANCH  29  35
ENDBRANCH  22  25
ENDBRANCH   1  22
BRANCH   1  42
ATOM     42  C51 P27 d   1       1.150  72.336  71.574  0.00  0.00    -0.024 A 
ATOM     43  C6A P27 d   1       2.046  71.310  71.961  0.00  0.00    -0.034 A 
ATOM     44  C53 P27 d   1       3.163  71.602  72.764  0.00  0.00     0.155 A 
ATOM     45  H13 P27 d   1       1.869  70.291  71.636  0.00  0.00     0.089 H 
ATOM     46  F56 P27 d   1       3.990  70.622  73.112  0.00  0.00    -0.203 F 
ATOM     47  C55 P27 d   1       3.407  72.926  73.198  0.00  0.00     0.154 A 
ATOM     48  F57 P27 d   1       4.464  73.214  73.950  0.00  0.00    -0.203 F 
ATOM     49  C54 P27 d   1       2.543  73.962  72.841  0.00  0.00    -0.042 A 
ATOM     50  C6B P27 d   1       1.412  73.658  72.028  0.00  0.00    -0.071 A 
ATOM     51  H15 P27 d   1       2.728  74.977  73.175  0.00  0.00     0.088 H 
ATOM     52  H14 P27 d   1       0.734  74.456  71.748  0.00  0.00     0.084 H 
ENDBRANCH   1  42
BRANCH   1  53
ATOM     53  N61 P27 d   1      -0.955  70.868  71.187  0.00  0.00    -0.234 N 
ATOM     54  N62 P27 d   1      -1.510  69.766  70.569  0.00  0.00    -0.064 NA
ATOM     55  N63 P27 d   1      -2.088  69.162  71.590  0.00  0.00    -0.130 NA
ATOM     56  C7A P27 d   1      -1.999  69.703  72.831  0.00  0.00     0.109 A 
ATOM     57  C7B P27 d   1      -1.213  70.911  72.631  0.00  0.00     0.086 A 
ATOM     58  C8A P27 d   1      -2.457  69.353  74.078  0.00  0.00    -0.051 A 
ATOM     59  C8B P27 d   1      -0.930  71.724  73.751  0.00  0.00    -0.053 A 
ATOM     60  C9B P27 d   1      -1.401  71.353  75.026  0.00  0.00    -0.081 A 
ATOM     61  H17 P27 d   1      -0.351  72.632  73.630  0.00  0.00     0.087 H 
ATOM     62  C9A P27 d   1      -2.165  70.170  75.186  0.00  0.00    -0.081 A 
ATOM     63  H19 P27 d   1      -1.179  71.974  75.886  0.00  0.00     0.083 H 
ATOM     64  H18 P27 d   1      -2.527  69.892  76.169  0.00  0.00     0.083 H 
ATOM     65  H16 P27 d   1      -3.042  68.450  74.208  0.00  0.00     0.087 H 
ENDBRANCH   1  53
TORSDOF 10
