REMARK  9 active torsions:
REMARK  status: ('A' for Active; 'I' for Inactive)
REMARK    1  A    between atoms: C1_1  and  C32_2 
REMARK    2  A    between atoms: C1_1  and  N61_16 
REMARK    3  A    between atoms: C1_1  and  C51_25 
REMARK    4  A    between atoms: C1_1  and  C12_34 
REMARK    5  A    between atoms: C32_2  and  C33_3 
REMARK    6  A    between atoms: C36_8  and  C37_9 
REMARK    7  A    between atoms: C37_9  and  P40_12 
REMARK    8  A    between atoms: C12_34  and  C13_35 
REMARK    9  A    between atoms: C14_36  and  C15_37 
ROOT
ATOM      1  C1  P90 d   1       7.029  42.361  17.028  0.00  0.00     0.110 C 
ENDROOT
BRANCH   1   2
ATOM      2  C32 P90 d   1       6.479  43.043  18.425  0.00  0.00    -0.010 C 
ATOM      3  H1  P90 d   1       6.031  42.237  19.024  0.00  0.00     0.044 H 
ATOM      4  H2  P90 d   1       5.701  43.769  18.147  0.00  0.00     0.044 H 
BRANCH   2   5
ATOM      5  C33 P90 d   1       7.478  43.776  19.329  0.00  0.00    -0.055 A 
ATOM      6  C4A P90 d   1       8.179  43.022  20.357  0.00  0.00    -0.076 A 
ATOM      7  C5A P90 d   1       9.127  43.636  21.207  0.00  0.00    -0.070 A 
ATOM      8  H3  P90 d   1       7.970  41.965  20.474  0.00  0.00     0.084 H 
ATOM      9  C36 P90 d   1       9.401  45.043  21.058  0.00  0.00     0.027 A 
ATOM     10  H5  P90 d   1       9.642  43.055  21.963  0.00  0.00     0.084 H 
ATOM     11  C5B P90 d   1       8.716  45.813  20.054  0.00  0.00    -0.070 A 
ATOM     12  C4B P90 d   1       7.754  45.190  19.185  0.00  0.00    -0.076 A 
ATOM     13  H6  P90 d   1       8.927  46.871  19.952  0.00  0.00     0.084 H 
ATOM     14  H4  P90 d   1       7.240  45.774  18.430  0.00  0.00     0.084 H 
BRANCH   9  15
ATOM     15  C37 P90 d   1      10.432  45.669  21.933  0.00  0.00     0.380 C 
ATOM     16  F38 P90 d   1      11.002  46.703  21.186  0.00  0.00    -0.185 F 
ATOM     17  F39 P90 d   1      11.432  44.733  22.210  0.00  0.00    -0.185 F 
BRANCH  15  18
ATOM     18  P40 P90 d   1       9.829  46.325  23.568  0.00  0.00     0.339 P 
ATOM     19  O41 P90 d   1       9.216  45.163  24.308  0.00  0.00    -0.635 OA
ATOM     20  O42 P90 d   1       8.802  47.381  23.369  0.00  0.00    -0.635 OA
ATOM     21  O43 P90 d   1      11.056  46.838  24.270  0.00  0.00    -0.635 OA
ENDBRANCH  15  18
ENDBRANCH   9  15
ENDBRANCH   2   5
ENDBRANCH   1   2
BRANCH   1  22
ATOM     22  N61 P90 d   1       5.858  41.643  16.309  0.00  0.00    -0.255 N 
ATOM     23  N62 P90 d   1       4.700  41.334  17.070  0.00  0.00     0.007 NA
ATOM     24  N63 P90 d   1       3.885  40.713  16.127  0.00  0.00    -0.158 NA
ATOM     25  C7A P90 d   1       4.382  40.592  14.876  0.00  0.00     0.102 A 
ATOM     26  C7B P90 d   1       5.654  41.205  15.019  0.00  0.00     0.080 A 
ATOM     27  C8A P90 d   1       3.956  40.060  13.631  0.00  0.00    -0.052 A 
ATOM     28  C8B P90 d   1       6.562  41.297  13.859  0.00  0.00    -0.053 A 
ATOM     29  C9B P90 d   1       6.141  40.760  12.590  0.00  0.00    -0.081 A 
ATOM     30  H8  P90 d   1       7.535  41.764  13.961  0.00  0.00     0.087 H 
ATOM     31  C9A P90 d   1       4.840  40.141  12.480  0.00  0.00    -0.081 A 
ATOM     32  H10 P90 d   1       6.794  40.820  11.727  0.00  0.00     0.083 H 
ATOM     33  H9  P90 d   1       4.520  39.732  11.528  0.00  0.00     0.083 H 
ATOM     34  H7  P90 d   1       2.980  39.597  13.539  0.00  0.00     0.087 H 
ENDBRANCH   1  22
BRANCH   1  35
ATOM     35  C51 P90 d   1       7.573  43.507  16.200  0.00  0.00     0.107 A 
ATOM     36  S52 P90 d   1       9.304  43.748  15.859  0.00  0.00    -0.070 SA
ATOM     37  C55 P90 d   1       8.895  45.176  14.899  0.00  0.00     0.035 A 
ATOM     38  C54 P90 d   1       7.464  45.400  14.909  0.00  0.00     0.075 A 
ATOM     39  C56 P90 d   1       9.759  46.057  14.180  0.00  0.00    -0.064 A 
ATOM     40  N53 P90 d   1       6.808  44.446  15.635  0.00  0.00    -0.242 NA
ATOM     41  C59 P90 d   1       6.929  46.524  14.196  0.00  0.00    -0.054 A 
ATOM     42  C58 P90 d   1       7.806  47.422  13.474  0.00  0.00    -0.081 A 
ATOM     43  H14 P90 d   1       5.860  46.703  14.198  0.00  0.00     0.087 H 
ATOM     44  C57 P90 d   1       9.228  47.187  13.454  0.00  0.00    -0.082 A 
ATOM     45  H13 P90 d   1       7.392  48.274  12.947  0.00  0.00     0.083 H 
ATOM     46  H12 P90 d   1       9.888  47.847  12.903  0.00  0.00     0.083 H 
ATOM     47  H11 P90 d   1      10.828  45.875  14.179  0.00  0.00     0.085 H 
ENDBRANCH   1  35
BRANCH   1  48
ATOM     48  C12 P90 d   1       8.222  41.359  17.370  0.00  0.00    -0.018 C 
ATOM     49  H15 P90 d   1       9.075  41.932  17.763  0.00  0.00     0.043 H 
ATOM     50  H16 P90 d   1       8.526  40.832  16.454  0.00  0.00     0.043 H 
BRANCH  48  51
ATOM     51  C13 P90 d   1       7.780  40.339  18.412  0.00  0.00    -0.099 C 
ATOM     52  C14 P90 d   1       8.609  39.480  18.919  0.00  0.00    -0.077 C 
ATOM     53  H18 P90 d   1       9.648  39.514  18.596  0.00  0.00     0.084 H 
ATOM     54  H17 P90 d   1       6.741  40.331  18.739  0.00  0.00     0.076 H 
BRANCH  52  55
ATOM     55  C15 P90 d   1       8.215  38.448  19.921  0.00  0.00    -0.036 A 
ATOM     56  C1A P90 d   1       9.208  37.951  20.802  0.00  0.00    -0.073 A 
ATOM     57  C2A P90 d   1       8.868  36.944  21.762  0.00  0.00    -0.082 A 
ATOM     58  H19 P90 d   1      10.222  38.332  20.749  0.00  0.00     0.084 H 
ATOM     59  C16 P90 d   1       7.529  36.426  21.845  0.00  0.00    -0.083 A 
ATOM     60  H21 P90 d   1       9.630  36.567  22.435  0.00  0.00     0.083 H 
ATOM     61  C2B P90 d   1       6.528  36.938  20.954  0.00  0.00    -0.082 A 
ATOM     62  H23 P90 d   1       7.280  35.660  22.570  0.00  0.00     0.083 H 
ATOM     63  C1B P90 d   1       6.870  37.950  19.988  0.00  0.00    -0.073 A 
ATOM     64  H22 P90 d   1       5.513  36.563  21.008  0.00  0.00     0.083 H 
ATOM     65  H20 P90 d   1       6.114  38.335  19.313  0.00  0.00     0.084 H 
ENDBRANCH  52  55
ENDBRANCH  48  51
ENDBRANCH   1  48
TORSDOF 9
