REMARK  10 active torsions:
REMARK  status: ('A' for Active; 'I' for Inactive)
REMARK    1  A    between atoms: C30_19  and  C4_4 
REMARK    2  A    between atoms: C35_22  and  C11_8 
REMARK    3  A    between atoms: C14_11  and  C52_31 
REMARK    4  A    between atoms: C32_21  and  C21_14 
REMARK    5  A    between atoms: C24_17  and  C61_38 
REMARK    6  A    between atoms: N31_20  and  C30_19 
REMARK    7  A    between atoms: C30_19  and  C32_21 
REMARK    8  A    between atoms: C30_19  and  C35_22 
REMARK    9  A    between atoms: C52_31  and  P55_34 
REMARK   10  A    between atoms: C63_40  and  P71_44 
ROOT
ATOM      1  C30 213 d   1      38.355  46.676  53.521  0.00  0.00     0.087 C 
ENDROOT
BRANCH   1   2
ATOM      2  C4  213 d   1      37.981  48.028  54.376  0.00  0.00    -0.028 A 
ATOM      3  C3  213 d   1      39.016  48.964  54.680  0.00  0.00    -0.074 A 
ATOM      4  C2  213 d   1      38.726  50.150  55.408  0.00  0.00    -0.082 A 
ATOM      5  H3  213 d   1      40.031  48.769  54.353  0.00  0.00     0.084 H 
ATOM      6  C1  213 d   1      37.406  50.406  55.829  0.00  0.00    -0.083 A 
ATOM      7  H2  213 d   1      39.517  50.855  55.638  0.00  0.00     0.083 H 
ATOM      8  C6  213 d   1      36.366  49.493  55.542  0.00  0.00    -0.082 A 
ATOM      9  H1  213 d   1      37.186  51.314  56.379  0.00  0.00     0.083 H 
ATOM     10  C5  213 d   1      36.655  48.320  54.830  0.00  0.00    -0.074 A 
ATOM     11  H5  213 d   1      35.353  49.698  55.870  0.00  0.00     0.083 H 
ATOM     12  H4  213 d   1      35.856  47.618  54.618  0.00  0.00     0.084 H 
ENDBRANCH   1   2
BRANCH   1  13
ATOM     13  N31 213 d   1      39.509  45.967  54.190  0.00  0.00    -0.257 N 
ATOM     14  C43 213 d   1      39.618  45.653  55.575  0.00  0.00     0.080 A 
ATOM     15  C42 213 d   1      40.904  44.982  55.663  0.00  0.00     0.102 A 
ATOM     16  C44 213 d   1      38.871  45.835  56.758  0.00  0.00    -0.053 A 
ATOM     17  C41 213 d   1      41.386  44.512  56.859  0.00  0.00    -0.052 A 
ATOM     18  N46 213 d   1      41.348  44.983  54.378  0.00  0.00    -0.158 NA
ATOM     19  C40 213 d   1      40.625  44.694  58.049  0.00  0.00    -0.081 A 
ATOM     20  H19 213 d   1      42.343  44.004  56.898  0.00  0.00     0.087 H 
ATOM     21  C45 213 d   1      39.366  45.353  57.998  0.00  0.00    -0.081 A 
ATOM     22  H18 213 d   1      41.007  44.329  58.996  0.00  0.00     0.083 H 
ATOM     23  H21 213 d   1      38.786  45.487  58.904  0.00  0.00     0.083 H 
ATOM     24  N47 213 d   1      40.579  45.549  53.443  0.00  0.00     0.007 NA
ATOM     25  H20 213 d   1      37.915  46.345  56.720  0.00  0.00     0.087 H 
ENDBRANCH   1  13
BRANCH   1  26
ATOM     26  C32 213 d   1      37.012  45.814  53.415  0.00  0.00    -0.012 C 
ATOM     27  H14 213 d   1      36.709  45.565  54.443  0.00  0.00     0.044 H 
ATOM     28  H15 213 d   1      36.251  46.462  52.956  0.00  0.00     0.044 H 
BRANCH  26  29
ATOM     29  C21 213 d   1      37.020  44.447  52.588  0.00  0.00    -0.055 A 
ATOM     30  C20 213 d   1      38.070  43.587  52.679  0.00  0.00    -0.076 A 
ATOM     31  C25 213 d   1      38.055  42.392  51.918  0.00  0.00    -0.072 A 
ATOM     32  H10 213 d   1      38.909  43.813  53.327  0.00  0.00     0.084 H 
ATOM     33  C24 213 d   1      36.992  42.068  51.067  0.00  0.00    -0.026 A 
ATOM     34  H13 213 d   1      38.892  41.708  51.997  0.00  0.00     0.084 H 
ATOM     35  C23 213 d   1      35.922  42.979  50.995  0.00  0.00    -0.072 A 
ATOM     36  C22 213 d   1      35.907  44.189  51.750  0.00  0.00    -0.076 A 
ATOM     37  H12 213 d   1      35.083  42.754  50.346  0.00  0.00     0.084 H 
ATOM     38  H11 213 d   1      35.077  44.883  51.685  0.00  0.00     0.084 H 
BRANCH  33  39
ATOM     39  C61 213 d   1      36.862  40.768  50.181  0.00  0.00    -0.025 A 
ATOM     40  C62 213 d   1      37.178  39.542  50.847  0.00  0.00    -0.053 A 
ATOM     41  C63 213 d   1      37.085  38.291  50.158  0.00  0.00     0.069 A 
ATOM     42  H22 213 d   1      37.491  39.561  51.885  0.00  0.00     0.086 H 
ATOM     43  C64 213 d   1      36.677  38.264  48.811  0.00  0.00    -0.063 A 
ATOM     44  C65 213 d   1      36.363  39.472  48.148  0.00  0.00    -0.081 A 
ATOM     45  H23 213 d   1      36.604  37.320  48.284  0.00  0.00     0.085 H 
ATOM     46  C66 213 d   1      36.459  40.697  48.833  0.00  0.00    -0.072 A 
ATOM     47  H24 213 d   1      36.048  39.455  47.111  0.00  0.00     0.083 H 
ATOM     48  H25 213 d   1      36.216  41.614  48.308  0.00  0.00     0.084 H 
BRANCH  41  49
ATOM     49  P71 213 d   1      37.468  36.688  50.956  0.00  0.00     0.295 P 
ATOM     50  O72 213 d   1      38.465  35.952  50.067  0.00  0.00    -0.636 OA
ATOM     51  O73 213 d   1      36.246  35.889  51.090  0.00  0.00    -0.636 OA
ATOM     52  O74 213 d   1      38.167  36.943  52.297  0.00  0.00    -0.636 OA
ENDBRANCH  41  49
ENDBRANCH  33  39
ENDBRANCH  26  29
ENDBRANCH   1  26
BRANCH   1  53
ATOM     53  C35 213 d   1      38.837  47.150  52.062  0.00  0.00    -0.012 C 
ATOM     54  H16 213 d   1      39.667  47.861  52.191  0.00  0.00     0.044 H 
ATOM     55  H17 213 d   1      39.194  46.264  51.516  0.00  0.00     0.044 H 
BRANCH  53  56
ATOM     56  C11 213 d   1      37.678  47.878  51.153  0.00  0.00    -0.055 A 
ATOM     57  C10 213 d   1      36.894  47.243  50.241  0.00  0.00    -0.076 A 
ATOM     58  C15 213 d   1      35.903  47.935  49.493  0.00  0.00    -0.070 A 
ATOM     59  H6  213 d   1      37.029  46.179  50.080  0.00  0.00     0.084 H 
ATOM     60  C14 213 d   1      35.679  49.339  49.663  0.00  0.00     0.027 A 
ATOM     61  H9  213 d   1      35.302  47.386  48.776  0.00  0.00     0.084 H 
ATOM     62  C13 213 d   1      36.461  50.049  50.599  0.00  0.00    -0.070 A 
ATOM     63  C12 213 d   1      37.430  49.452  51.352  0.00  0.00    -0.076 A 
ATOM     64  H8  213 d   1      36.285  51.111  50.725  0.00  0.00     0.084 H 
ATOM     65  H7  213 d   1      38.015  50.023  52.063  0.00  0.00     0.084 H 
BRANCH  60  66
ATOM     66  C52 213 d   1      34.660  49.930  48.866  0.00  0.00     0.380 C 
ATOM     67  F53 213 d   1      34.055  50.920  49.442  0.00  0.00    -0.185 F 
ATOM     68  F54 213 d   1      33.670  48.971  48.600  0.00  0.00    -0.185 F 
BRANCH  66  69
ATOM     69  P55 213 d   1      35.094  50.481  47.157  0.00  0.00     0.339 P 
ATOM     70  O56 213 d   1      36.107  51.554  47.272  0.00  0.00    -0.635 OA
ATOM     71  O57 213 d   1      33.858  51.028  46.532  0.00  0.00    -0.635 OA
ATOM     72  O58 213 d   1      35.552  49.199  46.415  0.00  0.00    -0.635 OA
ENDBRANCH  66  69
ENDBRANCH  60  66
ENDBRANCH  53  56
ENDBRANCH   1  53
TORSDOF 10
