REMARK  11 active torsions:
REMARK  status: ('A' for Active; 'I' for Inactive)
REMARK    1  A    between atoms: C30_19  and  C4_4 
REMARK    2  A    between atoms: C35_22  and  C11_8 
REMARK    3  A    between atoms: C14_11  and  C52_31 
REMARK    4  A    between atoms: C21_14  and  C32_21 
REMARK    5  A    between atoms: C68_46  and  C24_17 
REMARK    6  A    between atoms: C30_19  and  N31_20 
REMARK    7  A    between atoms: C32_21  and  C30_19 
REMARK    8  A    between atoms: C30_19  and  C35_22 
REMARK    9  A    between atoms: C52_31  and  P55_34 
REMARK   10  A    between atoms: C67_45  and  C71_40 
REMARK   11  A    between atoms: C70_48  and  P79_49 
ROOT
ATOM      1  C30 214 d   1      38.553  46.601  52.738  0.00  0.00     0.087 C 
ENDROOT
BRANCH   1   2
ATOM      2  C4  214 d   1      38.199  47.857  53.634  0.00  0.00    -0.028 A 
ATOM      3  C3  214 d   1      39.199  48.786  54.070  0.00  0.00    -0.074 A 
ATOM      4  C2  214 d   1      38.843  49.912  54.835  0.00  0.00    -0.082 A 
ATOM      5  H3  214 d   1      40.238  48.620  53.809  0.00  0.00     0.084 H 
ATOM      6  C1  214 d   1      37.496  50.154  55.185  0.00  0.00    -0.083 A 
ATOM      7  H2  214 d   1      39.612  50.603  55.160  0.00  0.00     0.083 H 
ATOM      8  C6  214 d   1      36.477  49.268  54.785  0.00  0.00    -0.082 A 
ATOM      9  H1  214 d   1      37.244  51.032  55.768  0.00  0.00     0.083 H 
ATOM     10  C5  214 d   1      36.825  48.132  54.015  0.00  0.00    -0.074 A 
ATOM     11  H5  214 d   1      35.445  49.452  55.062  0.00  0.00     0.083 H 
ATOM     12  H4  214 d   1      36.044  47.449  53.701  0.00  0.00     0.084 H 
ENDBRANCH   1   2
BRANCH   1  13
ATOM     13  N31 214 d   1      39.743  45.883  53.316  0.00  0.00    -0.257 N 
ATOM     14  C43 214 d   1      39.947  45.556  54.683  0.00  0.00     0.080 A 
ATOM     15  C42 214 d   1      41.228  44.883  54.663  0.00  0.00     0.102 A 
ATOM     16  C44 214 d   1      39.263  45.685  55.918  0.00  0.00    -0.053 A 
ATOM     17  C41 214 d   1      41.805  44.402  55.819  0.00  0.00    -0.052 A 
ATOM     18  N46 214 d   1      41.584  44.930  53.339  0.00  0.00    -0.158 NA
ATOM     19  C40 214 d   1      41.121  44.544  57.055  0.00  0.00    -0.081 A 
ATOM     20  H19 214 d   1      42.775  43.919  55.785  0.00  0.00     0.087 H 
ATOM     21  C45 214 d   1      39.853  45.191  57.107  0.00  0.00    -0.081 A 
ATOM     22  H18 214 d   1      41.566  44.158  57.965  0.00  0.00     0.083 H 
ATOM     23  H21 214 d   1      39.340  45.305  58.055  0.00  0.00     0.083 H 
ATOM     24  N47 214 d   1      40.749  45.507  52.480  0.00  0.00     0.007 NA
ATOM     25  H20 214 d   1      38.290  46.161  55.952  0.00  0.00     0.087 H 
ENDBRANCH   1  13
BRANCH   1  26
ATOM     26  C32 214 d   1      37.317  45.619  52.710  0.00  0.00    -0.012 C 
ATOM     27  H14 214 d   1      37.122  45.332  53.754  0.00  0.00     0.044 H 
ATOM     28  H15 214 d   1      36.466  46.199  52.323  0.00  0.00     0.044 H 
BRANCH  26  29
ATOM     29  C21 214 d   1      37.362  44.319  51.902  0.00  0.00    -0.055 A 
ATOM     30  C20 214 d   1      38.316  43.294  52.141  0.00  0.00    -0.076 A 
ATOM     31  C25 214 d   1      38.321  42.100  51.373  0.00  0.00    -0.072 A 
ATOM     32  H10 214 d   1      39.054  43.426  52.924  0.00  0.00     0.084 H 
ATOM     33  C24 214 d   1      37.379  41.893  50.343  0.00  0.00    -0.026 A 
ATOM     34  H13 214 d   1      39.060  41.335  51.581  0.00  0.00     0.084 H 
ATOM     35  C23 214 d   1      36.431  42.915  50.100  0.00  0.00    -0.072 A 
ATOM     36  C22 214 d   1      36.418  44.101  50.858  0.00  0.00    -0.076 A 
ATOM     37  H12 214 d   1      35.698  42.782  49.312  0.00  0.00     0.084 H 
ATOM     38  H11 214 d   1      35.676  44.862  50.643  0.00  0.00     0.084 H 
BRANCH  33  39
ATOM     39  C68 214 d   1      37.491  40.605  49.629  0.00  0.00    -0.024 A 
ATOM     40  C61 214 d   1      38.751  40.034  49.276  0.00  0.00    -0.060 A 
ATOM     41  C64 214 d   1      38.788  38.791  48.571  0.00  0.00    -0.005 A 
ATOM     42  H22 214 d   1      39.673  40.539  49.541  0.00  0.00     0.086 H 
ATOM     43  C63 214 d   1      40.019  38.138  48.174  0.00  0.00    -0.069 A 
ATOM     44  C65 214 d   1      37.532  38.131  48.244  0.00  0.00     0.087 A 
ATOM     45  C62 214 d   1      40.003  36.920  47.464  0.00  0.00    -0.059 A 
ATOM     46  H27 214 d   1      40.969  38.594  48.427  0.00  0.00     0.085 H 
ATOM     47  C67 214 d   1      38.750  36.349  47.163  0.00  0.00     0.031 A 
ATOM     48  H23 214 d   1      40.925  36.438  47.159  0.00  0.00     0.086 H 
ATOM     49  N66 214 d   1      37.588  36.943  47.548  0.00  0.00    -0.252 NA
ATOM     50  C70 214 d   1      36.282  38.694  48.606  0.00  0.00     0.098 A 
ATOM     51  C69 214 d   1      36.258  39.934  49.303  0.00  0.00    -0.050 A 
ATOM     52  H28 214 d   1      35.310  40.375  49.590  0.00  0.00     0.086 H 
BRANCH  47  53
ATOM     53  C71 214 d   1      38.779  35.063  46.387  0.00  0.00    -0.035 C 
ATOM     54  H24 214 d   1      37.750  34.716  46.213  0.00  0.00     0.035 H 
ATOM     55  H25 214 d   1      39.331  34.302  46.959  0.00  0.00     0.035 H 
ATOM     56  H26 214 d   1      39.278  35.229  45.421  0.00  0.00     0.035 H 
ENDBRANCH  47  53
BRANCH  50  57
ATOM     57  P79 214 d   1      34.741  37.813  48.218  0.00  0.00     0.298 P 
ATOM     58  O80 214 d   1      34.472  36.986  49.458  0.00  0.00    -0.636 OA
ATOM     59  O81 214 d   1      34.882  36.922  47.061  0.00  0.00    -0.636 OA
ATOM     60  O82 214 d   1      33.558  38.769  48.035  0.00  0.00    -0.636 OA
ENDBRANCH  50  57
ENDBRANCH  33  39
ENDBRANCH  26  29
ENDBRANCH   1  26
BRANCH   1  61
ATOM     61  C35 214 d   1      38.861  47.153  51.286  0.00  0.00    -0.012 C 
ATOM     62  H16 214 d   1      39.718  47.835  51.383  0.00  0.00     0.044 H 
ATOM     63  H17 214 d   1      39.149  46.286  50.673  0.00  0.00     0.044 H 
BRANCH  61  64
ATOM     64  C11 214 d   1      37.792  47.903  50.506  0.00  0.00    -0.055 A 
ATOM     65  C10 214 d   1      36.920  47.281  49.602  0.00  0.00    -0.076 A 
ATOM     66  C15 214 d   1      35.939  47.998  48.935  0.00  0.00    -0.070 A 
ATOM     67  H6  214 d   1      37.015  46.217  49.421  0.00  0.00     0.084 H 
ATOM     68  C14 214 d   1      35.790  49.399  49.142  0.00  0.00     0.027 A 
ATOM     69  H9  214 d   1      35.277  47.486  48.247  0.00  0.00     0.084 H 
ATOM     70  C13 214 d   1      36.657  50.071  50.042  0.00  0.00    -0.070 A 
ATOM     71  C12 214 d   1      37.650  49.318  50.710  0.00  0.00    -0.076 A 
ATOM     72  H8  214 d   1      36.560  51.137  50.214  0.00  0.00     0.084 H 
ATOM     73  H7  214 d   1      38.322  49.822  51.395  0.00  0.00     0.084 H 
BRANCH  68  74
ATOM     74  C52 214 d   1      34.693  50.086  48.419  0.00  0.00     0.380 C 
ATOM     75  F53 214 d   1      34.276  51.181  49.098  0.00  0.00    -0.185 F 
ATOM     76  F54 214 d   1      33.655  49.217  48.314  0.00  0.00    -0.185 F 
BRANCH  74  77
ATOM     77  P55 214 d   1      35.236  50.602  46.717  0.00  0.00     0.339 P 
ATOM     78  O56 214 d   1      35.722  49.379  45.924  0.00  0.00    -0.635 OA
ATOM     79  O57 214 d   1      36.320  51.566  46.817  0.00  0.00    -0.635 OA
ATOM     80  O58 214 d   1      33.998  51.210  46.062  0.00  0.00    -0.635 OA
ENDBRANCH  74  77
ENDBRANCH  68  74
ENDBRANCH  61  64
ENDBRANCH   1  61
TORSDOF 11
