REMARK  17 active torsions:
REMARK  status: ('A' for Active; 'I' for Inactive)
REMARK    1  A    between atoms: C30_19  and  C4_4 
REMARK    2  A    between atoms: C35_22  and  C11_8 
REMARK    3  A    between atoms: C14_11  and  C52_31 
REMARK    4  A    between atoms: C21_14  and  C32_21 
REMARK    5  A    between atoms: C68_45  and  C24_17 
REMARK    6  A    between atoms: C30_19  and  N31_20 
REMARK    7  A    between atoms: C32_21  and  C30_19 
REMARK    8  A    between atoms: C30_19  and  C35_22 
REMARK    9  A    between atoms: C52_31  and  P55_34 
REMARK   10  A    between atoms: C71_54  and  C67_44 
REMARK   11  A    between atoms: C70_47  and  P79_48 
REMARK   12  A    between atoms: O77_53  and  C76_52 
REMARK   13  A    between atoms: O77_53  and  C71_54 
REMARK   14  A    between atoms: C71_54  and  C72_55 
REMARK   15  A    between atoms: C72_55  and  C73_56 
REMARK   16  A    between atoms: C73_56  and  C74_57 
REMARK   17  A    between atoms: C73_56  and  C75_58 
ROOT
ATOM      1  C20 600 d   1      38.142  43.626  52.800  0.00  0.00    -0.076 A 
ATOM      2  C21 600 d   1      37.124  44.602  52.491  0.00  0.00    -0.055 A 
ATOM      3  C22 600 d   1      36.160  44.273  51.477  0.00  0.00    -0.076 A 
ATOM      4  C23 600 d   1      36.199  43.033  50.797  0.00  0.00    -0.072 A 
ATOM      5  C24 600 d   1      37.202  42.056  51.096  0.00  0.00    -0.026 A 
ATOM      6  C25 600 d   1      38.174  42.380  52.114  0.00  0.00    -0.072 A 
ATOM      7  H10 600 d   1      38.886  43.844  53.558  0.00  0.00     0.084 H 
ATOM      8  H11 600 d   1      35.386  44.990  51.228  0.00  0.00     0.084 H 
ATOM      9  H12 600 d   1      35.457  42.819  50.036  0.00  0.00     0.084 H 
ATOM     10  H13 600 d   1      38.944  41.658  52.361  0.00  0.00     0.084 H 
ENDROOT
BRANCH   2  11
ATOM     11  C32 600 d   1      37.136  45.993  53.277  0.00  0.00    -0.012 C 
ATOM     12  H14 600 d   1      36.807  45.757  54.300  0.00  0.00     0.044 H 
ATOM     13  H15 600 d   1      36.378  46.618  52.783  0.00  0.00     0.044 H 
BRANCH  11  14
ATOM     14  C30 600 d   1      38.406  46.919  53.443  0.00  0.00     0.087 C 
BRANCH  14  15
ATOM     15  C4  600 d   1      38.014  48.228  54.272  0.00  0.00    -0.028 A 
ATOM     16  C3  600 d   1      39.025  49.226  54.643  0.00  0.00    -0.074 A 
ATOM     17  C2  600 d   1      38.667  50.401  55.365  0.00  0.00    -0.082 A 
ATOM     18  H3  600 d   1      40.060  49.066  54.363  0.00  0.00     0.084 H 
ATOM     19  C1  600 d   1      37.304  50.645  55.738  0.00  0.00    -0.083 A 
ATOM     20  H2  600 d   1      39.433  51.118  55.635  0.00  0.00     0.083 H 
ATOM     21  C6  600 d   1      36.286  49.704  55.406  0.00  0.00    -0.082 A 
ATOM     22  H1  600 d   1      37.046  51.550  56.276  0.00  0.00     0.083 H 
ATOM     23  C5  600 d   1      36.632  48.511  54.690  0.00  0.00    -0.074 A 
ATOM     24  H5  600 d   1      35.257  49.889  55.693  0.00  0.00     0.083 H 
ATOM     25  H4  600 d   1      35.853  47.797  54.450  0.00  0.00     0.084 H 
ENDBRANCH  14  15
BRANCH  14  26
ATOM     26  N31 600 d   1      39.559  46.210  54.095  0.00  0.00    -0.257 N 
ATOM     27  C43 600 d   1      39.736  45.879  55.480  0.00  0.00     0.080 A 
ATOM     28  C42 600 d   1      41.040  45.211  55.475  0.00  0.00     0.102 A 
ATOM     29  C44 600 d   1      39.048  46.032  56.727  0.00  0.00    -0.053 A 
ATOM     30  C41 600 d   1      41.611  44.722  56.638  0.00  0.00    -0.052 A 
ATOM     31  N46 600 d   1      41.407  45.235  54.175  0.00  0.00    -0.158 NA
ATOM     32  C40 600 d   1      40.920  44.876  57.884  0.00  0.00    -0.081 A 
ATOM     33  H19 600 d   1      42.574  44.226  56.606  0.00  0.00     0.087 H 
ATOM     34  C45 600 d   1      39.638  45.527  57.935  0.00  0.00    -0.081 A 
ATOM     35  H18 600 d   1      41.367  44.498  58.796  0.00  0.00     0.083 H 
ATOM     36  H21 600 d   1      39.120  45.636  58.881  0.00  0.00     0.083 H 
ATOM     37  N47 600 d   1      40.586  45.810  53.285  0.00  0.00     0.007 NA
ATOM     38  H20 600 d   1      38.084  46.528  56.759  0.00  0.00     0.087 H 
ENDBRANCH  14  26
BRANCH  14  39
ATOM     39  C35 600 d   1      38.760  47.446  51.964  0.00  0.00    -0.012 C 
ATOM     40  H16 600 d   1      39.598  48.151  52.072  0.00  0.00     0.044 H 
ATOM     41  H17 600 d   1      39.090  46.569  51.387  0.00  0.00     0.044 H 
BRANCH  39  42
ATOM     42  C11 600 d   1      37.689  48.159  51.112  0.00  0.00    -0.055 A 
ATOM     43  C10 600 d   1      36.880  47.446  50.143  0.00  0.00    -0.076 A 
ATOM     44  C15 600 d   1      35.892  48.090  49.384  0.00  0.00    -0.070 A 
ATOM     45  H6  600 d   1      37.044  46.384  50.001  0.00  0.00     0.084 H 
ATOM     46  C14 600 d   1      35.647  49.495  49.543  0.00  0.00     0.027 A 
ATOM     47  H9  600 d   1      35.308  47.521  48.670  0.00  0.00     0.084 H 
ATOM     48  C13 600 d   1      36.441  50.254  50.502  0.00  0.00    -0.070 A 
ATOM     49  C12 600 d   1      37.448  49.586  51.274  0.00  0.00    -0.076 A 
ATOM     50  H8  600 d   1      36.271  51.317  50.631  0.00  0.00     0.084 H 
ATOM     51  H7  600 d   1      38.037  50.151  51.987  0.00  0.00     0.084 H 
BRANCH  46  52
ATOM     52  C52 600 d   1      34.555  50.121  48.743  0.00  0.00     0.380 C 
ATOM     53  F53 600 d   1      34.085  51.205  49.397  0.00  0.00    -0.185 F 
ATOM     54  F54 600 d   1      33.559  49.220  48.622  0.00  0.00    -0.185 F 
BRANCH  52  55
ATOM     55  P55 600 d   1      35.094  50.643  47.059  0.00  0.00     0.339 P 
ATOM     56  O56 600 d   1      35.638  49.428  46.280  0.00  0.00    -0.635 OA
ATOM     57  O57 600 d   1      36.158  51.645  47.236  0.00  0.00    -0.635 OA
ATOM     58  O58 600 d   1      33.831  51.210  46.406  0.00  0.00    -0.635 OA
ENDBRANCH  52  55
ENDBRANCH  46  52
ENDBRANCH  39  42
ENDBRANCH  14  39
ENDBRANCH  11  14
ENDBRANCH   2  11
BRANCH   5  59
ATOM     59  C68 600 d   1      37.286  40.664  50.387  0.00  0.00    -0.024 A 
ATOM     60  C61 600 d   1      38.579  40.034  50.132  0.00  0.00    -0.060 A 
ATOM     61  C64 600 d   1      38.611  38.732  49.469  0.00  0.00    -0.005 A 
ATOM     62  H22 600 d   1      39.499  40.524  50.429  0.00  0.00     0.086 H 
ATOM     63  C63 600 d   1      39.835  38.012  49.161  0.00  0.00    -0.069 A 
ATOM     64  C65 600 d   1      37.321  38.098  49.076  0.00  0.00     0.087 A 
ATOM     65  C62 600 d   1      39.815  36.738  48.503  0.00  0.00    -0.056 A 
ATOM     66  H24 600 d   1      40.788  38.449  49.436  0.00  0.00     0.085 H 
ATOM     67  C67 600 d   1      38.515  36.171  48.151  0.00  0.00     0.064 A 
ATOM     68  H23 600 d   1      40.735  36.212  48.274  0.00  0.00     0.086 H 
ATOM     69  N66 600 d   1      37.370  36.857  48.445  0.00  0.00    -0.249 NA
ATOM     70  C70 600 d   1      36.064  38.752  49.349  0.00  0.00     0.098 A 
ATOM     71  C69 600 d   1      36.069  40.017  49.993  0.00  0.00    -0.050 A 
ATOM     72  H25 600 d   1      35.124  40.509  50.193  0.00  0.00     0.086 H 
BRANCH  67  73
ATOM     73  C71 600 d   1      38.345  34.932  47.480  0.00  0.00     0.080 C 
ATOM     74  H29 600 d   1      37.278  34.690  47.592  0.00  0.00     0.093 H 
BRANCH  73  75
ATOM     75  O77 600 d   1      38.493  34.774  46.206  0.00  0.00    -0.385 OA
BRANCH  75  76
ATOM     76  C76 600 d   1      38.792  35.721  45.428  0.00  0.00     0.005 C 
ATOM     77  H26 600 d   1      38.861  35.341  44.398  0.00  0.00     0.066 H 
ATOM     78  H27 600 d   1      39.760  36.149  45.727  0.00  0.00     0.066 H 
ATOM     79  H28 600 d   1      38.015  36.498  45.481  0.00  0.00     0.066 H 
ENDBRANCH  75  76
ENDBRANCH  73  75
BRANCH  73  80
ATOM     80  C72 600 d   1      39.075  34.046  48.499  0.00  0.00    -0.033 C 
ATOM     81  H30 600 d   1      40.098  34.241  48.145  0.00  0.00     0.037 H 
ATOM     82  H31 600 d   1      38.732  33.076  48.111  0.00  0.00     0.037 H 
BRANCH  80  83
ATOM     83  C73 600 d   1      39.433  33.586  49.867  0.00  0.00    -0.059 C 
ATOM     84  H32 600 d   1      39.979  34.430  50.314  0.00  0.00     0.039 H 
BRANCH  83  85
ATOM     85  C74 600 d   1      38.412  33.200  50.929  0.00  0.00    -0.073 C 
ATOM     86  H33 600 d   1      38.935  32.897  51.848  0.00  0.00     0.028 H 
ATOM     87  H34 600 d   1      37.800  32.362  50.562  0.00  0.00     0.028 H 
ATOM     88  H35 600 d   1      37.763  34.062  51.144  0.00  0.00     0.028 H 
ENDBRANCH  83  85
BRANCH  83  89
ATOM     89  C75 600 d   1      40.432  32.433  49.668  0.00  0.00    -0.073 C 
ATOM     90  H36 600 d   1      41.168  32.714  48.901  0.00  0.00     0.028 H 
ATOM     91  H37 600 d   1      39.892  31.531  49.344  0.00  0.00     0.028 H 
ATOM     92  H38 600 d   1      40.951  32.229  50.617  0.00  0.00     0.028 H 
ENDBRANCH  83  89
ENDBRANCH  80  83
ENDBRANCH  73  80
ENDBRANCH  67  73
BRANCH  70  93
ATOM     93  P79 600 d   1      34.453  38.037  48.914  0.00  0.00     0.298 P 
ATOM     94  O80 600 d   1      33.445  39.159  48.706  0.00  0.00    -0.636 OA
ATOM     95  O81 600 d   1      33.970  37.175  49.984  0.00  0.00    -0.636 OA
ATOM     96  O82 600 d   1      34.596  37.263  47.580  0.00  0.00    -0.636 OA
ENDBRANCH  70  93
ENDBRANCH   5  59
TORSDOF 17
