REMARK  14 active torsions:
REMARK  status: ('A' for Active; 'I' for Inactive)
REMARK    1  A    between atoms: N2_1  and  C8_2 
REMARK    2  A    between atoms: N3_8  and  C20_23 
REMARK    3  A    between atoms: C11_9  and  C12_10 
REMARK    4  A    between atoms: C1_21  and  N1_22 
REMARK    5  A    between atoms: C20_23  and  C21_24 
REMARK    6  A    between atoms: C21_24  and  C22_25 
REMARK    7  A    between atoms: C22_25  and  C23_26 
REMARK    8  A    between atoms: C23_26  and  C24_27 
REMARK    9  A    between atoms: C24_27  and  C25_28 
REMARK   10  A    between atoms: C25_28  and  C26_29 
REMARK   11  A    between atoms: N4_30  and  C28_34 
REMARK   12  A    between atoms: C28_34  and  C29_35 
REMARK   13  A    between atoms: C29_35  and  N7_36 
REMARK   14  A    between atoms: N7_36  and  C30_37 
ROOT
ATOM      1  C23 TZ5 d   1      33.444  22.785   9.474  0.00  0.00    -0.065 C 
ATOM      2  H22 TZ5 d   1      33.263  23.769   9.932  0.00  0.00     0.033 H 
ATOM      3  H23 TZ5 d   1      34.101  22.192  10.127  0.00  0.00     0.033 H 
ENDROOT
BRANCH   1   4
ATOM      4  C22 TZ5 d   1      34.167  23.005   8.146  0.00  0.00    -0.064 C 
ATOM      5  H20 TZ5 d   1      34.192  22.055   7.592  0.00  0.00     0.033 H 
ATOM      6  H21 TZ5 d   1      33.617  23.756   7.561  0.00  0.00     0.033 H 
BRANCH   4   7
ATOM      7  C21 TZ5 d   1      35.622  23.501   8.359  0.00  0.00    -0.050 C 
ATOM      8  H18 TZ5 d   1      36.253  22.624   8.568  0.00  0.00     0.035 H 
ATOM      9  H19 TZ5 d   1      35.957  23.981   7.428  0.00  0.00     0.035 H 
BRANCH   7  10
ATOM     10  C20 TZ5 d   1      35.812  24.511   9.512  0.00  0.00     0.000 C 
ATOM     11  H16 TZ5 d   1      35.095  25.328   9.347  0.00  0.00     0.064 H 
ATOM     12  H17 TZ5 d   1      35.562  23.986  10.446  0.00  0.00     0.064 H 
BRANCH  10  13
ATOM     13  N3  TZ5 d   1      37.164  25.142   9.708  0.00  0.00    -0.345 N 
ATOM     14  C18 TZ5 d   1      38.115  24.488  10.541  0.00  0.00     0.048 A 
ATOM     15  C5  TZ5 d   1      39.383  25.130  10.797  0.00  0.00     0.002 A 
ATOM     16  C19 TZ5 d   1      38.096  23.070  10.751  0.00  0.00    -0.031 A 
ATOM     17  C6  TZ5 d   1      40.408  24.285  11.379  0.00  0.00    -0.068 A 
ATOM     18  C4  TZ5 d   1      39.694  26.372  10.072  0.00  0.00    -0.011 A 
ATOM     19  C7  TZ5 d   1      40.292  22.946  11.600  0.00  0.00    -0.057 A 
ATOM     20  H4  TZ5 d   1      41.342  24.757  11.661  0.00  0.00     0.085 H 
ATOM     21  C8  TZ5 d   1      39.105  22.269  11.277  0.00  0.00     0.027 A 
ATOM     22  H3  TZ5 d   1      41.123  22.398  12.029  0.00  0.00     0.086 H 
ATOM     23  C10 TZ5 d   1      38.698  26.934   9.171  0.00  0.00     0.005 A 
ATOM     24  C3  TZ5 d   1      40.803  27.253  10.377  0.00  0.00    -0.069 A 
ATOM     25  C11 TZ5 d   1      37.420  26.299   9.034  0.00  0.00     0.056 A 
ATOM     26  C9  TZ5 d   1      38.943  28.267   8.630  0.00  0.00    -0.045 A 
ATOM     27  C1  TZ5 d   1      40.027  29.085   8.943  0.00  0.00     0.026 A 
ATOM     28  H11 TZ5 d   1      38.219  28.655   7.923  0.00  0.00     0.088 H 
ATOM     29  C2  TZ5 d   1      40.974  28.516   9.855  0.00  0.00    -0.057 A 
ATOM     30  H13 TZ5 d   1      41.846  29.093  10.141  0.00  0.00     0.086 H 
ATOM     31  H12 TZ5 d   1      41.555  26.891  11.068  0.00  0.00     0.085 H 
ATOM     32  H5  TZ5 d   1      37.184  22.559  10.465  0.00  0.00     0.090 H 
BRANCH  21  33
ATOM     33  N2  TZ5 d   1      38.901  20.918  11.465  0.00  0.00    -0.399 N 
ATOM     34  H1  TZ5 d   1      39.654  20.333  11.855  0.00  0.00     0.156 HD
ATOM     35  H2  TZ5 d   1      37.996  20.494  11.215  0.00  0.00     0.156 HD
ENDBRANCH  21  33
BRANCH  25  36
ATOM     36  C12 TZ5 d   1      36.397  26.914   8.116  0.00  0.00    -0.008 A 
ATOM     37  C13 TZ5 d   1      35.530  27.932   8.556  0.00  0.00    -0.071 A 
ATOM     38  C14 TZ5 d   1      34.599  28.507   7.682  0.00  0.00    -0.082 A 
ATOM     39  H6  TZ5 d   1      35.584  28.275   9.583  0.00  0.00     0.084 H 
ATOM     40  C15 TZ5 d   1      34.510  28.066   6.353  0.00  0.00    -0.083 A 
ATOM     41  H7  TZ5 d   1      33.944  29.296   8.034  0.00  0.00     0.083 H 
ATOM     42  C16 TZ5 d   1      35.357  27.052   5.883  0.00  0.00    -0.082 A 
ATOM     43  H8  TZ5 d   1      33.782  28.512   5.685  0.00  0.00     0.083 H 
ATOM     44  C17 TZ5 d   1      36.281  26.496   6.766  0.00  0.00    -0.071 A 
ATOM     45  H9  TZ5 d   1      35.294  26.709   4.857  0.00  0.00     0.083 H 
ATOM     46  H10 TZ5 d   1      36.938  25.712   6.406  0.00  0.00     0.084 H 
ENDBRANCH  25  36
BRANCH  27  47
ATOM     47  N1  TZ5 d   1      40.159  30.349   8.396  0.00  0.00    -0.399 N 
ATOM     48  H14 TZ5 d   1      39.445  30.706   7.745  0.00  0.00     0.156 HD
ATOM     49  H15 TZ5 d   1      40.971  30.933   8.640  0.00  0.00     0.156 HD
ENDBRANCH  27  47
ENDBRANCH  10  13
ENDBRANCH   7  10
ENDBRANCH   4   7
ENDBRANCH   1   4
BRANCH   1  50
ATOM     50  C24 TZ5 d   1      32.110  22.062   9.363  0.00  0.00    -0.060 C 
ATOM     51  H24 TZ5 d   1      32.274  20.981   9.243  0.00  0.00     0.033 H 
ATOM     52  H25 TZ5 d   1      31.542  22.444   8.502  0.00  0.00     0.033 H 
BRANCH  50  53
ATOM     53  C25 TZ5 d   1      31.356  22.337  10.650  0.00  0.00    -0.024 C 
ATOM     54  H26 TZ5 d   1      30.355  22.690  10.361  0.00  0.00     0.042 H 
ATOM     55  H27 TZ5 d   1      31.895  23.145  11.166  0.00  0.00     0.042 H 
BRANCH  53  56
ATOM     56  C26 TZ5 d   1      31.155  21.247  11.650  0.00  0.00     0.051 A 
ATOM     57  N4  TZ5 d   1      31.169  21.164  12.995  0.00  0.00    -0.253 N 
ATOM     58  N5  TZ5 d   1      30.862  19.955  13.421  0.00  0.00    -0.066 NA
ATOM     59  N6  TZ5 d   1      30.614  19.134  12.443  0.00  0.00    -0.142 NA
ATOM     60  C27 TZ5 d   1      30.790  19.942  11.416  0.00  0.00     0.049 A 
ATOM     61  H28 TZ5 d   1      30.648  19.581  10.398  0.00  0.00     0.120 H 
BRANCH  57  62
ATOM     62  C28 TZ5 d   1      31.467  22.289  13.861  0.00  0.00     0.033 C 
ATOM     63  H29 TZ5 d   1      32.233  22.919  13.385  0.00  0.00     0.070 H 
ATOM     64  H30 TZ5 d   1      31.847  21.914  14.823  0.00  0.00     0.070 H 
BRANCH  62  65
ATOM     65  C29 TZ5 d   1      30.214  23.125  14.109  0.00  0.00     0.009 C 
ATOM     66  H31 TZ5 d   1      29.676  23.253  13.158  0.00  0.00     0.066 H 
ATOM     67  H32 TZ5 d   1      30.513  24.110  14.497  0.00  0.00     0.066 H 
BRANCH  65  68
ATOM     68  N7  TZ5 d   1      29.319  22.480  15.082  0.00  0.00    -0.387 N 
ATOM     69  H33 TZ5 d   1      29.614  22.384  16.064  0.00  0.00     0.159 HD
BRANCH  68  70
ATOM     70  C30 TZ5 d   1      28.083  22.001  14.685  0.00  0.00     0.049 A 
ATOM     71  C31 TZ5 d   1      27.128  22.725  13.917  0.00  0.00     0.020 A 
ATOM     72  C32 TZ5 d   1      27.238  24.116  13.515  0.00  0.00    -0.069 A 
ATOM     73  C33 TZ5 d   1      25.915  22.081  13.564  0.00  0.00     0.069 A 
ATOM     74  C36 TZ5 d   1      26.298  24.791  12.813  0.00  0.00    -0.082 A 
ATOM     75  H34 TZ5 d   1      28.137  24.652  13.797  0.00  0.00     0.085 H 
ATOM     76  C35 TZ5 d   1      25.106  24.126  12.451  0.00  0.00    -0.081 A 
ATOM     77  H37 TZ5 d   1      26.458  25.826  12.533  0.00  0.00     0.083 H 
ATOM     78  C34 TZ5 d   1      24.938  22.828  12.814  0.00  0.00    -0.054 A 
ATOM     79  H36 TZ5 d   1      24.336  24.644  11.891  0.00  0.00     0.083 H 
ATOM     80  H35 TZ5 d   1      24.021  22.328  12.524  0.00  0.00     0.087 H 
ATOM     81  N8  TZ5 d   1      25.622  20.832  13.956  0.00  0.00    -0.252 NA
ATOM     82  C37 TZ5 d   1      26.513  20.120  14.676  0.00  0.00     0.043 A 
ATOM     83  C38 TZ5 d   1      26.134  18.812  15.171  0.00  0.00    -0.024 C 
ATOM     84  C39 TZ5 d   1      27.754  20.686  15.108  0.00  0.00    -0.006 A 
ATOM     85  C42 TZ5 d   1      27.018  17.955  15.761  0.00  0.00    -0.060 C 
ATOM     86  H38 TZ5 d   1      25.717  18.271  14.309  0.00  0.00     0.042 H 
ATOM     87  H39 TZ5 d   1      25.341  18.987  15.913  0.00  0.00     0.042 H 
ATOM     88  C41 TZ5 d   1      28.000  18.659  16.515  0.00  0.00    -0.061 C 
ATOM     89  H44 TZ5 d   1      27.521  17.366  14.980  0.00  0.00     0.033 H 
ATOM     90  H45 TZ5 d   1      26.468  17.279  16.433  0.00  0.00     0.033 H 
ATOM     91  C40 TZ5 d   1      28.456  19.884  16.093  0.00  0.00    -0.037 C 
ATOM     92  H42 TZ5 d   1      27.578  18.809  17.520  0.00  0.00     0.033 H 
ATOM     93  H43 TZ5 d   1      28.879  18.001  16.580  0.00  0.00     0.033 H 
ATOM     94  H40 TZ5 d   1      28.532  20.508  16.996  0.00  0.00     0.040 H 
ATOM     95  H41 TZ5 d   1      29.462  19.709  15.683  0.00  0.00     0.040 H 
ENDBRANCH  68  70
ENDBRANCH  65  68
ENDBRANCH  62  65
ENDBRANCH  57  62
ENDBRANCH  53  56
ENDBRANCH  50  53
ENDBRANCH   1  50
TORSDOF 14
