REMARK  12 active torsions:
REMARK  status: ('A' for Active; 'I' for Inactive)
REMARK    1  A    between atoms: O1_1  and  C1_2 
REMARK    2  A    between atoms: C4_5  and  C7_8 
REMARK    3  A    between atoms: C7_8  and  C8_9 
REMARK    4  A    between atoms: N2_16  and  C12_17 
REMARK    5  A    between atoms: C12_17  and  C13_18 
REMARK    6  A    between atoms: C12_17  and  C22_30 
REMARK       I    between atoms: C13_18  and  N3_20 
REMARK    7  A    between atoms: N3_20  and  C14_21 
REMARK    8  A    between atoms: C14_21  and  C15_22 
REMARK    9  A    between atoms: C15_22  and  C16_23 
REMARK   10  A    between atoms: C19_26  and  O5_27 
REMARK   11  A    between atoms: C22_30  and  C23_31 
REMARK   12  A    between atoms: C23_31  and  C24_32 
ROOT
ATOM      1  C8  OI1 d   1      41.698  78.342  18.918  0.00  0.00     0.096 C 
ATOM      2  C9  OI1 d   1      41.577  77.166  17.890  0.00  0.00     0.244 C 
ATOM      3  O2  OI1 d   1      42.029  77.282  16.739  0.00  0.00    -0.271 OA
ATOM      4  N1  OI1 d   1      40.968  75.924  18.266  0.00  0.00    -0.332 N 
ATOM      5  C10 OI1 d   1      40.439  75.690  19.643  0.00  0.00     0.096 C 
ATOM      6  C11 OI1 d   1      40.281  76.996  20.438  0.00  0.00     0.244 C 
ATOM      7  O3  OI1 d   1      39.606  76.945  21.466  0.00  0.00    -0.271 OA
ATOM      8  N2  OI1 d   1      40.938  78.218  20.083  0.00  0.00    -0.323 N 
ATOM      9  C25 OI1 d   1      41.246  74.552  20.328  0.00  0.00    -0.013 C 
ATOM     10  C26 OI1 d   1      41.681  73.471  19.334  0.00  0.00    -0.048 A 
ATOM     11  C27 OI1 d   1      42.269  72.309  19.852  0.00  0.00    -0.076 A 
ATOM     12  C28 OI1 d   1      42.693  71.273  18.985  0.00  0.00    -0.082 A 
ATOM     13  C29 OI1 d   1      42.541  71.400  17.586  0.00  0.00    -0.082 A 
ATOM     14  C30 OI1 d   1      41.943  72.571  17.040  0.00  0.00    -0.075 A 
ATOM     15  C31 OI1 d   1      41.510  73.609  17.911  0.00  0.00    -0.034 A 
ATOM     16  C32 OI1 d   1      40.874  74.858  17.326  0.00  0.00     0.023 C 
ATOM     17  H8  OI1 d   1      41.314  79.235  18.403  0.00  0.00     0.088 H 
ATOM     18  H9  OI1 d   1      39.417  75.300  19.524  0.00  0.00     0.088 H 
ATOM     19  H28 OI1 d   1      40.617  74.088  21.102  0.00  0.00     0.043 H 
ATOM     20  H29 OI1 d   1      42.143  74.985  20.795  0.00  0.00     0.043 H 
ATOM     21  H30 OI1 d   1      42.400  72.203  20.923  0.00  0.00     0.084 H 
ATOM     22  H31 OI1 d   1      43.138  70.375  19.398  0.00  0.00     0.083 H 
ATOM     23  H32 OI1 d   1      42.879  70.607  16.929  0.00  0.00     0.083 H 
ATOM     24  H33 OI1 d   1      41.819  72.671  15.968  0.00  0.00     0.084 H 
ATOM     25  H34 OI1 d   1      41.399  75.138  16.401  0.00  0.00     0.071 H 
ATOM     26  H35 OI1 d   1      39.816  74.660  17.101  0.00  0.00     0.071 H 
ENDROOT
BRANCH   8  27
ATOM     27  C12 OI1 d   1      40.773  79.425  20.936  0.00  0.00     0.092 C 
ATOM     28  H10 OI1 d   1      41.272  80.281  20.457  0.00  0.00     0.087 H 
BRANCH  27  29
ATOM     29  C13 OI1 d   1      41.431  79.191  22.371  0.00  0.00     0.240 C 
ATOM     30  O4  OI1 d   1      42.344  79.945  22.676  0.00  0.00    -0.271 OA
ATOM     31  N3  OI1 d   1      41.027  78.221  23.189  0.00  0.00    -0.359 N 
ATOM     32  H11 OI1 d   1      40.276  77.622  22.910  0.00  0.00     0.162 HD
BRANCH  31  33
ATOM     33  C14 OI1 d   1      41.665  78.019  24.489  0.00  0.00    -0.001 C 
ATOM     34  H12 OI1 d   1      42.361  78.848  24.685  0.00  0.00     0.064 H 
ATOM     35  H13 OI1 d   1      42.219  77.069  24.479  0.00  0.00     0.064 H 
BRANCH  33  36
ATOM     36  C15 OI1 d   1      40.611  77.975  25.588  0.00  0.00    -0.026 C 
ATOM     37  H14 OI1 d   1      41.120  77.977  26.563  0.00  0.00     0.042 H 
ATOM     38  H15 OI1 d   1      40.030  77.047  25.480  0.00  0.00     0.042 H 
BRANCH  36  39
ATOM     39  C16 OI1 d   1      39.660  79.147  25.539  0.00  0.00    -0.057 A 
ATOM     40  C17 OI1 d   1      40.056  80.402  26.011  0.00  0.00    -0.074 A 
ATOM     41  C18 OI1 d   1      39.236  81.514  25.895  0.00  0.00    -0.051 A 
ATOM     42  H16 OI1 d   1      41.028  80.508  26.479  0.00  0.00     0.084 H 
ATOM     43  C19 OI1 d   1      37.997  81.390  25.307  0.00  0.00     0.065 A 
ATOM     44  H17 OI1 d   1      39.569  82.477  26.266  0.00  0.00     0.087 H 
ATOM     45  C20 OI1 d   1      37.564  80.157  24.816  0.00  0.00    -0.051 A 
ATOM     46  C21 OI1 d   1      38.401  79.033  24.937  0.00  0.00    -0.074 A 
ATOM     47  H19 OI1 d   1      36.592  80.067  24.346  0.00  0.00     0.087 H 
ATOM     48  H20 OI1 d   1      38.069  78.072  24.562  0.00  0.00     0.084 H 
BRANCH  43  49
ATOM     49  O5  OI1 d   1      37.198  82.504  25.222  0.00  0.00    -0.361 OA
ATOM     50  H18 OI1 d   1      37.021  82.833  26.096  0.00  0.00     0.217 HD
ENDBRANCH  43  49
ENDBRANCH  36  39
ENDBRANCH  33  36
ENDBRANCH  31  33
ENDBRANCH  27  29
BRANCH  27  51
ATOM     51  C22 OI1 d   1      39.209  79.728  21.052  0.00  0.00    -0.038 C 
ATOM     52  H21 OI1 d   1      38.790  79.121  21.869  0.00  0.00     0.036 H 
ATOM     53  H22 OI1 d   1      38.724  79.452  20.104  0.00  0.00     0.036 H 
BRANCH  51  54
ATOM     54  C23 OI1 d   1      38.936  81.150  21.329  0.00  0.00    -0.066 C 
ATOM     55  H23 OI1 d   1      39.456  81.760  20.576  0.00  0.00     0.032 H 
ATOM     56  H24 OI1 d   1      39.324  81.393  22.329  0.00  0.00     0.032 H 
BRANCH  54  57
ATOM     57  C24 OI1 d   1      37.452  81.493  21.289  0.00  0.00    -0.076 C 
ATOM     58  H25 OI1 d   1      37.317  82.564  21.503  0.00  0.00     0.027 H 
ATOM     59  H26 OI1 d   1      36.918  80.898  22.044  0.00  0.00     0.027 H 
ATOM     60  H27 OI1 d   1      37.050  81.265  20.291  0.00  0.00     0.027 H 
ENDBRANCH  54  57
ENDBRANCH  51  54
ENDBRANCH  27  51
ENDBRANCH   8  27
BRANCH   1  61
ATOM     61  C7  OI1 d   1      43.138  78.609  19.241  0.00  0.00    -0.014 C 
ATOM     62  H6  OI1 d   1      43.719  78.657  18.308  0.00  0.00     0.043 H 
ATOM     63  H7  OI1 d   1      43.221  79.568  19.774  0.00  0.00     0.043 H 
BRANCH  61  64
ATOM     64  C4  OI1 d   1      43.680  77.502  20.113  0.00  0.00    -0.056 A 
ATOM     65  C3  OI1 d   1      43.898  77.709  21.476  0.00  0.00    -0.074 A 
ATOM     66  C2  OI1 d   1      44.487  76.743  22.266  0.00  0.00    -0.051 A 
ATOM     67  H3  OI1 d   1      43.598  78.649  21.924  0.00  0.00     0.084 H 
ATOM     68  C1  OI1 d   1      44.879  75.531  21.699  0.00  0.00     0.065 A 
ATOM     69  H2  OI1 d   1      44.644  76.926  23.323  0.00  0.00     0.087 H 
ATOM     70  C6  OI1 d   1      44.676  75.302  20.340  0.00  0.00    -0.051 A 
ATOM     71  C5  OI1 d   1      44.078  76.288  19.560  0.00  0.00    -0.074 A 
ATOM     72  H5  OI1 d   1      44.981  74.363  19.893  0.00  0.00     0.087 H 
ATOM     73  H4  OI1 d   1      43.919  76.107  18.503  0.00  0.00     0.084 H 
BRANCH  68  74
ATOM     74  O1  OI1 d   1      45.472  74.556  22.489  0.00  0.00    -0.361 OA
ATOM     75  H1  OI1 d   1      45.677  73.798  21.954  0.00  0.00     0.217 HD
ENDBRANCH  68  74
ENDBRANCH  61  64
ENDBRANCH   1  61
TORSDOF 12
