REMARK  5 active torsions:
REMARK  status: ('A' for Active; 'I' for Inactive)
REMARK    1  A    between atoms: C5_1  and  C3_7 
REMARK    2  A    between atoms: C7_3  and  O3_13 
REMARK    3  A    between atoms: C8_4  and  O2_19 
REMARK    4  A    between atoms: O3_13  and  C11_14 
REMARK    5  A    between atoms: O2_19  and  C16_20 
ROOT
ATOM      1  C5  ROL d   1      21.299  -2.818  30.953  0.00  0.00    -0.049 A 
ATOM      2  C6  ROL d   1      21.564  -4.041  31.590  0.00  0.00    -0.042 A 
ATOM      3  C7  ROL d   1      21.863  -4.077  32.963  0.00  0.00     0.103 A 
ATOM      4  C8  ROL d   1      21.891  -2.902  33.692  0.00  0.00     0.101 A 
ATOM      5  C9  ROL d   1      21.631  -1.686  33.056  0.00  0.00    -0.048 A 
ATOM      6  C10 ROL d   1      21.341  -1.654  31.696  0.00  0.00    -0.074 A 
ATOM      7  H1  ROL d   1      21.538  -4.963  31.020  0.00  0.00     0.088 H 
ATOM      8  H2  ROL d   1      21.655  -0.763  33.625  0.00  0.00     0.087 H 
ATOM      9  H3  ROL d   1      21.145  -0.704  31.213  0.00  0.00     0.084 H 
ENDROOT
BRANCH   3  10
ATOM     10  O3  ROL d   1      22.135  -5.250  33.638  0.00  0.00    -0.343 OA
BRANCH  10  11
ATOM     11  C11 ROL d   1      21.957  -6.423  32.832  0.00  0.00     0.045 C 
ATOM     12  C15 ROL d   1      21.077  -7.406  33.594  0.00  0.00    -0.040 C 
ATOM     13  C14 ROL d   1      21.899  -8.568  34.092  0.00  0.00    -0.063 C 
ATOM     14  H11 ROL d   1      20.288  -7.780  32.925  0.00  0.00     0.036 H 
ATOM     15  H12 ROL d   1      20.618  -6.893  34.452  0.00  0.00     0.036 H 
ATOM     16  C13 ROL d   1      23.322  -8.357  33.602  0.00  0.00    -0.063 C 
ATOM     17  H13 ROL d   1      21.499  -9.511  33.692  0.00  0.00     0.033 H 
ATOM     18  H14 ROL d   1      21.880  -8.599  35.191  0.00  0.00     0.033 H 
ATOM     19  C12 ROL d   1      23.314  -7.104  32.752  0.00  0.00    -0.040 C 
ATOM     20  H15 ROL d   1      23.647  -9.219  33.001  0.00  0.00     0.033 H 
ATOM     21  H16 ROL d   1      24.002  -8.229  34.458  0.00  0.00     0.033 H 
ATOM     22  H17 ROL d   1      24.089  -6.413  33.116  0.00  0.00     0.036 H 
ATOM     23  H18 ROL d   1      23.524  -7.373  31.706  0.00  0.00     0.036 H 
ATOM     24  H10 ROL d   1      21.547  -6.180  31.841  0.00  0.00     0.084 H 
ENDBRANCH  10  11
ENDBRANCH   3  10
BRANCH   4  25
ATOM     25  O2  ROL d   1      22.132  -2.999  35.053  0.00  0.00    -0.353 OA
BRANCH  25  26
ATOM     26  C16 ROL d   1      23.078  -2.046  35.518  0.00  0.00     0.010 C 
ATOM     27  H19 ROL d   1      23.225  -2.174  36.601  0.00  0.00     0.066 H 
ATOM     28  H20 ROL d   1      22.706  -1.031  35.316  0.00  0.00     0.066 H 
ATOM     29  H21 ROL d   1      24.035  -2.196  34.998  0.00  0.00     0.066 H 
ENDBRANCH  25  26
ENDBRANCH   4  25
BRANCH   1  30
ATOM     30  C3  ROL d   1      20.903  -2.744  29.503  0.00  0.00    -0.005 A 
ATOM     31  C2  ROL d   1      21.356  -4.000  28.765  0.00  0.00     0.018 A 
ATOM     32  C1  ROL d   1      20.177  -4.820  28.400  0.00  0.00     0.218 A 
ATOM     33  H5  ROL d   1      22.021  -4.586  29.416  0.00  0.00     0.048 H 
ATOM     34  H6  ROL d   1      21.897  -3.712  27.852  0.00  0.00     0.048 H 
ATOM     35  O1  ROL d   1      20.195  -5.936  27.903  0.00  0.00    -0.274 OA
ATOM     36  N1  ROL d   1      19.112  -4.124  28.750  0.00  0.00    -0.360 N 
ATOM     37  C4  ROL d   1      19.352  -2.833  29.392  0.00  0.00     0.003 A 
ATOM     38  H7  ROL d   1      18.186  -4.463  28.584  0.00  0.00     0.162 HD
ATOM     39  H8  ROL d   1      18.957  -2.012  28.776  0.00  0.00     0.065 H 
ATOM     40  H9  ROL d   1      18.887  -2.800  30.388  0.00  0.00     0.065 H 
ATOM     41  H4  ROL d   1      21.301  -1.829  29.040  0.00  0.00     0.050 H 
ENDBRANCH   1  30
TORSDOF 5
