REMARK  12 active torsions:
REMARK  status: ('A' for Active; 'I' for Inactive)
REMARK    1  A    between atoms: N_1  and  CA_2 
REMARK    2  A    between atoms: CA_2  and  C_3 
REMARK    3  A    between atoms: CA_2  and  CB_6 
REMARK    4  A    between atoms: CB_6  and  CG_7 
REMARK    5  A    between atoms: CG_7  and  CD_8 
REMARK    6  A    between atoms: CD_8  and  NE_9 
REMARK    7  A    between atoms: CD_8  and  C5_10 
REMARK    8  A    between atoms: C5_10  and  C4_11 
REMARK    9  A    between atoms: C3_13  and  O3_14 
REMARK   10  A    between atoms: C2_15  and  O2_16 
REMARK   11  A    between atoms: C1_17  and  N9_18 
REMARK   12  A    between atoms: C6_22  and  N6_23 
ROOT
ATOM      1  C4  SFG d   1      16.990  35.594  23.909  0.00  0.00     0.070 C 
ATOM      2  O4  SFG d   1      17.312  34.844  25.061  0.00  0.00    -0.355 OA
ATOM      3  C3  SFG d   1      17.939  36.790  23.884  0.00  0.00     0.089 C 
ATOM      4  C2  SFG d   1      19.085  36.357  24.789  0.00  0.00     0.105 C 
ATOM      5  C1  SFG d   1      18.369  35.447  25.777  0.00  0.00     0.139 C 
ATOM      6  H15 SFG d   1      15.963  35.974  24.012  0.00  0.00     0.087 H 
ATOM      7  H16 SFG d   1      18.291  36.987  22.861  0.00  0.00     0.091 H 
ATOM      8  H18 SFG d   1      19.872  35.825  24.234  0.00  0.00     0.093 H 
ATOM      9  H20 SFG d   1      17.968  36.046  26.608  0.00  0.00     0.122 H 
ENDROOT
BRANCH   1  10
ATOM     10  C5  SFG d   1      17.030  34.728  22.635  0.00  0.00    -0.012 C 
ATOM     11  H13 SFG d   1      18.082  34.599  22.341  0.00  0.00     0.040 H 
ATOM     12  H14 SFG d   1      16.593  33.747  22.873  0.00  0.00     0.040 H 
BRANCH  10  13
ATOM     13  CD  SFG d   1      16.260  35.319  21.426  0.00  0.00     0.102 C 
ATOM     14  H9  SFG d   1      16.778  36.239  21.119  0.00  0.00     0.084 H 
BRANCH  13  15
ATOM     15  CG  SFG d   1      14.789  35.701  21.695  0.00  0.00    -0.036 C 
ATOM     16  H7  SFG d   1      14.195  35.417  20.814  0.00  0.00     0.036 H 
ATOM     17  H8  SFG d   1      14.442  35.132  22.570  0.00  0.00     0.036 H 
BRANCH  15  18
ATOM     18  CB  SFG d   1      14.551  37.205  21.973  0.00  0.00    -0.027 C 
ATOM     19  H5  SFG d   1      14.881  37.417  23.001  0.00  0.00     0.036 H 
ATOM     20  H6  SFG d   1      15.163  37.782  21.265  0.00  0.00     0.036 H 
BRANCH  18  21
ATOM     21  CA  SFG d   1      13.076  37.683  21.834  0.00  0.00     0.182 C 
ATOM     22  H4  SFG d   1      13.058  38.755  22.082  0.00  0.00     0.101 H 
BRANCH  21  23
ATOM     23  N   SFG d   1      12.111  36.981  22.673  0.00  0.00    -0.065 N 
ATOM     24  H1  SFG d   1      12.389  37.056  23.639  0.00  0.00     0.275 HD
ATOM     25  H2  SFG d   1      12.079  36.009  22.407  0.00  0.00     0.275 HD
ATOM     26  H3  SFG d   1      11.199  37.393  22.552  0.00  0.00     0.275 HD
ENDBRANCH  21  23
BRANCH  21  27
ATOM     27  C   SFG d   1      12.514  37.472  20.439  0.00  0.00     0.204 C 
ATOM     28  O   SFG d   1      12.187  38.440  19.782  0.00  0.00    -0.646 OA
ATOM     29  OXT SFG d   1      12.410  36.341  19.994  0.00  0.00    -0.646 OA
ENDBRANCH  21  27
ENDBRANCH  18  21
ENDBRANCH  15  18
ENDBRANCH  13  15
BRANCH  13  30
ATOM     30  NE  SFG d   1      16.356  34.351  20.345  0.00  0.00    -0.075 N 
ATOM     31  H10 SFG d   1      17.324  34.117  20.188  0.00  0.00     0.274 HD
ATOM     32  H11 SFG d   1      15.965  34.746  19.504  0.00  0.00     0.274 HD
ATOM     33  H12 SFG d   1      15.845  33.518  20.593  0.00  0.00     0.274 HD
ENDBRANCH  13  30
ENDBRANCH  10  13
ENDBRANCH   1  10
BRANCH   3  34
ATOM     34  O3  SFG d   1      17.323  37.976  24.419  0.00  0.00    -0.390 OA
ATOM     35  H17 SFG d   1      17.066  37.819  25.320  0.00  0.00     0.210 HD
ENDBRANCH   3  34
BRANCH   5  36
ATOM     36  N9  SFG d   1      19.269  34.405  26.328  0.00  0.00    -0.294 N 
ATOM     37  C8  SFG d   1      20.289  33.729  25.732  0.00  0.00     0.071 A 
ATOM     38  N7  SFG d   1      20.913  32.831  26.531  0.00  0.00    -0.236 NA
ATOM     39  H21 SFG d   1      20.580  33.897  24.696  0.00  0.00     0.144 H 
ATOM     40  C5  SFG d   1      20.239  32.927  27.731  0.00  0.00     0.149 A 
ATOM     41  C6  SFG d   1      20.347  32.309  28.955  0.00  0.00     0.155 A 
ATOM     42  C4  SFG d   1      19.211  33.908  27.615  0.00  0.00     0.167 A 
ATOM     43  N1  SFG d   1      19.534  32.596  30.005  0.00  0.00    -0.222 NA
ATOM     44  C2  SFG d   1      18.571  33.549  29.816  0.00  0.00     0.091 A 
ATOM     45  N3  SFG d   1      18.378  34.211  28.658  0.00  0.00    -0.222 NA
ATOM     46  H24 SFG d   1      17.922  33.787  30.651  0.00  0.00     0.146 H 
BRANCH  41  47
ATOM     47  N6  SFG d   1      21.288  31.377  29.154  0.00  0.00    -0.382 N 
ATOM     48  H22 SFG d   1      21.369  30.914  30.071  0.00  0.00     0.157 HD
ATOM     49  H23 SFG d   1      21.931  31.123  28.390  0.00  0.00     0.157 HD
ENDBRANCH  41  47
ENDBRANCH   5  36
BRANCH   4  50
ATOM     50  O2  SFG d   1      19.635  37.493  25.465  0.00  0.00    -0.388 OA
ATOM     51  H19 SFG d   1      18.960  37.904  25.992  0.00  0.00     0.210 HD
ENDBRANCH   4  50
TORSDOF 12
