REMARK  15 active torsions:
REMARK  status: ('A' for Active; 'I' for Inactive)
REMARK    1  A    between atoms: C3_3  and  O6_37 
REMARK    2  A    between atoms: C4_4  and  C18_18 
REMARK    3  A    between atoms: C8_8  and  C20_20 
REMARK    4  A    between atoms: C10_10  and  C19_19 
REMARK    5  A    between atoms: C11_11  and  O1_32 
REMARK    6  A    between atoms: C14_14  and  C21_21 
REMARK    7  A    between atoms: C16_16  and  O2_33 
REMARK    8  A    between atoms: C22_22  and  C29_29 
REMARK    9  A    between atoms: C22_22  and  C23_23 
REMARK   10  A    between atoms: C23_23  and  C24_24 
REMARK   11  A    between atoms: C24_24  and  C25_25 
REMARK   12  A    between atoms: C26_26  and  C28_28 
REMARK   13  A    between atoms: C26_26  and  C27_27 
REMARK   14  A    between atoms: O2_33  and  C31_30 
REMARK   15  A    between atoms: C31_30  and  C32_31 
ROOT
ATOM      1  C1  FUA d   1      -0.241  16.471  15.977  0.00  0.00    -0.055 C 
ATOM      2  C2  FUA d   1      -1.218  16.002  17.080  0.00  0.00    -0.040 C 
ATOM      3  C3  FUA d   1      -1.729  14.601  16.969  0.00  0.00     0.039 C 
ATOM      4  C4  FUA d   1      -0.609  13.555  16.485  0.00  0.00    -0.029 C 
ATOM      5  C5  FUA d   1       0.198  14.168  15.394  0.00  0.00    -0.041 C 
ATOM      6  C6  FUA d   1       0.979  13.137  14.614  0.00  0.00    -0.060 C 
ATOM      7  C7  FUA d   1       1.878  13.669  13.463  0.00  0.00    -0.057 C 
ATOM      8  C8  FUA d   1       1.610  15.144  13.112  0.00  0.00    -0.029 C 
ATOM      9  C9  FUA d   1       1.757  15.996  14.416  0.00  0.00    -0.014 C 
ATOM     10  C10 FUA d   1       0.850  15.480  15.628  0.00  0.00    -0.033 C 
ATOM     11  C11 FUA d   1       1.538  17.554  14.062  0.00  0.00     0.041 C 
ATOM     12  C12 FUA d   1       2.600  18.024  13.063  0.00  0.00    -0.033 C 
ATOM     13  C13 FUA d   1       2.561  17.196  11.745  0.00  0.00    -0.019 C 
ATOM     14  C14 FUA d   1       2.733  15.693  12.073  0.00  0.00    -0.026 C 
ATOM     15  C15 FUA d   1       2.712  15.110  10.700  0.00  0.00    -0.029 C 
ATOM     16  C16 FUA d   1       3.415  16.126   9.773  0.00  0.00     0.071 C 
ATOM     17  C17 FUA d   1       3.431  17.430  10.591  0.00  0.00    -0.033 C 
ATOM     18  C22 FUA d   1       4.229  18.359  10.092  0.00  0.00     0.024 C 
ATOM     19  H1  FUA d   1      -0.825  16.672  15.066  0.00  0.00     0.034 H 
ATOM     20  H2  FUA d   1       0.238  17.401  16.318  0.00  0.00     0.034 H 
ATOM     21  H3  FUA d   1      -2.087  16.676  17.065  0.00  0.00     0.036 H 
ATOM     22  H4  FUA d   1      -0.700  16.093  18.046  0.00  0.00     0.036 H 
ATOM     23  H5  FUA d   1      -2.087  14.280  17.958  0.00  0.00     0.083 H 
ATOM     24  H6  FUA d   1       0.077  13.312  17.309  0.00  0.00     0.043 H 
ATOM     25  H7  FUA d   1      -0.583  14.455  14.675  0.00  0.00     0.042 H 
ATOM     26  H8  FUA d   1       0.257  12.433  14.175  0.00  0.00     0.033 H 
ATOM     27  H9  FUA d   1       1.627  12.602  15.324  0.00  0.00     0.033 H 
ATOM     28  H10 FUA d   1       1.695  13.058  12.567  0.00  0.00     0.034 H 
ATOM     29  H11 FUA d   1       2.930  13.568  13.767  0.00  0.00     0.034 H 
ATOM     30  H12 FUA d   1       2.799  15.889  14.751  0.00  0.00     0.046 H 
ATOM     31  H13 FUA d   1       1.575  18.174  14.970  0.00  0.00     0.083 H 
ATOM     32  H14 FUA d   1       3.594  17.916  13.522  0.00  0.00     0.037 H 
ATOM     33  H15 FUA d   1       2.420  19.082  12.824  0.00  0.00     0.037 H 
ATOM     34  H16 FUA d   1       1.540  17.346  11.365  0.00  0.00     0.048 H 
ATOM     35  H17 FUA d   1       1.674  14.953  10.371  0.00  0.00     0.038 H 
ATOM     36  H18 FUA d   1       3.250  14.151  10.688  0.00  0.00     0.038 H 
ATOM     37  H19 FUA d   1       2.970  16.192   8.769  0.00  0.00     0.091 H 
ENDROOT
BRANCH  16  38
ATOM     38  O2  FUA d   1       4.879  15.857   9.796  0.00  0.00    -0.312 OA
BRANCH  38  39
ATOM     39  C31 FUA d   1       5.392  14.977   8.903  0.00  0.00     0.255 C 
ATOM     40  O3  FUA d   1       4.748  14.423   8.139  0.00  0.00    -0.266 OA
BRANCH  39  41
ATOM     41  C32 FUA d   1       6.789  14.863   9.119  0.00  0.00     0.004 C 
ATOM     42  H43 FUA d   1       7.215  14.150   8.398  0.00  0.00     0.041 H 
ATOM     43  H44 FUA d   1       6.974  14.504  10.142  0.00  0.00     0.041 H 
ATOM     44  H45 FUA d   1       7.262  15.847   8.985  0.00  0.00     0.041 H 
ENDBRANCH  39  41
ENDBRANCH  38  39
ENDBRANCH  16  38
BRANCH  18  45
ATOM     45  C29 FUA d   1       5.018  18.141   8.880  0.00  0.00     0.205 C 
ATOM     46  O5  FUA d   1       4.605  17.615   7.774  0.00  0.00    -0.644 OA
ATOM     47  O4  FUA d   1       6.207  18.577   8.828  0.00  0.00    -0.644 OA
ENDBRANCH  18  45
BRANCH  18  48
ATOM     48  C23 FUA d   1       4.412  19.703  10.761  0.00  0.00    -0.031 C 
ATOM     49  H32 FUA d   1       4.500  19.503  11.839  0.00  0.00     0.040 H 
ATOM     50  H33 FUA d   1       3.492  20.274  10.568  0.00  0.00     0.040 H 
BRANCH  48  51
ATOM     51  C24 FUA d   1       5.574  20.624  10.397  0.00  0.00    -0.046 C 
ATOM     52  H34 FUA d   1       5.301  21.113   9.451  0.00  0.00     0.039 H 
ATOM     53  H35 FUA d   1       6.448  19.976  10.236  0.00  0.00     0.039 H 
BRANCH  51  54
ATOM     54  C25 FUA d   1       6.013  21.704  11.320  0.00  0.00    -0.101 C 
ATOM     55  C26 FUA d   1       5.303  22.578  11.838  0.00  0.00    -0.091 C 
ATOM     56  H36 FUA d   1       7.073  21.730  11.568  0.00  0.00     0.077 H 
BRANCH  55  57
ATOM     57  C28 FUA d   1       3.727  22.682  11.535  0.00  0.00    -0.055 C 
ATOM     58  H40 FUA d   1       3.439  21.898  10.819  0.00  0.00     0.033 H 
ATOM     59  H41 FUA d   1       3.500  23.670  11.108  0.00  0.00     0.033 H 
ATOM     60  H42 FUA d   1       3.164  22.549  12.471  0.00  0.00     0.033 H 
ENDBRANCH  55  57
BRANCH  55  61
ATOM     61  C27 FUA d   1       5.433  23.775  12.854  0.00  0.00    -0.055 C 
ATOM     62  H37 FUA d   1       4.453  24.259  12.978  0.00  0.00     0.033 H 
ATOM     63  H38 FUA d   1       6.157  24.507  12.467  0.00  0.00     0.033 H 
ATOM     64  H39 FUA d   1       5.779  23.395  13.826  0.00  0.00     0.033 H 
ENDBRANCH  55  61
ENDBRANCH  51  54
ENDBRANCH  48  51
ENDBRANCH  18  48
BRANCH  14  65
ATOM     65  C21 FUA d   1       4.224  15.523  12.473  0.00  0.00    -0.068 C 
ATOM     66  H29 FUA d   1       4.379  15.921  13.486  0.00  0.00     0.028 H 
ATOM     67  H30 FUA d   1       4.859  16.072  11.762  0.00  0.00     0.028 H 
ATOM     68  H31 FUA d   1       4.489  14.456  12.454  0.00  0.00     0.028 H 
ENDBRANCH  14  65
BRANCH  11  69
ATOM     69  O1  FUA d   1       0.237  17.607  13.451  0.00  0.00    -0.395 OA
ATOM     70  H46 FUA d   1       0.037  18.505  13.213  0.00  0.00     0.210 HD
ENDBRANCH  11  69
BRANCH   8  71
ATOM     71  C20 FUA d   1       0.262  15.298  12.559  0.00  0.00    -0.068 C 
ATOM     72  H26 FUA d   1       0.170  14.695  11.643  0.00  0.00     0.028 H 
ATOM     73  H27 FUA d   1       0.082  16.357  12.320  0.00  0.00     0.028 H 
ATOM     74  H28 FUA d   1      -0.478  14.958  13.298  0.00  0.00     0.028 H 
ENDBRANCH   8  71
BRANCH  10  75
ATOM     75  C19 FUA d   1       1.763  15.260  16.881  0.00  0.00    -0.068 C 
ATOM     76  H23 FUA d   1       1.151  14.905  17.723  0.00  0.00     0.028 H 
ATOM     77  H24 FUA d   1       2.246  16.210  17.154  0.00  0.00     0.028 H 
ATOM     78  H25 FUA d   1       2.534  14.511  16.646  0.00  0.00     0.028 H 
ENDBRANCH  10  75
BRANCH   4  79
ATOM     79  C18 FUA d   1      -1.416  12.351  16.160  0.00  0.00    -0.070 C 
ATOM     80  H20 FUA d   1      -1.953  12.016  17.060  0.00  0.00     0.028 H 
ATOM     81  H21 FUA d   1      -0.751  11.548  15.809  0.00  0.00     0.028 H 
ATOM     82  H22 FUA d   1      -2.141  12.598  15.371  0.00  0.00     0.028 H 
ENDBRANCH   4  79
BRANCH   3  83
ATOM     83  O6  FUA d   1      -2.851  14.620  16.041  0.00  0.00    -0.395 OA
ATOM     84  H47 FUA d   1      -3.199  13.741  15.949  0.00  0.00     0.210 HD
ENDBRANCH   3  83
TORSDOF 15
