REMARK  9 active torsions:
REMARK  status: ('A' for Active; 'I' for Inactive)
REMARK    1  A    between atoms: CP_6  and  C51_1 
REMARK       I    between atoms: N_8  and  CP_6 
REMARK    2  A    between atoms: CA_9  and  N_8 
REMARK    3  A    between atoms: CA_9  and  CB_10 
REMARK    4  A    between atoms: C_27  and  CA_9 
REMARK    5  A    between atoms: CB_10  and  CG_11 
REMARK    6  A    between atoms: CG_11  and  CD_12 
REMARK    7  A    between atoms: CD_12  and  NE_13 
REMARK       I    between atoms: NE_13  and  CZ_14 
REMARK       I    between atoms: CZ_14  and  NH1_15 
REMARK    8  A    between atoms: C_27  and  O_17 
REMARK    9  A    between atoms: C5_19  and  C_27 
ROOT
ATOM      1  CA  RWJ d   1      44.694  21.691  48.743  0.00  0.00     0.043 C 
ATOM      2  H11 RWJ d   1      45.660  22.204  48.858  0.00  0.00     0.077 H 
ENDROOT
BRANCH   1   3
ATOM      3  N   RWJ d   1      43.602  22.554  49.214  0.00  0.00    -0.353 N 
ATOM      4  CP  RWJ d   1      43.796  23.801  49.631  0.00  0.00     0.222 C 
ATOM      5  OP  RWJ d   1      44.900  24.340  49.602  0.00  0.00    -0.273 OA
ATOM      6  H10 RWJ d   1      42.672  22.187  49.221  0.00  0.00     0.163 HD
BRANCH   4   7
ATOM      7  C51 RWJ d   1      42.578  24.540  50.140  0.00  0.00     0.024 A 
ATOM      8  C52 RWJ d   1      42.460  25.990  49.907  0.00  0.00    -0.054 A 
ATOM      9  C53 RWJ d   1      40.983  26.277  49.788  0.00  0.00    -0.064 A 
ATOM     10  H2  RWJ d   1      42.979  26.271  48.979  0.00  0.00     0.034 H 
ATOM     11  H3  RWJ d   1      42.890  26.548  50.751  0.00  0.00     0.034 H 
ATOM     12  C54 RWJ d   1      40.230  24.939  49.982  0.00  0.00    -0.064 A 
ATOM     13  H4  RWJ d   1      40.760  26.692  48.794  0.00  0.00     0.033 H 
ATOM     14  H5  RWJ d   1      40.677  26.996  50.562  0.00  0.00     0.033 H 
ATOM     15  C55 RWJ d   1      41.272  23.856  50.158  0.00  0.00    -0.054 A 
ATOM     16  H6  RWJ d   1      39.610  24.725  49.099  0.00  0.00     0.033 H 
ATOM     17  H7  RWJ d   1      39.590  24.994  50.875  0.00  0.00     0.033 H 
ATOM     18  H8  RWJ d   1      41.126  23.337  51.117  0.00  0.00     0.034 H 
ATOM     19  H9  RWJ d   1      41.210  23.129  49.335  0.00  0.00     0.034 H 
ATOM     20  H1  RWJ d   1      42.814  24.535  51.214  0.00  0.00     0.054 H 
ENDBRANCH   4   7
ENDBRANCH   1   3
BRANCH   1  21
ATOM     21  CB  RWJ d   1      44.667  20.412  49.581  0.00  0.00    -0.042 C 
ATOM     22  H12 RWJ d   1      44.928  19.580  48.910  0.00  0.00     0.036 H 
ATOM     23  H13 RWJ d   1      43.636  20.283  49.941  0.00  0.00     0.036 H 
BRANCH  21  24
ATOM     24  CG  RWJ d   1      45.569  20.312  50.781  0.00  0.00    -0.048 C 
ATOM     25  H14 RWJ d   1      45.323  21.110  51.497  0.00  0.00     0.035 H 
ATOM     26  H15 RWJ d   1      46.618  20.413  50.465  0.00  0.00     0.035 H 
BRANCH  24  27
ATOM     27  CD  RWJ d   1      45.357  18.944  51.440  0.00  0.00     0.009 C 
ATOM     28  H16 RWJ d   1      45.932  18.187  50.886  0.00  0.00     0.064 H 
ATOM     29  H17 RWJ d   1      44.287  18.691  51.404  0.00  0.00     0.064 H 
BRANCH  27  30
ATOM     30  NE  RWJ d   1      45.797  18.951  52.832  0.00  0.00    -0.227 N 
ATOM     31  CZ  RWJ d   1      45.873  17.883  53.623  0.00  0.00     0.665 C 
ATOM     32  NH1 RWJ d   1      45.536  16.680  53.182  0.00  0.00    -0.235 N 
ATOM     33  NH2 RWJ d   1      46.308  18.028  54.868  0.00  0.00    -0.235 N 
ATOM     34  H19 RWJ d   1      45.601  15.865  53.808  0.00  0.00     0.174 HD
ATOM     35  H20 RWJ d   1      45.209  16.560  52.213  0.00  0.00     0.174 HD
ATOM     36  H21 RWJ d   1      46.571  18.961  55.216  0.00  0.00     0.174 HD
ATOM     37  H22 RWJ d   1      46.382  17.208  55.486  0.00  0.00     0.174 HD
ATOM     38  H18 RWJ d   1      46.072  19.858  53.236  0.00  0.00     0.177 HD
ENDBRANCH  27  30
ENDBRANCH  24  27
ENDBRANCH  21  24
ENDBRANCH   1  21
BRANCH   1  39
ATOM     39  C   RWJ d   1      44.471  21.324  47.276  0.00  0.00     0.103 C 
ATOM     40  H28 RWJ d   1      43.485  20.847  47.174  0.00  0.00     0.097 H 
BRANCH  39  41
ATOM     41  O   RWJ d   1      45.472  20.411  46.857  0.00  0.00    -0.387 OA
ATOM     42  H23 RWJ d   1      45.426  19.626  47.390  0.00  0.00     0.210 HD
ENDBRANCH  39  41
BRANCH  39  43
ATOM     43  C5  RWJ d   1      44.507  22.584  46.394  0.00  0.00     0.107 A 
ATOM     44  N5  RWJ d   1      43.392  23.109  45.786  0.00  0.00    -0.242 NA
ATOM     45  C61 RWJ d   1      43.608  24.281  45.128  0.00  0.00     0.075 A 
ATOM     46  C62 RWJ d   1      44.970  24.722  45.210  0.00  0.00     0.035 A 
ATOM     47  C66 RWJ d   1      42.695  25.058  44.411  0.00  0.00    -0.054 A 
ATOM     48  S5  RWJ d   1      45.890  23.558  46.155  0.00  0.00    -0.070 SA
ATOM     49  C63 RWJ d   1      45.360  25.896  44.578  0.00  0.00    -0.064 A 
ATOM     50  C64 RWJ d   1      44.436  26.654  43.857  0.00  0.00    -0.082 A 
ATOM     51  H24 RWJ d   1      46.390  26.226  44.645  0.00  0.00     0.085 H 
ATOM     52  C65 RWJ d   1      43.103  26.243  43.775  0.00  0.00    -0.081 A 
ATOM     53  H25 RWJ d   1      44.753  27.563  43.360  0.00  0.00     0.083 H 
ATOM     54  H26 RWJ d   1      42.385  26.837  43.222  0.00  0.00     0.083 H 
ATOM     55  H27 RWJ d   1      41.660  24.743  44.344  0.00  0.00     0.087 H 
ENDBRANCH  39  43
ENDBRANCH   1  39
TORSDOF 9
