REMARK  14 active torsions:
REMARK  status: ('A' for Active; 'I' for Inactive)
REMARK    1  A    between atoms: P_4  and  O5_5 
REMARK    2  A    between atoms: O5_5  and  C5_6 
REMARK    3  A    between atoms: C5_6  and  C4_7 
REMARK    4  A    between atoms: C3_9  and  O3_10 
REMARK    5  A    between atoms: C2_11  and  O2_12 
REMARK    6  A    between atoms: N3_17  and  C5A_20 
REMARK    7  A    between atoms: C5A_20  and  C6A_21 
REMARK    8  A    between atoms: C6A_21  and  C7A_22 
REMARK    9  A    between atoms: C7A_22  and  C8A_23 
REMARK   10  A    between atoms: C8A_23  and  C9A_24 
REMARK   11  A    between atoms: C8A_23  and  N10A_27 
REMARK   12  A    between atoms: N10A_27  and  O10A_28 
REMARK   13  A    between atoms: N10A_27  and  C11A_29 
REMARK   14  A    between atoms: C11A_29  and  O11A_30 
ROOT
ATOM      1  C4  RPD d   1      27.053  14.986  26.437  0.00  0.00     0.090 C 
ATOM      2  O4  RPD d   1      28.289  15.046  25.744  0.00  0.00    -0.340 OA
ATOM      3  C3  RPD d   1      26.386  16.320  26.203  0.00  0.00     0.092 C 
ATOM      4  C2  RPD d   1      26.958  16.747  24.805  0.00  0.00     0.120 C 
ATOM      5  C1  RPD d   1      28.351  16.074  24.691  0.00  0.00     0.251 A 
ATOM      6  N1  RPD d   1      28.402  15.432  23.483  0.00  0.00    -0.300 N 
ATOM      7  C2  RPD d   1      29.507  15.838  22.756  0.00  0.00     0.327 A 
ATOM      8  O2  RPD d   1      29.787  15.439  21.686  0.00  0.00    -0.247 OA
ATOM      9  N3  RPD d   1      30.213  16.769  23.473  0.00  0.00    -0.266 N 
ATOM     10  C4  RPD d   1      29.513  16.936  24.675  0.00  0.00     0.286 A 
ATOM     11  O4  RPD d   1      29.909  17.731  25.542  0.00  0.00    -0.267 OA
ATOM     12  H3  RPD d   1      27.237  14.863  27.515  0.00  0.00     0.090 H 
ATOM     13  H4  RPD d   1      25.289  16.235  26.189  0.00  0.00     0.091 H 
ATOM     14  H6  RPD d   1      26.296  16.417  23.991  0.00  0.00     0.095 H 
ATOM     15  H8  RPD d   1      27.731  14.760  23.169  0.00  0.00     0.167 HD
ENDROOT
BRANCH   9  16
ATOM     16  C5A RPD d   1      31.454  17.447  23.039  0.00  0.00     0.007 C 
ATOM     17  H9  RPD d   1      31.894  16.894  22.196  0.00  0.00     0.065 H 
ATOM     18  H10 RPD d   1      32.168  17.468  23.876  0.00  0.00     0.065 H 
BRANCH  16  19
ATOM     19  C6A RPD d   1      31.148  18.892  22.595  0.00  0.00    -0.047 C 
ATOM     20  H11 RPD d   1      32.053  19.328  22.147  0.00  0.00     0.035 H 
ATOM     21  H12 RPD d   1      30.854  19.482  23.475  0.00  0.00     0.035 H 
BRANCH  19  22
ATOM     22  C7A RPD d   1      30.001  18.931  21.555  0.00  0.00    -0.021 C 
ATOM     23  H13 RPD d   1      29.079  18.537  22.007  0.00  0.00     0.037 H 
ATOM     24  H14 RPD d   1      30.272  18.319  20.682  0.00  0.00     0.037 H 
BRANCH  22  25
ATOM     25  C8A RPD d   1      29.778  20.402  21.112  0.00  0.00     0.226 C 
ATOM     26  H15 RPD d   1      30.030  21.051  21.964  0.00  0.00     0.114 H 
BRANCH  25  27
ATOM     27  C9A RPD d   1      28.331  20.655  20.700  0.00  0.00     0.212 C 
ATOM     28  O91 RPD d   1      27.308  20.036  21.332  0.00  0.00    -0.646 OA
ATOM     29  O92 RPD d   1      28.087  21.519  19.685  0.00  0.00    -0.646 OA
ENDBRANCH  25  27
BRANCH  25  30
ATOM     30  N10 RPD d   1      30.623  20.798  19.931  0.00  0.00    -0.028 N 
ATOM     31  H16 RPD d   1      30.014  21.038  19.165  0.00  0.00     0.348 HD
BRANCH  30  32
ATOM     32  O10 RPD d   1      31.419  21.964  20.297  0.00  0.00    -0.194 OA
ATOM     33  H17 RPD d   1      31.976  21.747  21.035  0.00  0.00     0.257 HD
ENDBRANCH  30  32
BRANCH  30  34
ATOM     34  C11 RPD d   1      31.514  19.716  19.497  0.00  0.00     0.199 C 
ATOM     35  H18 RPD d   1      30.907  18.843  19.215  0.00  0.00     0.130 H 
ATOM     36  H19 RPD d   1      32.182  19.446  20.328  0.00  0.00     0.130 H 
BRANCH  34  37
ATOM     37  O11 RPD d   1      32.302  20.114  18.379  0.00  0.00    -0.369 OA
ATOM     38  H20 RPD d   1      32.868  19.396  18.120  0.00  0.00     0.212 HD
ENDBRANCH  34  37
ENDBRANCH  30  34
ENDBRANCH  25  30
ENDBRANCH  22  25
ENDBRANCH  19  22
ENDBRANCH  16  19
ENDBRANCH   9  16
BRANCH   4  39
ATOM     39  O2  RPD d   1      27.106  18.181  24.778  0.00  0.00    -0.387 OA
ATOM     40  H7  RPD d   1      27.704  18.450  25.465  0.00  0.00     0.210 HD
ENDBRANCH   4  39
BRANCH   1  41
ATOM     41  C5  RPD d   1      26.240  13.795  25.957  0.00  0.00     0.059 C 
ATOM     42  H1  RPD d   1      26.898  12.917  25.881  0.00  0.00     0.079 H 
ATOM     43  H2  RPD d   1      25.438  13.591  26.682  0.00  0.00     0.079 H 
BRANCH  41  44
ATOM     44  O5  RPD d   1      25.668  14.053  24.698  0.00  0.00    -0.280 OA
BRANCH  44  45
ATOM     45  P   RPD d   1      25.780  13.051  23.420  0.00  0.00     0.422 P 
ATOM     46  O1P RPD d   1      25.212  11.748  23.784  0.00  0.00    -0.617 OA
ATOM     47  O2P RPD d   1      27.238  12.877  23.098  0.00  0.00    -0.617 OA
ATOM     48  O3P RPD d   1      25.068  13.594  22.275  0.00  0.00    -0.617 OA
ENDBRANCH  44  45
ENDBRANCH  41  44
ENDBRANCH   1  41
BRANCH   3  49
ATOM     49  O3  RPD d   1      26.806  17.253  27.211  0.00  0.00    -0.390 OA
ATOM     50  H5  RPD d   1      26.561  16.923  28.068  0.00  0.00     0.210 HD
ENDBRANCH   3  49
TORSDOF 14
