REMARK  14 active torsions:
REMARK  status: ('A' for Active; 'I' for Inactive)
REMARK    1  A    between atoms: P_4  and  O5_5 
REMARK    2  A    between atoms: O5_5  and  C5_6 
REMARK    3  A    between atoms: C5_6  and  C4_7 
REMARK    4  A    between atoms: C3_9  and  O3_10 
REMARK    5  A    between atoms: C2_11  and  O2_12 
REMARK    6  A    between atoms: N3_17  and  C5A_20 
REMARK    7  A    between atoms: C5A_20  and  C6A_21 
REMARK    8  A    between atoms: C6A_21  and  C7A_22 
REMARK    9  A    between atoms: C7A_22  and  C8A_23 
REMARK   10  A    between atoms: C8A_23  and  C9A_24 
REMARK   11  A    between atoms: C8A_23  and  N10A_27 
REMARK   12  A    between atoms: N10A_27  and  O10A_28 
REMARK   13  A    between atoms: N10A_27  and  C11A_29 
REMARK   14  A    between atoms: C11A_29  and  O11A_30 
ROOT
ATOM      1  C4  RPL d   1      27.168  14.993  26.493  0.00  0.00     0.090 C 
ATOM      2  O4  RPL d   1      28.421  15.070  25.825  0.00  0.00    -0.340 OA
ATOM      3  C3  RPL d   1      26.551  16.360  26.292  0.00  0.00     0.092 C 
ATOM      4  C2  RPL d   1      27.005  16.659  24.840  0.00  0.00     0.120 C 
ATOM      5  C1  RPL d   1      28.445  16.075  24.746  0.00  0.00     0.251 A 
ATOM      6  N1  RPL d   1      28.553  15.453  23.541  0.00  0.00    -0.300 N 
ATOM      7  C2  RPL d   1      29.616  15.959  22.824  0.00  0.00     0.327 A 
ATOM      8  O2  RPL d   1      29.926  15.583  21.746  0.00  0.00    -0.247 OA
ATOM      9  N3  RPL d   1      30.237  16.947  23.576  0.00  0.00    -0.266 N 
ATOM     10  C4  RPL d   1      29.521  17.028  24.752  0.00  0.00     0.286 A 
ATOM     11  O4  RPL d   1      29.846  17.834  25.621  0.00  0.00    -0.267 OA
ATOM     12  H3  RPL d   1      27.321  14.813  27.567  0.00  0.00     0.090 H 
ATOM     13  H4  RPL d   1      25.456  16.348  26.400  0.00  0.00     0.091 H 
ATOM     14  H6  RPL d   1      26.337  16.191  24.102  0.00  0.00     0.095 H 
ATOM     15  H8  RPL d   1      27.944  14.728  23.219  0.00  0.00     0.167 HD
ENDROOT
BRANCH   9  16
ATOM     16  C5A RPL d   1      31.408  17.767  23.214  0.00  0.00     0.007 C 
ATOM     17  H9  RPL d   1      32.296  17.122  23.142  0.00  0.00     0.065 H 
ATOM     18  H10 RPL d   1      31.572  18.531  23.989  0.00  0.00     0.065 H 
BRANCH  16  19
ATOM     19  C6A RPL d   1      31.169  18.457  21.862  0.00  0.00    -0.047 C 
ATOM     20  H11 RPL d   1      30.901  17.695  21.115  0.00  0.00     0.035 H 
ATOM     21  H12 RPL d   1      32.094  18.964  21.552  0.00  0.00     0.035 H 
BRANCH  19  22
ATOM     22  C7A RPL d   1      30.027  19.502  21.947  0.00  0.00    -0.021 C 
ATOM     23  H13 RPL d   1      30.385  20.391  22.487  0.00  0.00     0.037 H 
ATOM     24  H14 RPL d   1      29.172  19.066  22.485  0.00  0.00     0.037 H 
BRANCH  22  25
ATOM     25  C8A RPL d   1      29.578  19.916  20.510  0.00  0.00     0.226 C 
ATOM     26  H15 RPL d   1      29.433  19.000  19.918  0.00  0.00     0.114 H 
BRANCH  25  27
ATOM     27  C9A RPL d   1      28.270  20.708  20.548  0.00  0.00     0.212 C 
ATOM     28  O91 RPL d   1      27.969  21.523  19.517  0.00  0.00    -0.646 OA
ATOM     29  O92 RPL d   1      27.430  20.618  21.597  0.00  0.00    -0.646 OA
ENDBRANCH  25  27
BRANCH  25  30
ATOM     30  N10 RPL d   1      30.598  20.799  19.817  0.00  0.00    -0.028 N 
ATOM     31  H16 RPL d   1      30.136  21.303  19.076  0.00  0.00     0.348 HD
BRANCH  30  32
ATOM     32  O10 RPL d   1      31.157  21.760  20.765  0.00  0.00    -0.194 OA
ATOM     33  H17 RPL d   1      31.580  21.293  21.476  0.00  0.00     0.257 HD
ENDBRANCH  30  32
BRANCH  30  34
ATOM     34  C11 RPL d   1      31.679  19.999  19.237  0.00  0.00     0.199 C 
ATOM     35  H18 RPL d   1      31.250  19.090  18.790  0.00  0.00     0.130 H 
ATOM     36  H19 RPL d   1      32.383  19.719  20.035  0.00  0.00     0.130 H 
BRANCH  34  37
ATOM     37  O11 RPL d   1      32.385  20.720  18.230  0.00  0.00    -0.369 OA
ATOM     38  H20 RPL d   1      33.077  20.173  17.877  0.00  0.00     0.212 HD
ENDBRANCH  34  37
ENDBRANCH  30  34
ENDBRANCH  25  30
ENDBRANCH  22  25
ENDBRANCH  19  22
ENDBRANCH  16  19
ENDBRANCH   9  16
BRANCH   4  39
ATOM     39  O2  RPL d   1      27.032  18.071  24.662  0.00  0.00    -0.387 OA
ATOM     40  H7  RPL d   1      27.642  18.455  25.280  0.00  0.00     0.210 HD
ENDBRANCH   4  39
BRANCH   1  41
ATOM     41  C5  RPL d   1      26.327  13.849  25.929  0.00  0.00     0.059 C 
ATOM     42  H1  RPL d   1      26.941  12.937  25.894  0.00  0.00     0.079 H 
ATOM     43  H2  RPL d   1      25.461  13.683  26.587  0.00  0.00     0.079 H 
BRANCH  41  44
ATOM     44  O5  RPL d   1      25.865  14.142  24.627  0.00  0.00    -0.280 OA
BRANCH  44  45
ATOM     45  P   RPL d   1      25.821  13.064  23.420  0.00  0.00     0.422 P 
ATOM     46  O1P RPL d   1      25.211  11.844  23.912  0.00  0.00    -0.617 OA
ATOM     47  O2P RPL d   1      27.226  12.761  23.016  0.00  0.00    -0.617 OA
ATOM     48  O3P RPL d   1      25.075  13.557  22.283  0.00  0.00    -0.617 OA
ENDBRANCH  44  45
ENDBRANCH  41  44
ENDBRANCH   1  41
BRANCH   3  49
ATOM     49  O3  RPL d   1      27.136  17.312  27.188  0.00  0.00    -0.390 OA
ATOM     50  H5  RPL d   1      26.987  17.035  28.084  0.00  0.00     0.210 HD
ENDBRANCH   3  49
TORSDOF 14
