REMARK  6 active torsions:
REMARK  status: ('A' for Active; 'I' for Inactive)
REMARK    1  A    between atoms: C18_7  and  C19_6 
REMARK    2  A    between atoms: O17_8  and  C18_7 
REMARK    3  A    between atoms: C15_9  and  O17_8 
REMARK       I    between atoms: N14_11  and  C15_9 
REMARK    4  A    between atoms: C8_13  and  C10_12 
REMARK       I    between atoms: N7_22  and  C8_13 
REMARK    5  A    between atoms: C1_20  and  O2_21 
REMARK    6  A    between atoms: C3_24  and  C1_20 
ROOT
ATOM      1  C15 ZPR d   1      41.967  37.803  85.452  0.00  0.00     0.363 C 
ATOM      2  O16 ZPR d   1      42.523  37.502  84.390  0.00  0.00    -0.238 OA
ATOM      3  N14 ZPR d   1      40.653  37.637  85.631  0.00  0.00    -0.315 N 
ATOM      4  C10 ZPR d   1      39.771  37.077  84.610  0.00  0.00     0.094 C 
ATOM      5  C11 ZPR d   1      38.589  36.587  85.439  0.00  0.00    -0.036 C 
ATOM      6  C12 ZPR d   1      38.467  37.662  86.466  0.00  0.00    -0.048 C 
ATOM      7  C13 ZPR d   1      39.907  37.912  86.875  0.00  0.00     0.001 C 
ATOM      8  H8  ZPR d   1      40.257  36.246  84.078  0.00  0.00     0.088 H 
ATOM      9  H9  ZPR d   1      38.802  35.613  85.903  0.00  0.00     0.036 H 
ATOM     10  H10 ZPR d   1      37.677  36.511  84.829  0.00  0.00     0.036 H 
ATOM     11  H11 ZPR d   1      37.866  37.323  87.323  0.00  0.00     0.035 H 
ATOM     12  H12 ZPR d   1      38.015  38.569  86.037  0.00  0.00     0.035 H 
ATOM     13  H13 ZPR d   1      40.051  38.952  87.202  0.00  0.00     0.064 H 
ATOM     14  H14 ZPR d   1      40.214  37.229  87.680  0.00  0.00     0.064 H 
ENDROOT
BRANCH   4  15
ATOM     15  C8  ZPR d   1      39.332  38.141  83.600  0.00  0.00     0.243 C 
ATOM     16  O9  ZPR d   1      39.464  39.350  83.848  0.00  0.00    -0.271 OA
ATOM     17  N7  ZPR d   1      38.817  37.698  82.438  0.00  0.00    -0.344 N 
ATOM     18  C6  ZPR d   1      38.747  36.286  82.021  0.00  0.00    -0.002 C 
ATOM     19  C3  ZPR d   1      38.349  38.595  81.385  0.00  0.00     0.035 C 
ATOM     20  C5  ZPR d   1      38.131  36.352  80.653  0.00  0.00    -0.048 C 
ATOM     21  H22 ZPR d   1      39.751  35.839  81.978  0.00  0.00     0.064 H 
ATOM     22  H23 ZPR d   1      38.115  35.704  82.709  0.00  0.00     0.064 H 
ATOM     23  C4  ZPR d   1      38.382  37.712  80.139  0.00  0.00    -0.043 C 
ATOM     24  H17 ZPR d   1      38.595  35.605  79.992  0.00  0.00     0.035 H 
ATOM     25  H18 ZPR d   1      37.049  36.164  80.715  0.00  0.00     0.035 H 
ATOM     26  H15 ZPR d   1      37.598  38.011  79.428  0.00  0.00     0.036 H 
ATOM     27  H16 ZPR d   1      39.364  37.768  79.647  0.00  0.00     0.036 H 
ATOM     28  H24 ZPR d   1      39.031  39.450  81.271  0.00  0.00     0.076 H 
BRANCH  19  29
ATOM     29  C1  ZPR d   1      36.922  39.126  81.688  0.00  0.00     0.036 C 
ATOM     30  H19 ZPR d   1      36.953  39.748  82.594  0.00  0.00     0.077 H 
ATOM     31  H20 ZPR d   1      36.574  39.732  80.839  0.00  0.00     0.077 H 
BRANCH  29  32
ATOM     32  O2  ZPR d   1      36.015  38.039  81.894  0.00  0.00    -0.399 OA
ATOM     33  H21 ZPR d   1      36.312  37.515  82.629  0.00  0.00     0.209 HD
ENDBRANCH  29  32
ENDBRANCH  19  29
ENDBRANCH   4  15
BRANCH   1  34
ATOM     34  O17 ZPR d   1      42.628  38.298  86.477  0.00  0.00    -0.299 OA
BRANCH  34  35
ATOM     35  C18 ZPR d   1      44.020  38.453  86.278  0.00  0.00     0.054 C 
ATOM     36  H6  ZPR d   1      44.252  38.370  85.206  0.00  0.00     0.082 H 
ATOM     37  H7  ZPR d   1      44.339  39.439  86.647  0.00  0.00     0.082 H 
BRANCH  35  38
ATOM     38  C19 ZPR d   1      44.738  37.373  87.035  0.00  0.00    -0.034 A 
ATOM     39  C20 ZPR d   1      44.951  36.125  86.456  0.00  0.00    -0.075 A 
ATOM     40  C21 ZPR d   1      45.601  35.118  87.156  0.00  0.00    -0.082 A 
ATOM     41  H1  ZPR d   1      44.605  35.937  85.446  0.00  0.00     0.084 H 
ATOM     42  C22 ZPR d   1      46.048  35.355  88.452  0.00  0.00    -0.083 A 
ATOM     43  H2  ZPR d   1      45.760  34.150  86.694  0.00  0.00     0.083 H 
ATOM     44  C23 ZPR d   1      45.840  36.601  89.038  0.00  0.00    -0.082 A 
ATOM     45  H3  ZPR d   1      46.556  34.572  89.004  0.00  0.00     0.083 H 
ATOM     46  C24 ZPR d   1      45.191  37.599  88.329  0.00  0.00    -0.075 A 
ATOM     47  H4  ZPR d   1      46.185  36.790  90.048  0.00  0.00     0.083 H 
ATOM     48  H5  ZPR d   1      45.035  38.568  88.789  0.00  0.00     0.084 H 
ENDBRANCH  35  38
ENDBRANCH  34  35
ENDBRANCH   1  34
TORSDOF 6
