REMARK  9 active torsions:
REMARK  status: ('A' for Active; 'I' for Inactive)
REMARK    1  A    between atoms: C1_1  and  C2_2 
REMARK    2  A    between atoms: C16_15  and  C1_1 
REMARK    3  A    between atoms: C2_2  and  C3_3 
REMARK    4  A    between atoms: C3_3  and  C4_4 
REMARK    5  A    between atoms: C4_4  and  C5_5 
REMARK    6  A    between atoms: C5_5  and  N6_6 
REMARK    7  A    between atoms: C13_13  and  O9_9 
REMARK    8  A    between atoms: C16_15  and  C10_10 
REMARK    9  A    between atoms: C16_15  and  C15_16 
ROOT
ATOM      1  C16 157 d   1       7.737  22.245  52.386  0.00  0.00     0.002 C 
ATOM      2  H22 157 d   1       8.378  21.568  52.969  0.00  0.00     0.051 H 
ENDROOT
BRANCH   1   3
ATOM      3  C1  157 d   1       8.370  22.240  50.996  0.00  0.00    -0.055 C 
ATOM      4  H1  157 d   1       9.087  21.407  50.958  0.00  0.00     0.034 H 
ATOM      5  H2  157 d   1       7.568  22.068  50.263  0.00  0.00     0.034 H 
BRANCH   3   6
ATOM      6  C2  157 d   1       9.103  23.497  50.589  0.00  0.00    -0.064 C 
ATOM      7  H3  157 d   1       9.506  23.995  51.483  0.00  0.00     0.033 H 
ATOM      8  H4  157 d   1       8.410  24.177  50.071  0.00  0.00     0.033 H 
BRANCH   6   9
ATOM      9  C3  157 d   1      10.223  23.131  49.673  0.00  0.00    -0.059 C 
ATOM     10  H5  157 d   1      10.898  22.439  50.197  0.00  0.00     0.033 H 
ATOM     11  H6  157 d   1      10.773  24.044  49.402  0.00  0.00     0.033 H 
BRANCH   9  12
ATOM     12  C4  157 d   1       9.729  22.468  48.412  0.00  0.00    -0.013 C 
ATOM     13  H7  157 d   1       8.956  23.102  47.953  0.00  0.00     0.044 H 
ATOM     14  H8  157 d   1       9.296  21.490  48.668  0.00  0.00     0.044 H 
BRANCH  12  15
ATOM     15  C5  157 d   1      10.836  22.268  47.435  0.00  0.00     0.068 C 
ATOM     16  N7  157 d   1      11.417  21.109  47.273  0.00  0.00    -0.389 N 
ATOM     17  H11 157 d   1      12.180  21.006  46.588  0.00  0.00     0.157 HD
ATOM     18  H12 157 d   1      11.112  20.298  47.830  0.00  0.00     0.157 HD
BRANCH  15  19
ATOM     19  N6  157 d   1      11.226  23.261  46.664  0.00  0.00    -0.389 N 
ATOM     20  H9  157 d   1      11.992  23.119  45.990  0.00  0.00     0.157 HD
ATOM     21  H10 157 d   1      10.766  24.180  46.735  0.00  0.00     0.157 HD
ENDBRANCH  15  19
ENDBRANCH  12  15
ENDBRANCH   9  12
ENDBRANCH   6   9
ENDBRANCH   3   6
ENDBRANCH   1   3
BRANCH   1  22
ATOM     22  C10 157 d   1       6.341  21.640  52.466  0.00  0.00    -0.020 C 
ATOM     23  C12 157 d   1       6.269  20.257  51.837  0.00  0.00    -0.059 C 
ATOM     24  C11 157 d   1       5.102  19.565  52.516  0.00  0.00    -0.062 C 
ATOM     25  H17 157 d   1       7.202  19.703  52.017  0.00  0.00     0.033 H 
ATOM     26  H18 157 d   1       6.093  20.336  50.754  0.00  0.00     0.033 H 
ATOM     27  C14 157 d   1       4.730  20.380  53.743  0.00  0.00    -0.041 C 
ATOM     28  H15 157 d   1       5.393  18.548  52.817  0.00  0.00     0.033 H 
ATOM     29  H16 157 d   1       4.246  19.513  51.828  0.00  0.00     0.033 H 
ATOM     30  C13 157 d   1       5.849  21.370  53.879  0.00  0.00     0.040 C 
ATOM     31  H20 157 d   1       4.667  19.738  54.634  0.00  0.00     0.036 H 
ATOM     32  H21 157 d   1       3.769  20.895  53.593  0.00  0.00     0.036 H 
ATOM     33  H19 157 d   1       6.663  20.965  54.498  0.00  0.00     0.083 H 
ATOM     34  H14 157 d   1       5.649  22.326  51.956  0.00  0.00     0.045 H 
BRANCH  30  35
ATOM     35  O9  157 d   1       5.332  22.521  54.466  0.00  0.00    -0.395 OA
ATOM     36  H13 157 d   1       4.602  22.839  53.948  0.00  0.00     0.210 HD
ENDBRANCH  30  35
ENDBRANCH   1  22
BRANCH   1  37
ATOM     37  C15 157 d   1       7.766  23.549  53.139  0.00  0.00     0.092 C 
ATOM     38  O8  157 d   1       8.525  23.627  54.065  0.00  0.00    -0.306 OA
ATOM     39  H23 157 d   1       7.127  24.384  52.856  0.00  0.00     0.143 H 
ENDBRANCH   1  37
TORSDOF 9
