REMARK  22 active torsions:
REMARK  status: ('A' for Active; 'I' for Inactive)
REMARK    1  A    between atoms: C1_63  and  C11_51 
REMARK    2  A    between atoms: C1_63  and  C21_57 
REMARK    3  A    between atoms: C2_64  and  C1_63 
REMARK    4  A    between atoms: C3_65  and  C2_64 
REMARK    5  A    between atoms: N4_66  and  C3_65 
REMARK    6  A    between atoms: C5_67  and  N4_66 
REMARK    7  A    between atoms: C6_68  and  C5_67 
REMARK    8  A    between atoms: C7_69  and  C6_68 
REMARK    9  A    between atoms: N8_70  and  C7_69 
REMARK   10  A    between atoms: C9_71  and  N8_70 
REMARK   11  A    between atoms: C31_73  and  C9_71 
REMARK   12  A    between atoms: C9_71  and  C19_72 
REMARK   13  A    between atoms: O3_79  and  C33_75 
REMARK   14  A    between atoms: C34_76  and  O4_84 
REMARK   15  A    between atoms: C41_80  and  O3_79 
REMARK   16  A    between atoms: C42_81  and  C41_80 
REMARK   17  A    between atoms: C43_82  and  C42_81 
REMARK   18  A    between atoms: C43_82  and  C44_83 
REMARK   19  A    between atoms: O4_84  and  C51_85 
REMARK   20  A    between atoms: C51_85  and  C52_86 
REMARK   21  A    between atoms: C52_86  and  C53_87 
REMARK   22  A    between atoms: C53_87  and  C54_88 
ROOT
ATOM      1  H24 NON d   1      22.461  49.577  28.773  0.00  0.00     0.277 HD
ATOM      2  H25 NON d   1      22.866  49.886  27.208  0.00  0.00     0.277 HD
ATOM      3  N8  NON d   1      22.600  50.302  28.087  0.00  0.00    -0.067 N 
ENDROOT
BRANCH   3   4
ATOM      4  C7  NON d   1      23.743  51.130  28.546  0.00  0.00     0.084 C 
ATOM      5  H22 NON d   1      23.363  51.870  29.265  0.00  0.00     0.075 H 
ATOM      6  H23 NON d   1      24.465  50.469  29.047  0.00  0.00     0.075 H 
BRANCH   4   7
ATOM      7  C6  NON d   1      24.482  51.886  27.425  0.00  0.00    -0.020 C 
ATOM      8  H20 NON d   1      23.792  52.625  26.991  0.00  0.00     0.037 H 
ATOM      9  H21 NON d   1      25.345  52.406  27.867  0.00  0.00     0.037 H 
BRANCH   7  10
ATOM     10  C5  NON d   1      24.991  50.974  26.295  0.00  0.00     0.083 C 
ATOM     11  H18 NON d   1      26.027  50.684  26.526  0.00  0.00     0.075 H 
ATOM     12  H19 NON d   1      24.357  50.076  26.264  0.00  0.00     0.075 H 
BRANCH  10  13
ATOM     13  N4  NON d   1      24.972  51.605  24.953  0.00  0.00    -0.075 N 
ATOM     14  H16 NON d   1      24.409  51.024  24.352  0.00  0.00     0.277 HD
ATOM     15  H17 NON d   1      24.537  52.509  25.049  0.00  0.00     0.277 HD
BRANCH  13  16
ATOM     16  C3  NON d   1      26.280  51.807  24.281  0.00  0.00     0.083 C 
ATOM     17  H14 NON d   1      26.126  52.505  23.445  0.00  0.00     0.075 H 
ATOM     18  H15 NON d   1      26.970  52.255  25.012  0.00  0.00     0.075 H 
BRANCH  16  19
ATOM     19  C2  NON d   1      26.949  50.531  23.717  0.00  0.00    -0.032 C 
ATOM     20  H12 NON d   1      27.895  50.383  24.257  0.00  0.00     0.036 H 
ATOM     21  H13 NON d   1      26.276  49.684  23.917  0.00  0.00     0.036 H 
BRANCH  19  22
ATOM     22  C1  NON d   1      27.267  50.533  22.201  0.00  0.00    -0.002 C 
ATOM     23  H11 NON d   1      27.543  51.563  21.929  0.00  0.00     0.054 H 
BRANCH  22  24
ATOM     24  C11 NON d   1      28.470  49.629  21.885  0.00  0.00    -0.050 A 
ATOM     25  C16 NON d   1      28.309  48.398  21.202  0.00  0.00    -0.076 A 
ATOM     26  H5  NON d   1      27.318  48.085  20.895  0.00  0.00     0.084 H 
ATOM     27  C15 NON d   1      29.410  47.578  20.917  0.00  0.00    -0.082 A 
ATOM     28  H4  NON d   1      29.265  46.640  20.393  0.00  0.00     0.083 H 
ATOM     29  C14 NON d   1      30.700  47.970  21.309  0.00  0.00    -0.083 A 
ATOM     30  H3  NON d   1      31.552  47.337  21.089  0.00  0.00     0.083 H 
ATOM     31  C13 NON d   1      30.881  49.185  21.987  0.00  0.00    -0.082 A 
ATOM     32  H2  NON d   1      31.875  49.492  22.292  0.00  0.00     0.083 H 
ATOM     33  C12 NON d   1      29.773  50.005  22.271  0.00  0.00    -0.076 A 
ATOM     34  H1  NON d   1      29.924  50.942  22.795  0.00  0.00     0.084 H 
ENDBRANCH  22  24
BRANCH  22  35
ATOM     35  C21 NON d   1      26.068  50.142  21.339  0.00  0.00    -0.050 A 
ATOM     36  C26 NON d   1      25.068  49.270  21.830  0.00  0.00    -0.076 A 
ATOM     37  H10 NON d   1      25.152  48.873  22.835  0.00  0.00     0.084 H 
ATOM     38  C25 NON d   1      23.968  48.912  21.033  0.00  0.00    -0.082 A 
ATOM     39  H9  NON d   1      23.211  48.243  21.425  0.00  0.00     0.083 H 
ATOM     40  C24 NON d   1      23.848  49.417  19.734  0.00  0.00    -0.083 A 
ATOM     41  H8  NON d   1      22.999  49.141  19.119  0.00  0.00     0.083 H 
ATOM     42  C23 NON d   1      24.830  50.282  19.230  0.00  0.00    -0.082 A 
ATOM     43  H7  NON d   1      24.740  50.674  18.224  0.00  0.00     0.083 H 
ATOM     44  C22 NON d   1      25.930  50.641  20.027  0.00  0.00    -0.076 A 
ATOM     45  H6  NON d   1      26.683  51.311  19.628  0.00  0.00     0.084 H 
ENDBRANCH  22  35
ENDBRANCH  19  22
ENDBRANCH  16  19
ENDBRANCH  13  16
ENDBRANCH  10  13
ENDBRANCH   7  10
ENDBRANCH   4   7
ENDBRANCH   3   4
BRANCH   3  46
ATOM     46  C9  NON d   1      21.290  50.969  27.880  0.00  0.00     0.124 C 
ATOM     47  H26 NON d   1      21.429  52.043  28.071  0.00  0.00     0.091 H 
BRANCH  46  48
ATOM     48  C31 NON d   1      20.855  50.805  26.437  0.00  0.00    -0.025 A 
ATOM     49  C36 NON d   1      20.769  51.910  25.569  0.00  0.00    -0.072 A 
ATOM     50  H32 NON d   1      21.015  52.900  25.935  0.00  0.00     0.084 H 
ATOM     51  C35 NON d   1      20.369  51.743  24.236  0.00  0.00    -0.047 A 
ATOM     52  H31 NON d   1      20.312  52.614  23.593  0.00  0.00     0.087 H 
ATOM     53  C34 NON d   1      20.037  50.475  23.703  0.00  0.00     0.102 A 
ATOM     54  C33 NON d   1      20.124  49.352  24.584  0.00  0.00     0.102 A 
ATOM     55  C32 NON d   1      20.527  49.535  25.918  0.00  0.00    -0.040 A 
ATOM     56  H30 NON d   1      20.588  48.671  26.570  0.00  0.00     0.088 H 
BRANCH  53  57
ATOM     57  O4  NON d   1      19.649  50.367  22.386  0.00  0.00    -0.348 OA
BRANCH  57  58
ATOM     58  C51 NON d   1      20.451  49.678  21.431  0.00  0.00     0.026 C 
ATOM     59  H42 NON d   1      20.394  48.597  21.626  0.00  0.00     0.075 H 
ATOM     60  H43 NON d   1      21.494  50.014  21.527  0.00  0.00     0.075 H 
BRANCH  58  61
ATOM     61  C52 NON d   1      19.962  49.958  20.003  0.00  0.00    -0.045 C 
ATOM     62  H44 NON d   1      20.637  50.697  19.546  0.00  0.00     0.036 H 
ATOM     63  H45 NON d   1      18.946  50.376  20.062  0.00  0.00     0.036 H 
BRANCH  61  64
ATOM     64  C53 NON d   1      19.920  48.717  19.095  0.00  0.00    -0.067 C 
ATOM     65  H46 NON d   1      19.541  47.868  19.683  0.00  0.00     0.032 H 
ATOM     66  H47 NON d   1      20.944  48.500  18.756  0.00  0.00     0.032 H 
BRANCH  64  67
ATOM     67  C54 NON d   1      19.026  48.889  17.860  0.00  0.00    -0.076 C 
ATOM     68  H48 NON d   1      19.046  47.966  17.262  0.00  0.00     0.027 H 
ATOM     69  H49 NON d   1      19.397  49.728  17.253  0.00  0.00     0.027 H 
ATOM     70  H50 NON d   1      17.994  49.096  18.180  0.00  0.00     0.027 H 
ENDBRANCH  64  67
ENDBRANCH  61  64
ENDBRANCH  58  61
ENDBRANCH  57  58
ENDBRANCH  53  57
BRANCH  54  71
ATOM     71  O3  NON d   1      19.840  48.049  24.239  0.00  0.00    -0.348 OA
BRANCH  71  72
ATOM     72  C41 NON d   1      18.722  47.364  24.803  0.00  0.00     0.026 C 
ATOM     73  H33 NON d   1      18.055  48.097  25.280  0.00  0.00     0.075 H 
ATOM     74  H34 NON d   1      19.082  46.650  25.558  0.00  0.00     0.075 H 
BRANCH  72  75
ATOM     75  C42 NON d   1      17.940  46.603  23.727  0.00  0.00    -0.045 C 
ATOM     76  H35 NON d   1      18.007  47.168  22.786  0.00  0.00     0.036 H 
ATOM     77  H36 NON d   1      16.888  46.540  24.043  0.00  0.00     0.036 H 
BRANCH  75  78
ATOM     78  C43 NON d   1      18.455  45.177  23.472  0.00  0.00    -0.067 C 
ATOM     79  H37 NON d   1      18.905  44.799  24.402  0.00  0.00     0.032 H 
ATOM     80  H38 NON d   1      19.222  45.221  22.684  0.00  0.00     0.032 H 
BRANCH  78  81
ATOM     81  C44 NON d   1      17.362  44.195  23.030  0.00  0.00    -0.076 C 
ATOM     82  H39 NON d   1      17.805  43.202  22.868  0.00  0.00     0.027 H 
ATOM     83  H40 NON d   1      16.907  44.550  22.094  0.00  0.00     0.027 H 
ATOM     84  H41 NON d   1      16.590  44.129  23.811  0.00  0.00     0.027 H 
ENDBRANCH  78  81
ENDBRANCH  75  78
ENDBRANCH  72  75
ENDBRANCH  71  72
ENDBRANCH  54  71
ENDBRANCH  46  48
BRANCH  46  85
ATOM     85  C19 NON d   1      20.207  50.467  28.855  0.00  0.00    -0.046 C 
ATOM     86  H27 NON d   1      19.262  50.994  28.656  0.00  0.00     0.030 H 
ATOM     87  H28 NON d   1      20.525  50.663  29.889  0.00  0.00     0.030 H 
ATOM     88  H29 NON d   1      20.061  49.386  28.715  0.00  0.00     0.030 H 
ENDBRANCH  46  85
ENDBRANCH   3  46
TORSDOF 22
