REMARK  11 active torsions:
REMARK  status: ('A' for Active; 'I' for Inactive)
REMARK    1  A    between atoms: C1_1  and  C2_2 
REMARK    2  A    between atoms: C16_26  and  C1_1 
REMARK    3  A    between atoms: C2_2  and  C3_3 
REMARK    4  A    between atoms: C3_3  and  C4_4 
REMARK    5  A    between atoms: C4_4  and  C5_5 
REMARK    6  A    between atoms: C5_5  and  N6_6 
REMARK    7  A    between atoms: C13_13  and  O9_9 
REMARK    8  A    between atoms: C16_26  and  C10_10 
REMARK    9  A    between atoms: C37_16  and  C43_19 
REMARK   10  A    between atoms: C6_22  and  O54_25 
REMARK   11  A    between atoms: C16_26  and  C15_27 
ROOT
ATOM      1  C10 MOL d   1       5.767  21.832  52.929  0.00  0.00     0.006 C 
ATOM      2  C11 MOL d   1       3.685  20.717  52.863  0.00  0.00    -0.049 A 
ATOM      3  C12 MOL d   1       4.807  20.939  52.086  0.00  0.00    -0.043 A 
ATOM      4  C13 MOL d   1       5.270  21.667  54.398  0.00  0.00     0.047 C 
ATOM      5  C14 MOL d   1       3.854  21.107  54.307  0.00  0.00    -0.016 C 
ATOM      6  C36 MOL d   1       4.775  20.507  50.743  0.00  0.00    -0.065 A 
ATOM      7  C37 MOL d   1       3.585  19.910  50.241  0.00  0.00    -0.025 A 
ATOM      8  C38 MOL d   1       2.470  19.785  51.077  0.00  0.00    -0.072 A 
ATOM      9  C39 MOL d   1       2.509  20.194  52.381  0.00  0.00    -0.075 A 
ATOM     10  H14 MOL d   1       5.427  22.833  52.625  0.00  0.00     0.052 H 
ATOM     11  H15 MOL d   1       5.936  20.984  54.946  0.00  0.00     0.084 H 
ATOM     12  H16 MOL d   1       3.742  20.230  54.961  0.00  0.00     0.043 H 
ATOM     13  H17 MOL d   1       3.116  21.872  54.590  0.00  0.00     0.043 H 
ATOM     14  H18 MOL d   1       5.643  20.628  50.104  0.00  0.00     0.085 H 
ATOM     15  H19 MOL d   1       1.556  19.355  50.683  0.00  0.00     0.084 H 
ATOM     16  H20 MOL d   1       1.636  20.108  53.018  0.00  0.00     0.084 H 
ENDROOT
BRANCH   1  17
ATOM     17  C16 MOL d   1       7.339  22.069  52.888  0.00  0.00     0.006 C 
ATOM     18  H26 MOL d   1       7.758  21.263  53.508  0.00  0.00     0.051 H 
BRANCH  17  19
ATOM     19  C1  MOL d   1       8.122  21.991  51.548  0.00  0.00    -0.055 C 
ATOM     20  H1  MOL d   1       8.756  21.093  51.578  0.00  0.00     0.034 H 
ATOM     21  H2  MOL d   1       7.390  21.896  50.733  0.00  0.00     0.034 H 
BRANCH  19  22
ATOM     22  C2  MOL d   1       9.038  23.218  51.233  0.00  0.00    -0.064 C 
ATOM     23  H3  MOL d   1       9.500  23.551  52.174  0.00  0.00     0.033 H 
ATOM     24  H4  MOL d   1       8.406  24.023  50.830  0.00  0.00     0.033 H 
BRANCH  22  25
ATOM     25  C3  MOL d   1      10.135  22.946  50.244  0.00  0.00    -0.059 C 
ATOM     26  H5  MOL d   1      10.563  21.956  50.461  0.00  0.00     0.033 H 
ATOM     27  H6  MOL d   1      10.912  23.716  50.363  0.00  0.00     0.033 H 
BRANCH  25  28
ATOM     28  C4  MOL d   1       9.661  22.960  48.805  0.00  0.00    -0.013 C 
ATOM     29  H7  MOL d   1       9.381  23.990  48.539  0.00  0.00     0.044 H 
ATOM     30  H8  MOL d   1       8.780  22.307  48.721  0.00  0.00     0.044 H 
BRANCH  28  31
ATOM     31  C5  MOL d   1      10.735  22.468  47.805  0.00  0.00     0.068 C 
ATOM     32  N7  MOL d   1      11.024  23.171  46.713  0.00  0.00    -0.389 N 
ATOM     33  H11 MOL d   1      11.741  22.831  46.056  0.00  0.00     0.157 HD
ATOM     34  H12 MOL d   1      10.531  24.055  46.524  0.00  0.00     0.157 HD
BRANCH  31  35
ATOM     35  N6  MOL d   1      11.372  21.306  47.942  0.00  0.00    -0.389 N 
ATOM     36  H9  MOL d   1      12.080  21.022  47.250  0.00  0.00     0.157 HD
ATOM     37  H10 MOL d   1      11.157  20.692  48.740  0.00  0.00     0.157 HD
ENDBRANCH  31  35
ENDBRANCH  28  31
ENDBRANCH  25  28
ENDBRANCH  22  25
ENDBRANCH  19  22
ENDBRANCH  17  19
BRANCH  17  38
ATOM     38  C15 MOL d   1       7.695  23.443  53.605  0.00  0.00     0.093 C 
ATOM     39  O8  MOL d   1       8.689  23.496  54.281  0.00  0.00    -0.306 OA
ATOM     40  H27 MOL d   1       7.054  24.316  53.487  0.00  0.00     0.143 H 
ENDBRANCH  17  38
ENDBRANCH   1  17
BRANCH   4  41
ATOM     41  O9  MOL d   1       5.169  22.910  55.094  0.00  0.00    -0.395 OA
ATOM     42  H13 MOL d   1       6.022  23.326  55.122  0.00  0.00     0.210 HD
ENDBRANCH   4  41
BRANCH   7  43
ATOM     43  C43 MOL d   1       3.401  19.348  48.833  0.00  0.00    -0.026 A 
ATOM     44  C44 MOL d   1       2.169  19.504  48.173  0.00  0.00    -0.070 A 
ATOM     45  C45 MOL d   1       1.929  19.014  46.898  0.00  0.00    -0.050 A 
ATOM     46  H21 MOL d   1       1.371  20.031  48.684  0.00  0.00     0.085 H 
ATOM     47  C6  MOL d   1       2.929  18.350  46.232  0.00  0.00     0.065 A 
ATOM     48  H22 MOL d   1       0.961  19.154  46.432  0.00  0.00     0.087 H 
ATOM     49  C7  MOL d   1       4.159  18.164  46.851  0.00  0.00    -0.050 A 
ATOM     50  C8  MOL d   1       4.395  18.661  48.140  0.00  0.00    -0.070 A 
ATOM     51  H23 MOL d   1       4.945  17.628  46.331  0.00  0.00     0.087 H 
ATOM     52  H24 MOL d   1       5.363  18.509  48.603  0.00  0.00     0.085 H 
BRANCH  47  53
ATOM     53  O54 MOL d   1       2.684  17.895  44.958  0.00  0.00    -0.361 OA
ATOM     54  H25 MOL d   1       1.794  18.115  44.710  0.00  0.00     0.217 HD
ENDBRANCH  47  53
ENDBRANCH   7  43
TORSDOF 11
