REMARK  12 active torsions:
REMARK  status: ('A' for Active; 'I' for Inactive)
REMARK    1  A    between atoms: C1_1  and  C2_2 
REMARK    2  A    between atoms: C16_27  and  C1_1 
REMARK    3  A    between atoms: C2_2  and  C3_3 
REMARK    4  A    between atoms: C3_3  and  C4_4 
REMARK    5  A    between atoms: C4_4  and  C5_5 
REMARK    6  A    between atoms: C5_5  and  N6_6 
REMARK    7  A    between atoms: C13_13  and  O9_9 
REMARK    8  A    between atoms: C16_27  and  C10_10 
REMARK    9  A    between atoms: C38_17  and  C43_19 
REMARK   10  A    between atoms: C45_21  and  O54_26 
REMARK   11  A    between atoms: O54_26  and  C53_25 
REMARK   12  A    between atoms: C16_27  and  C15_28 
ROOT
ATOM      1  C10 MOL d   1       6.074  21.578  52.174  0.00  0.00     0.006 C 
ATOM      2  C11 MOL d   1       4.487  20.188  51.196  0.00  0.00    -0.048 A 
ATOM      3  C12 MOL d   1       5.776  20.624  51.017  0.00  0.00    -0.044 A 
ATOM      4  C13 MOL d   1       5.292  20.835  53.281  0.00  0.00     0.047 C 
ATOM      5  C14 MOL d   1       3.978  20.545  52.558  0.00  0.00    -0.016 C 
ATOM      6  C36 MOL d   1       6.485  20.201  49.908  0.00  0.00    -0.075 A 
ATOM      7  C37 MOL d   1       5.793  19.452  48.971  0.00  0.00    -0.072 A 
ATOM      8  C38 MOL d   1       4.437  19.127  49.090  0.00  0.00    -0.025 A 
ATOM      9  C39 MOL d   1       3.792  19.458  50.267  0.00  0.00    -0.066 A 
ATOM     10  H14 MOL d   1       5.513  22.494  51.937  0.00  0.00     0.052 H 
ATOM     11  H15 MOL d   1       5.813  19.900  53.535  0.00  0.00     0.084 H 
ATOM     12  H16 MOL d   1       3.436  19.707  53.021  0.00  0.00     0.043 H 
ATOM     13  H17 MOL d   1       3.327  21.431  52.529  0.00  0.00     0.043 H 
ATOM     14  H18 MOL d   1       7.533  20.444  49.778  0.00  0.00     0.084 H 
ATOM     15  H19 MOL d   1       6.330  19.099  48.099  0.00  0.00     0.084 H 
ATOM     16  H20 MOL d   1       2.769  19.150  50.450  0.00  0.00     0.085 H 
ENDROOT
BRANCH   1  17
ATOM     17  C16 MOL d   1       7.467  22.157  52.587  0.00  0.00     0.006 C 
ATOM     18  H28 MOL d   1       7.859  21.383  53.264  0.00  0.00     0.051 H 
BRANCH  17  19
ATOM     19  C1  MOL d   1       8.568  22.291  51.546  0.00  0.00    -0.055 C 
ATOM     20  H1  MOL d   1       9.524  22.345  52.088  0.00  0.00     0.034 H 
ATOM     21  H2  MOL d   1       8.546  21.380  50.931  0.00  0.00     0.034 H 
BRANCH  19  22
ATOM     22  C2  MOL d   1       8.523  23.465  50.605  0.00  0.00    -0.064 C 
ATOM     23  H3  MOL d   1       8.511  24.403  51.179  0.00  0.00     0.033 H 
ATOM     24  H4  MOL d   1       7.620  23.407  49.979  0.00  0.00     0.033 H 
BRANCH  22  25
ATOM     25  C3  MOL d   1       9.758  23.414  49.731  0.00  0.00    -0.059 C 
ATOM     26  H5  MOL d   1      10.650  23.404  50.374  0.00  0.00     0.033 H 
ATOM     27  H6  MOL d   1       9.779  24.307  49.090  0.00  0.00     0.033 H 
BRANCH  25  28
ATOM     28  C4  MOL d   1       9.770  22.179  48.854  0.00  0.00    -0.013 C 
ATOM     29  H7  MOL d   1       8.759  22.045  48.442  0.00  0.00     0.044 H 
ATOM     30  H8  MOL d   1      10.025  21.316  49.486  0.00  0.00     0.044 H 
BRANCH  28  31
ATOM     31  C5  MOL d   1      10.746  22.215  47.696  0.00  0.00     0.068 C 
ATOM     32  N7  MOL d   1      11.386  21.127  47.350  0.00  0.00    -0.389 N 
ATOM     33  H11 MOL d   1      12.050  21.148  46.563  0.00  0.00     0.157 HD
ATOM     34  H12 MOL d   1      11.225  20.249  47.865  0.00  0.00     0.157 HD
BRANCH  31  35
ATOM     35  N6  MOL d   1      10.951  23.275  46.935  0.00  0.00    -0.389 N 
ATOM     36  H9  MOL d   1      11.631  23.231  46.163  0.00  0.00     0.157 HD
ATOM     37  H10 MOL d   1      10.431  24.146  47.114  0.00  0.00     0.157 HD
ENDBRANCH  31  35
ENDBRANCH  28  31
ENDBRANCH  25  28
ENDBRANCH  22  25
ENDBRANCH  19  22
ENDBRANCH  17  19
BRANCH  17  38
ATOM     38  C15 MOL d   1       7.365  23.430  53.478  0.00  0.00     0.093 C 
ATOM     39  O8  MOL d   1       8.102  23.591  54.404  0.00  0.00    -0.306 OA
ATOM     40  H29 MOL d   1       6.612  24.184  53.254  0.00  0.00     0.143 H 
ENDBRANCH  17  38
ENDBRANCH   1  17
BRANCH   4  41
ATOM     41  O9  MOL d   1       5.063  21.536  54.481  0.00  0.00    -0.395 OA
ATOM     42  H13 MOL d   1       4.562  22.322  54.297  0.00  0.00     0.210 HD
ENDBRANCH   4  41
BRANCH   8  43
ATOM     43  C43 MOL d   1       3.672  18.498  47.934  0.00  0.00    -0.023 A 
ATOM     44  C44 MOL d   1       2.383  18.962  47.641  0.00  0.00    -0.040 A 
ATOM     45  C45 MOL d   1       1.668  18.486  46.557  0.00  0.00     0.069 A 
ATOM     46  H21 MOL d   1       1.934  19.714  48.281  0.00  0.00     0.089 H 
ATOM     47  C24 MOL d   1       2.251  17.515  45.747  0.00  0.00    -0.051 A 
ATOM     48  C25 MOL d   1       3.516  17.011  46.030  0.00  0.00    -0.080 A 
ATOM     49  H22 MOL d   1       1.711  17.146  44.883  0.00  0.00     0.087 H 
ATOM     50  C6  MOL d   1       4.225  17.500  47.120  0.00  0.00    -0.072 A 
ATOM     51  H23 MOL d   1       3.947  16.239  45.402  0.00  0.00     0.083 H 
ATOM     52  H24 MOL d   1       5.211  17.108  47.342  0.00  0.00     0.084 H 
BRANCH  45  53
ATOM     53  O54 MOL d   1       0.386  18.991  46.290  0.00  0.00    -0.356 OA
BRANCH  53  54
ATOM     54  C53 MOL d   1       0.378  19.861  45.167  0.00  0.00     0.010 C 
ATOM     55  H25 MOL d   1      -0.644  20.231  44.997  0.00  0.00     0.066 H 
ATOM     56  H26 MOL d   1       0.723  19.314  44.277  0.00  0.00     0.066 H 
ATOM     57  H27 MOL d   1       1.049  20.712  45.358  0.00  0.00     0.066 H 
ENDBRANCH  53  54
ENDBRANCH  45  53
ENDBRANCH   8  43
TORSDOF 12
