REMARK  15 active torsions:
REMARK  status: ('A' for Active; 'I' for Inactive)
REMARK    1  A    between atoms: N1_1  and  C7_2 
REMARK       I    between atoms: C26_26  and  N1_1 
REMARK    2  A    between atoms: N1_1  and  C1_30 
REMARK    3  A    between atoms: C7_2  and  C27_29 
REMARK    4  A    between atoms: C24_22  and  C8_4 
REMARK    5  A    between atoms: C17_6  and  C18_7 
REMARK    6  A    between atoms: C16_32  and  C17_6 
REMARK    7  A    between atoms: C18_7  and  C19_8 
REMARK    8  A    between atoms: C19_8  and  C20_9 
REMARK    9  A    between atoms: C20_9  and  C21_10 
REMARK   10  A    between atoms: C21_10  and  N2_11 
REMARK   11  A    between atoms: C13_18  and  O3_14 
REMARK   12  A    between atoms: C16_32  and  C10_15 
REMARK   13  A    between atoms: C5_27  and  C26_26 
REMARK   14  A    between atoms: C1_30  and  C2_31 
REMARK   15  A    between atoms: C16_32  and  C15_33 
ROOT
ATOM      1  C10 GR1 d   1       6.433  21.815  52.100  0.00  0.00     0.006 C 
ATOM      2  C11 GR1 d   1       4.828  20.378  51.187  0.00  0.00    -0.048 A 
ATOM      3  C12 GR1 d   1       6.097  20.866  50.974  0.00  0.00    -0.044 A 
ATOM      4  C13 GR1 d   1       5.588  21.170  53.274  0.00  0.00     0.047 C 
ATOM      5  C14 GR1 d   1       4.296  20.763  52.539  0.00  0.00    -0.016 C 
ATOM      6  C22 GR1 d   1       6.827  20.489  49.859  0.00  0.00    -0.075 A 
ATOM      7  C23 GR1 d   1       6.201  19.661  48.946  0.00  0.00    -0.072 A 
ATOM      8  C24 GR1 d   1       4.879  19.224  49.113  0.00  0.00    -0.025 A 
ATOM      9  C25 GR1 d   1       4.186  19.567  50.275  0.00  0.00    -0.066 A 
ATOM     10  H17 GR1 d   1       5.982  22.787  51.849  0.00  0.00     0.052 H 
ATOM     11  H18 GR1 d   1       6.121  20.273  53.621  0.00  0.00     0.084 H 
ATOM     12  H19 GR1 d   1       3.803  19.913  53.034  0.00  0.00     0.043 H 
ATOM     13  H20 GR1 d   1       3.592  21.605  52.469  0.00  0.00     0.043 H 
ATOM     14  H21 GR1 d   1       7.845  20.829  49.709  0.00  0.00     0.084 H 
ATOM     15  H22 GR1 d   1       6.752  19.338  48.070  0.00  0.00     0.084 H 
ATOM     16  H23 GR1 d   1       3.179  19.209  50.454  0.00  0.00     0.085 H 
ENDROOT
BRANCH   8  17
ATOM     17  C8  GR1 d   1       4.201  18.443  48.031  0.00  0.00    -0.025 A 
ATOM     18  C9  GR1 d   1       4.854  17.547  47.182  0.00  0.00    -0.072 A 
ATOM     19  C3  GR1 d   1       4.143  16.900  46.171  0.00  0.00    -0.081 A 
ATOM     20  H3  GR1 d   1       5.913  17.354  47.309  0.00  0.00     0.084 H 
ATOM     21  C4  GR1 d   1       2.777  17.127  46.001  0.00  0.00    -0.068 A 
ATOM     22  H24 GR1 d   1       4.658  16.213  45.510  0.00  0.00     0.083 H 
ATOM     23  C5  GR1 d   1       2.134  18.001  46.870  0.00  0.00     0.033 A 
ATOM     24  H25 GR1 d   1       2.228  16.632  45.208  0.00  0.00     0.085 H 
ATOM     25  C6  GR1 d   1       2.850  18.646  47.859  0.00  0.00    -0.057 A 
ATOM     26  H26 GR1 d   1       2.333  19.333  48.520  0.00  0.00     0.086 H 
BRANCH  23  27
ATOM     27  C26 GR1 d   1       0.649  18.192  46.964  0.00  0.00     0.253 C 
ATOM     28  N1  GR1 d   1      -0.022  18.914  46.058  0.00  0.00    -0.349 N 
ATOM     29  O1  GR1 d   1       0.038  17.730  47.915  0.00  0.00    -0.267 OA
BRANCH  28  30
ATOM     30  C7  GR1 d   1       0.492  19.197  44.714  0.00  0.00    -0.005 C 
ATOM     31  H1  GR1 d   1      -0.357  19.339  44.029  0.00  0.00     0.063 H 
ATOM     32  H2  GR1 d   1       1.098  18.344  44.375  0.00  0.00     0.063 H 
BRANCH  30  33
ATOM     33  C27 GR1 d   1       1.346  20.441  44.703  0.00  0.00    -0.061 C 
ATOM     34  H27 GR1 d   1       1.714  20.624  43.683  0.00  0.00     0.029 H 
ATOM     35  H28 GR1 d   1       2.200  20.305  45.382  0.00  0.00     0.029 H 
ATOM     36  H29 GR1 d   1       0.746  21.301  45.036  0.00  0.00     0.029 H 
ENDBRANCH  30  33
ENDBRANCH  28  30
BRANCH  28  37
ATOM     37  C1  GR1 d   1      -1.293  19.507  46.547  0.00  0.00    -0.005 C 
ATOM     38  H30 GR1 d   1      -1.651  20.203  45.774  0.00  0.00     0.063 H 
ATOM     39  H31 GR1 d   1      -1.064  20.066  47.467  0.00  0.00     0.063 H 
BRANCH  37  40
ATOM     40  C2  GR1 d   1      -2.448  18.539  46.869  0.00  0.00    -0.061 C 
ATOM     41  H32 GR1 d   1      -3.320  19.112  47.218  0.00  0.00     0.029 H 
ATOM     42  H33 GR1 d   1      -2.131  17.838  47.656  0.00  0.00     0.029 H 
ATOM     43  H34 GR1 d   1      -2.718  17.976  45.963  0.00  0.00     0.029 H 
ENDBRANCH  37  40
ENDBRANCH  28  37
ENDBRANCH  23  27
ENDBRANCH   8  17
BRANCH   1  44
ATOM     44  C16 GR1 d   1       7.902  22.153  52.429  0.00  0.00     0.006 C 
ATOM     45  H35 GR1 d   1       8.268  21.303  53.024  0.00  0.00     0.051 H 
BRANCH  44  46
ATOM     46  C17 GR1 d   1       8.915  22.359  51.324  0.00  0.00    -0.055 C 
ATOM     47  H4  GR1 d   1       9.857  22.696  51.781  0.00  0.00     0.034 H 
ATOM     48  H5  GR1 d   1       9.076  21.393  50.822  0.00  0.00     0.034 H 
BRANCH  46  49
ATOM     49  C18 GR1 d   1       8.507  23.377  50.273  0.00  0.00    -0.064 C 
ATOM     50  H6  GR1 d   1       8.366  24.355  50.756  0.00  0.00     0.033 H 
ATOM     51  H7  GR1 d   1       7.562  23.057  49.811  0.00  0.00     0.033 H 
BRANCH  49  52
ATOM     52  C19 GR1 d   1       9.577  23.505  49.186  0.00  0.00    -0.059 C 
ATOM     53  H8  GR1 d   1      10.243  24.339  49.452  0.00  0.00     0.033 H 
ATOM     54  H9  GR1 d   1       9.076  23.726  48.232  0.00  0.00     0.033 H 
BRANCH  52  55
ATOM     55  C20 GR1 d   1      10.424  22.255  49.004  0.00  0.00    -0.013 C 
ATOM     56  H10 GR1 d   1       9.758  21.382  49.073  0.00  0.00     0.044 H 
ATOM     57  H11 GR1 d   1      11.159  22.222  49.822  0.00  0.00     0.044 H 
BRANCH  55  58
ATOM     58  C21 GR1 d   1      11.167  22.163  47.718  0.00  0.00     0.068 C 
ATOM     59  N3  GR1 d   1      11.261  23.196  46.833  0.00  0.00    -0.389 N 
ATOM     60  H14 GR1 d   1      11.789  23.077  45.957  0.00  0.00     0.157 HD
ATOM     61  H15 GR1 d   1      10.804  24.095  47.041  0.00  0.00     0.157 HD
BRANCH  58  62
ATOM     62  N2  GR1 d   1      11.754  21.004  47.463  0.00  0.00    -0.389 N 
ATOM     63  H12 GR1 d   1      12.284  20.876  46.589  0.00  0.00     0.157 HD
ATOM     64  H13 GR1 d   1      11.681  20.230  48.139  0.00  0.00     0.157 HD
ENDBRANCH  58  62
ENDBRANCH  55  58
ENDBRANCH  52  55
ENDBRANCH  49  52
ENDBRANCH  46  49
ENDBRANCH  44  46
BRANCH  44  65
ATOM     65  C15 GR1 d   1       7.978  23.419  53.299  0.00  0.00     0.093 C 
ATOM     66  O2  GR1 d   1       8.963  23.514  53.974  0.00  0.00    -0.306 OA
ATOM     67  H36 GR1 d   1       7.193  24.174  53.301  0.00  0.00     0.143 H 
ENDBRANCH  44  65
ENDBRANCH   1  44
BRANCH   4  68
ATOM     68  O3  GR1 d   1       5.275  21.947  54.470  0.00  0.00    -0.395 OA
ATOM     69  H16 GR1 d   1       4.774  22.716  54.225  0.00  0.00     0.210 HD
ENDBRANCH   4  68
TORSDOF 15
