REMARK WARNING: 32 MAX_TORS EXCEEDED!!!
REMARK  37 active torsions:
REMARK  status: ('A' for Active; 'I' for Inactive)
REMARK    1  A    between atoms: N_1  and  CA_2 
REMARK    2  A    between atoms: CA_2  and  C_3 
REMARK    3  A    between atoms: CA_2  and  CB_5 
REMARK       I    between atoms: C_3  and  N_12 
REMARK    4  A    between atoms: CB_5  and  CG_6 
REMARK    5  A    between atoms: CG_6  and  CD_7 
REMARK    6  A    between atoms: CD_7  and  NE_8 
REMARK       I    between atoms: NE_8  and  CZ_9 
REMARK       I    between atoms: CZ_9  and  NH1_10 
REMARK       I    between atoms: CZ_9  and  NH2_11 
REMARK    7  A    between atoms: N_12  and  CA_13 
REMARK    8  A    between atoms: CA_13  and  C_14 
REMARK    9  A    between atoms: CA_13  and  CB_16 
REMARK       I    between atoms: C_14  and  N_20 
REMARK   10  A    between atoms: CB_16  and  CG_17 
REMARK   11  A    between atoms: CG_17  and  CD1_18 
REMARK   12  A    between atoms: CG_17  and  CD2_19 
REMARK   13  A    between atoms: N_20  and  CA_21 
REMARK   14  A    between atoms: CA_21  and  C_22 
REMARK   15  A    between atoms: CA_21  and  CB_24 
REMARK       I    between atoms: C_22  and  N_32 
REMARK   16  A    between atoms: CB_24  and  CG_25 
REMARK   17  A    between atoms: CZ_30  and  OH_31 
REMARK   18  A    between atoms: N_32  and  CA_33 
REMARK   19  A    between atoms: CA_33  and  C_34 
REMARK   20  A    between atoms: CA_33  and  CB_36 
REMARK       I    between atoms: C_34  and  N_42 
REMARK   21  A    between atoms: CB_36  and  CG_37 
REMARK   22  A    between atoms: N_42  and  CA_43 
REMARK   23  A    between atoms: CA_43  and  CB_44 
REMARK   24  A    between atoms: CA_43  and  C_46 
REMARK   25  A    between atoms: CB_44  and  OG_45 
REMARK   26  A    between atoms: OG_45  and  P_48 
REMARK       I    between atoms: C_46  and  N_52 
REMARK   27  A    between atoms: N_52  and  CA_53 
REMARK   28  A    between atoms: CA_53  and  C_54 
REMARK   29  A    between atoms: CA_53  and  CB_56 
REMARK       I    between atoms: C_54  and  N_60 
REMARK   30  A    between atoms: CB_56  and  CG_57 
REMARK   31  A    between atoms: CG_57  and  CD1_58 
REMARK   32  A    between atoms: CG_57  and  CD2_59 
REMARK   33  A    between atoms: CA_61  and  C_62 
REMARK       I    between atoms: C_62  and  N_67 
REMARK   34  A    between atoms: N_67  and  CA_68 
REMARK   35  A    between atoms: CA_68  and  C_69 
REMARK   36  A    between atoms: CA_68  and  CB_71 
REMARK   37  A    between atoms: C_69  and  O_70 
ROOT
ATOM      1  CA  HIS d   1      30.109  22.807  44.375  0.00  0.00     0.094 C 
ATOM      2  H37 HIS d   1      29.120  22.347  44.518  0.00  0.00     0.088 H 
ENDROOT
BRANCH   1   3
ATOM      3  N   HIS d   1      30.088  23.551  43.134  0.00  0.00    -0.346 N 
ATOM      4  C   TYR d   1      28.970  23.559  42.398  0.00  0.00     0.241 C 
ATOM      5  O   TYR d   1      27.954  22.966  42.760  0.00  0.00    -0.271 OA
ATOM      6  H36 HIS d   1      30.898  24.053  42.830  0.00  0.00     0.163 HD
BRANCH   4   7
ATOM      7  CA  TYR d   1      29.112  24.246  41.040  0.00  0.00     0.093 C 
ATOM      8  H28 TYR d   1      30.094  23.976  40.625  0.00  0.00     0.088 H 
BRANCH   7   9
ATOM      9  N   TYR d   1      28.075  23.768  40.117  0.00  0.00    -0.346 N 
ATOM     10  C   LEU d   1      28.282  22.711  39.355  0.00  0.00     0.241 C 
ATOM     11  O   LEU d   1      29.343  22.097  39.387  0.00  0.00    -0.271 OA
ATOM     12  H27 TYR d   1      27.200  24.250  40.065  0.00  0.00     0.163 HD
BRANCH  10  13
ATOM     13  CA  LEU d   1      27.126  22.313  38.446  0.00  0.00     0.089 C 
ATOM     14  H17 LEU d   1      27.209  21.238  38.227  0.00  0.00     0.087 H 
BRANCH  13  15
ATOM     15  N   LEU d   1      25.839  22.562  39.085  0.00  0.00    -0.346 N 
ATOM     16  C   ARG d   1      25.350  21.778  40.018  0.00  0.00     0.248 C 
ATOM     17  O   ARG d   1      25.999  20.846  40.507  0.00  0.00    -0.271 OA
ATOM     18  H16 LEU d   1      25.308  23.361  38.802  0.00  0.00     0.163 HD
BRANCH  16  19
ATOM     19  CA  ARG d   1      23.985  22.101  40.596  0.00  0.00     0.176 C 
ATOM     20  H4  ARG d   1      23.552  22.948  40.043  0.00  0.00     0.099 H 
BRANCH  19  21
ATOM     21  N   ARG d   1      23.047  20.949  40.510  0.00  0.00    -0.067 N 
ATOM     22  H1  ARG d   1      22.157  21.210  40.905  0.00  0.00     0.275 HD
ATOM     23  H2  ARG d   1      23.426  20.168  41.023  0.00  0.00     0.275 HD
ATOM     24  H3  ARG d   1      22.923  20.688  39.544  0.00  0.00     0.275 HD
ENDBRANCH  19  21
BRANCH  19  25
ATOM     25  CB  ARG d   1      24.187  22.496  42.063  0.00  0.00    -0.029 C 
ATOM     26  H5  ARG d   1      25.067  21.968  42.460  0.00  0.00     0.036 H 
ATOM     27  H6  ARG d   1      23.296  22.207  42.639  0.00  0.00     0.036 H 
BRANCH  25  28
ATOM     28  CG  ARG d   1      24.404  24.002  42.200  0.00  0.00    -0.047 C 
ATOM     29  H7  ARG d   1      23.664  24.541  41.590  0.00  0.00     0.035 H 
ATOM     30  H8  ARG d   1      25.418  24.264  41.862  0.00  0.00     0.035 H 
BRANCH  28  31
ATOM     31  CD  ARG d   1      24.237  24.378  43.660  0.00  0.00     0.009 C 
ATOM     32  H9  ARG d   1      23.245  24.052  44.005  0.00  0.00     0.064 H 
ATOM     33  H10 ARG d   1      24.321  25.470  43.763  0.00  0.00     0.064 H 
BRANCH  31  34
ATOM     34  NE  ARG d   1      25.262  23.740  44.481  0.00  0.00    -0.227 N 
ATOM     35  CZ  ARG d   1      25.373  23.825  45.806  0.00  0.00     0.665 C 
ATOM     36  NH1 ARG d   1      24.526  24.501  46.565  0.00  0.00    -0.235 N 
ATOM     37  NH2 ARG d   1      26.389  23.200  46.398  0.00  0.00    -0.235 N 
ATOM     38  H12 ARG d   1      24.661  24.532  47.586  0.00  0.00     0.174 HD
ATOM     39  H13 ARG d   1      23.732  24.996  46.135  0.00  0.00     0.174 HD
ATOM     40  H14 ARG d   1      27.065  22.666  45.833  0.00  0.00     0.174 HD
ATOM     41  H15 ARG d   1      26.499  23.251  47.421  0.00  0.00     0.174 HD
ATOM     42  H11 ARG d   1      25.966  23.171  43.989  0.00  0.00     0.177 HD
ENDBRANCH  31  34
ENDBRANCH  28  31
ENDBRANCH  25  28
ENDBRANCH  19  25
ENDBRANCH  16  19
ENDBRANCH  13  15
BRANCH  13  43
ATOM     43  CB  LEU d   1      27.191  23.097  37.127  0.00  0.00    -0.035 C 
ATOM     44  H18 LEU d   1      28.157  22.874  36.651  0.00  0.00     0.037 H 
ATOM     45  H19 LEU d   1      27.141  24.169  37.370  0.00  0.00     0.037 H 
BRANCH  43  46
ATOM     46  CG  LEU d   1      26.085  22.796  36.106  0.00  0.00    -0.059 C 
ATOM     47  H20 LEU d   1      25.131  23.135  36.537  0.00  0.00     0.038 H 
BRANCH  46  48
ATOM     48  CD1 LEU d   1      26.326  23.571  34.819  0.00  0.00    -0.073 C 
ATOM     49  H21 LEU d   1      25.526  23.344  34.099  0.00  0.00     0.028 H 
ATOM     50  H22 LEU d   1      27.297  23.279  34.392  0.00  0.00     0.028 H 
ATOM     51  H23 LEU d   1      26.330  24.649  35.036  0.00  0.00     0.028 H 
ENDBRANCH  46  48
BRANCH  46  52
ATOM     52  CD2 LEU d   1      25.955  21.306  35.804  0.00  0.00    -0.073 C 
ATOM     53  H24 LEU d   1      25.781  20.756  36.741  0.00  0.00     0.028 H 
ATOM     54  H25 LEU d   1      26.881  20.945  35.333  0.00  0.00     0.028 H 
ATOM     55  H26 LEU d   1      25.109  21.143  35.120  0.00  0.00     0.028 H 
ENDBRANCH  46  52
ENDBRANCH  43  46
ENDBRANCH  13  43
ENDBRANCH  10  13
ENDBRANCH   7   9
BRANCH   7  56
ATOM     56  CB  TYR d   1      29.055  25.740  41.157  0.00  0.00    -0.014 C 
ATOM     57  H29 TYR d   1      29.383  26.171  40.200  0.00  0.00     0.043 H 
ATOM     58  H30 TYR d   1      29.748  26.047  41.954  0.00  0.00     0.043 H 
BRANCH  56  59
ATOM     59  CG  TYR d   1      27.690  26.299  41.480  0.00  0.00    -0.056 A 
ATOM     60  CD1 TYR d   1      26.804  26.578  40.447  0.00  0.00    -0.074 A 
ATOM     61  CE1 TYR d   1      25.558  27.114  40.751  0.00  0.00    -0.051 A 
ATOM     62  H31 TYR d   1      27.081  26.380  39.418  0.00  0.00     0.084 H 
ATOM     63  CZ  TYR d   1      25.199  27.354  42.067  0.00  0.00     0.065 A 
ATOM     64  H33 TYR d   1      24.862  27.346  39.953  0.00  0.00     0.087 H 
ATOM     65  CE2 TYR d   1      26.074  27.088  43.097  0.00  0.00    -0.051 A 
ATOM     66  CD2 TYR d   1      27.314  26.545  42.794  0.00  0.00    -0.074 A 
ATOM     67  H34 TYR d   1      25.799  27.299  44.124  0.00  0.00     0.087 H 
ATOM     68  H32 TYR d   1      28.002  26.308  43.598  0.00  0.00     0.084 H 
BRANCH  63  69
ATOM     69  OH  TYR d   1      23.952  27.891  42.312  0.00  0.00    -0.361 OA
ATOM     70  H35 TYR d   1      23.491  28.006  41.489  0.00  0.00     0.217 HD
ENDBRANCH  63  69
ENDBRANCH  56  59
ENDBRANCH   7  56
ENDBRANCH   4   7
ENDBRANCH   1   3
BRANCH   1  71
ATOM     71  C   HIS d   1      30.446  23.611  45.599  0.00  0.00     0.241 C 
ATOM     72  O   HIS d   1      31.139  24.592  45.606  0.00  0.00    -0.271 OA
ATOM     73  N   SEP d   1      29.916  23.077  46.696  0.00  0.00    -0.344 N 
ATOM     74  H43 SEP d   1      29.262  22.322  46.650  0.00  0.00     0.163 HD
BRANCH  73  75
ATOM     75  CA  SEP d   1      30.341  23.654  47.980  0.00  0.00     0.110 C 
ATOM     76  H44 SEP d   1      30.977  24.539  47.831  0.00  0.00     0.090 H 
BRANCH  75  77
ATOM     77  CB  SEP d   1      29.166  24.026  48.812  0.00  0.00     0.059 C 
ATOM     78  H45 SEP d   1      28.442  24.638  48.255  0.00  0.00     0.079 H 
ATOM     79  H46 SEP d   1      29.460  24.552  49.732  0.00  0.00     0.079 H 
BRANCH  77  80
ATOM     80  OG  SEP d   1      28.667  22.710  49.079  0.00  0.00    -0.280 OA
BRANCH  80  81
ATOM     81  P   SEP d   1      26.880  22.553  49.779  0.00  0.00     0.422 P 
ATOM     82  O1P SEP d   1      25.947  23.443  49.124  0.00  0.00    -0.617 OA
ATOM     83  O2P SEP d   1      27.230  23.052  51.169  0.00  0.00    -0.617 OA
ATOM     84  O3P SEP d   1      26.419  21.103  49.973  0.00  0.00    -0.617 OA
ENDBRANCH  80  81
ENDBRANCH  77  80
ENDBRANCH  75  77
BRANCH  75  85
ATOM     85  C   SEP d   1      31.141  22.495  48.594  0.00  0.00     0.243 C 
ATOM     86  O   SEP d   1      31.307  21.539  47.840  0.00  0.00    -0.271 OA
ATOM     87  N   LEU d   1      31.616  22.647  49.792  0.00  0.00    -0.346 N 
ATOM     88  H47 LEU d   1      31.389  23.482  50.293  0.00  0.00     0.163 HD
BRANCH  87  89
ATOM     89  CA  LEU d   1      32.465  21.656  50.441  0.00  0.00     0.090 C 
ATOM     90  H48 LEU d   1      33.336  21.471  49.795  0.00  0.00     0.087 H 
BRANCH  89  91
ATOM     91  C   LEU d   1      31.752  20.332  50.669  0.00  0.00     0.243 C 
ATOM     92  O   LEU d   1      30.696  20.296  51.329  0.00  0.00    -0.271 OA
ATOM     93  N   PRO d   1      32.323  19.269  50.129  0.00  0.00    -0.337 N 
ATOM     94  CA  PRO d   1      31.747  17.930  50.256  0.00  0.00     0.091 C 
ATOM     95  CD  PRO d   1      33.548  19.273  49.286  0.00  0.00    -0.001 C 
ATOM     96  CB  PRO d   1      32.521  17.063  49.269  0.00  0.00    -0.036 C 
ATOM     97  H58 PRO d   1      30.681  17.949  49.985  0.00  0.00     0.087 H 
ATOM     98  CG  PRO d   1      33.572  17.910  48.658  0.00  0.00    -0.048 C 
ATOM     99  H59 PRO d   1      31.843  16.686  48.489  0.00  0.00     0.036 H 
ATOM    100  H60 PRO d   1      32.982  16.215  49.796  0.00  0.00     0.036 H 
ATOM    101  H61 PRO d   1      33.386  18.001  47.578  0.00  0.00     0.035 H 
ATOM    102  H62 PRO d   1      34.556  17.448  48.823  0.00  0.00     0.035 H 
ATOM    103  H63 PRO d   1      34.445  19.433  49.903  0.00  0.00     0.064 H 
ATOM    104  H64 PRO d   1      33.488  20.056  48.516  0.00  0.00     0.064 H 
BRANCH  94 105
ATOM    105  C   PRO d   1      31.886  17.410  51.686  0.00  0.00     0.241 C 
ATOM    106  O   PRO d   1      32.726  17.916  52.451  0.00  0.00    -0.271 OA
ATOM    107  N   ALA d   1      31.012  16.476  52.094  0.00  0.00    -0.353 N 
ATOM    108  H65 ALA d   1      30.335  16.108  51.457  0.00  0.00     0.163 HD
BRANCH 107 109
ATOM    109  CA  ALA d   1      31.056  15.999  53.478  0.00  0.00     0.029 C 
ATOM    110  H66 ALA d   1      30.836  16.852  54.137  0.00  0.00     0.075 H 
BRANCH 109 111
ATOM    111  C   ALA d   1      32.466  15.475  53.808  0.00  0.00     0.035 C 
ATOM    112  H67 ALA d   1      32.400  14.807  54.679  0.00  0.00     0.077 H 
ATOM    113  H68 ALA d   1      33.114  16.331  54.050  0.00  0.00     0.077 H 
BRANCH 111 114
ATOM    114  O   ALA d   1      32.976  14.841  52.850  0.00  0.00    -0.399 OA
ATOM    115  H69 ALA d   1      33.044  15.412  52.094  0.00  0.00     0.209 HD
ENDBRANCH 111 114
ENDBRANCH 109 111
BRANCH 109 116
ATOM    116  CB  ALA d   1      30.031  14.909  53.760  0.00  0.00    -0.055 C 
ATOM    117  H70 ALA d   1      30.112  14.593  54.810  0.00  0.00     0.030 H 
ATOM    118  H71 ALA d   1      30.221  14.048  53.102  0.00  0.00     0.030 H 
ATOM    119  H72 ALA d   1      29.020  15.299  53.571  0.00  0.00     0.030 H 
ENDBRANCH 109 116
ENDBRANCH 107 109
ENDBRANCH  94 105
ENDBRANCH  89  91
BRANCH  89 120
ATOM    120  CB  LEU d   1      32.953  22.214  51.786  0.00  0.00    -0.035 C 
ATOM    121  H49 LEU d   1      32.088  22.244  52.465  0.00  0.00     0.037 H 
ATOM    122  H50 LEU d   1      33.315  23.237  51.608  0.00  0.00     0.037 H 
BRANCH 120 123
ATOM    123  CG  LEU d   1      34.077  21.445  52.503  0.00  0.00    -0.059 C 
ATOM    124  H51 LEU d   1      33.802  20.381  52.547  0.00  0.00     0.038 H 
BRANCH 123 125
ATOM    125  CD1 LEU d   1      35.367  21.599  51.707  0.00  0.00    -0.073 C 
ATOM    126  H52 LEU d   1      36.177  21.052  52.212  0.00  0.00     0.028 H 
ATOM    127  H53 LEU d   1      35.631  22.665  51.639  0.00  0.00     0.028 H 
ATOM    128  H54 LEU d   1      35.225  21.191  50.695  0.00  0.00     0.028 H 
ENDBRANCH 123 125
BRANCH 123 129
ATOM    129  CD2 LEU d   1      34.309  21.951  53.936  0.00  0.00    -0.073 C 
ATOM    130  H55 LEU d   1      33.382  21.843  54.518  0.00  0.00     0.028 H 
ATOM    131  H56 LEU d   1      34.603  23.011  53.908  0.00  0.00     0.028 H 
ATOM    132  H57 LEU d   1      35.108  21.361  54.408  0.00  0.00     0.028 H 
ENDBRANCH 123 129
ENDBRANCH 120 123
ENDBRANCH  89 120
ENDBRANCH  87  89
ENDBRANCH  75  85
ENDBRANCH  73  75
ENDBRANCH   1  71
BRANCH   1 133
ATOM    133  CB  HIS d   1      31.203  21.702  44.265  0.00  0.00     0.002 C 
ATOM    134  H38 HIS d   1      31.192  21.093  45.181  0.00  0.00     0.046 H 
ATOM    135  H39 HIS d   1      32.187  22.181  44.154  0.00  0.00     0.046 H 
BRANCH 133 136
ATOM    136  CG  HIS d   1      30.956  20.813  43.084  0.00  0.00     0.030 A 
ATOM    137  ND1 HIS d   1      31.341  21.159  41.811  0.00  0.00    -0.353 N 
ATOM    138  CE1 HIS d   1      30.976  20.198  40.977  0.00  0.00     0.063 A 
ATOM    139  H40 HIS d   1      31.833  22.025  41.549  0.00  0.00     0.166 HD
ATOM    140  NE2 HIS d   1      30.361  19.251  41.665  0.00  0.00    -0.254 NA
ATOM    141  H42 HIS d   1      31.153  20.189  39.903  0.00  0.00     0.143 H 
ATOM    142  CD2 HIS d   1      30.331  19.615  42.991  0.00  0.00     0.025 A 
ATOM    143  H41 HIS d   1      29.889  19.048  43.809  0.00  0.00     0.117 H 
ENDBRANCH 133 136
ENDBRANCH   1 133
TORSDOF 37
