REMARK  31 active torsions:
REMARK  status: ('A' for Active; 'I' for Inactive)
REMARK    1  A    between atoms: CA_60  and  N_59 
REMARK    2  A    between atoms: C_61  and  CA_60 
REMARK    3  A    between atoms: CA_60  and  CB_63 
REMARK       I    between atoms: N_64  and  C_61 
REMARK    4  A    between atoms: CA_65  and  N_64 
REMARK    5  A    between atoms: C_66  and  CA_65 
REMARK    6  A    between atoms: CA_65  and  CB_68 
REMARK       I    between atoms: N_75  and  C_66 
REMARK    7  A    between atoms: CB_68  and  CG_69 
REMARK    8  A    between atoms: CG_69  and  CD_70 
REMARK    9  A    between atoms: CD_70  and  NE_71 
REMARK       I    between atoms: NE_71  and  CZ_72 
REMARK       I    between atoms: CZ_72  and  NH1_73 
REMARK   10  A    between atoms: CA_76  and  N_75 
REMARK   11  A    between atoms: C_77  and  CA_76 
REMARK   12  A    between atoms: CA_76  and  CB_79 
REMARK       I    between atoms: N_81  and  C_77 
REMARK   13  A    between atoms: CB_79  and  OG_80 
REMARK   14  A    between atoms: CA_82  and  N_81 
REMARK   15  A    between atoms: C_83  and  CA_82 
REMARK   16  A    between atoms: CA_82  and  CB_85 
REMARK       I    between atoms: N_91  and  C_83 
REMARK   17  A    between atoms: CB_85  and  CG_86 
REMARK   18  A    between atoms: CA_92  and  N_91 
REMARK   19  A    between atoms: C_95  and  CA_92 
REMARK   20  A    between atoms: CA_92  and  CB_93 
REMARK   21  A    between atoms: CB_93  and  OG_94 
REMARK   22  A    between atoms: OG_94  and  P_97 
REMARK       I    between atoms: N_101  and  C_95 
REMARK   23  A    between atoms: CA_102  and  N_101 
REMARK   24  A    between atoms: C_103  and  CA_102 
REMARK   25  A    between atoms: CA_102  and  CB_105 
REMARK       I    between atoms: N_113  and  C_103 
REMARK   26  A    between atoms: CB_105  and  CG_106 
REMARK   27  A    between atoms: CZ_111  and  OH_112 
REMARK   28  A    between atoms: C_115  and  CA_114 
REMARK       I    between atoms: C_115  and  N_120 
REMARK   29  A    between atoms: N_120  and  CA_121 
REMARK   30  A    between atoms: CA_121  and  C_122 
REMARK   31  A    between atoms: CA_121  and  CB_124 
ROOT
ATOM      1  H27 HIS d   1      24.374 -10.313  41.891  0.00  0.00     0.088 H 
ATOM      2  CA  HIS d   1      24.296 -11.199  41.244  0.00  0.00     0.094 C 
ENDROOT
BRANCH   2   3
ATOM      3  C   HIS d   1      22.883 -11.737  41.387  0.00  0.00     0.241 C 
ATOM      4  N   SEP d   1      21.953 -10.867  41.838  0.00  0.00    -0.344 N 
ATOM      5  H33 SEP d   1      22.226  -9.969  42.183  0.00  0.00     0.163 HD
ATOM      6  O   HIS d   1      22.598 -12.882  41.011  0.00  0.00    -0.271 OA
BRANCH   4   7
ATOM      7  CA  SEP d   1      20.560 -11.248  41.816  0.00  0.00     0.110 C 
ATOM      8  H34 SEP d   1      20.453 -12.077  41.100  0.00  0.00     0.090 H 
BRANCH   7   9
ATOM      9  C   SEP d   1      19.670 -10.095  41.335  0.00  0.00     0.243 C 
ATOM     10  O   SEP d   1      20.200  -9.024  41.091  0.00  0.00    -0.271 OA
ATOM     11  N   TYR d   1      18.401 -10.355  41.075  0.00  0.00    -0.346 N 
ATOM     12  H37 TYR d   1      18.029 -11.236  41.368  0.00  0.00     0.163 HD
BRANCH  11  13
ATOM     13  CA  TYR d   1      17.514  -9.428  40.385  0.00  0.00     0.093 C 
ATOM     14  H38 TYR d   1      17.983  -8.435  40.455  0.00  0.00     0.088 H 
BRANCH  13  15
ATOM     15  C   TYR d   1      16.163  -9.323  41.035  0.00  0.00     0.243 C 
ATOM     16  O   TYR d   1      15.707 -10.429  41.239  0.00  0.00    -0.271 OA
ATOM     17  N   PRO d   1      15.709  -8.143  41.383  0.00  0.00    -0.337 N 
ATOM     18  CA  PRO d   1      16.188  -6.821  41.187  0.00  0.00     0.091 C 
ATOM     19  CD  PRO d   1      14.437  -7.976  42.091  0.00  0.00    -0.001 C 
ATOM     20  CB  PRO d   1      15.099  -5.818  41.608  0.00  0.00    -0.036 C 
ATOM     21  H46 PRO d   1      16.439  -6.675  40.126  0.00  0.00     0.087 H 
ATOM     22  CG  PRO d   1      14.491  -6.604  42.756  0.00  0.00    -0.048 C 
ATOM     23  H47 PRO d   1      14.373  -5.634  40.803  0.00  0.00     0.036 H 
ATOM     24  H48 PRO d   1      15.526  -4.861  41.943  0.00  0.00     0.036 H 
ATOM     25  H49 PRO d   1      13.491  -6.235  43.026  0.00  0.00     0.035 H 
ATOM     26  H50 PRO d   1      15.136  -6.601  43.647  0.00  0.00     0.035 H 
ATOM     27  H51 PRO d   1      13.598  -8.022  41.381  0.00  0.00     0.064 H 
ATOM     28  H52 PRO d   1      14.318  -8.763  42.851  0.00  0.00     0.064 H 
BRANCH  18  29
ATOM     29  C   PRO d   1      17.429  -6.583  42.046  0.00  0.00     0.241 C 
ATOM     30  O   PRO d   1      17.521  -7.158  43.136  0.00  0.00    -0.271 OA
ATOM     31  N   ALA d   1      18.297  -5.659  41.677  0.00  0.00    -0.345 N 
ATOM     32  H53 ALA d   1      18.123  -5.134  40.843  0.00  0.00     0.163 HD
BRANCH  31  33
ATOM     33  CA  ALA d   1      19.502  -5.382  42.451  0.00  0.00     0.093 C 
ATOM     34  H54 ALA d   1      19.726  -6.275  43.053  0.00  0.00     0.089 H 
BRANCH  33  35
ATOM     35  C   ALA d   1      19.343  -4.202  43.416  0.00  0.00     0.196 C 
ATOM     36  O4  ALA d   1      20.142  -4.051  44.379  0.00  0.00    -0.646 OA
ATOM     37  O   ALA d   1      18.405  -3.388  43.233  0.00  0.00    -0.646 OA
ENDBRANCH  33  35
BRANCH  33  38
ATOM     38  CB  ALA d   1      20.668  -5.137  41.508  0.00  0.00    -0.048 C 
ATOM     39  H55 ALA d   1      21.576  -4.928  42.094  0.00  0.00     0.030 H 
ATOM     40  H56 ALA d   1      20.442  -4.276  40.862  0.00  0.00     0.030 H 
ATOM     41  H57 ALA d   1      20.830  -6.029  40.886  0.00  0.00     0.030 H 
ENDBRANCH  33  38
ENDBRANCH  31  33
ENDBRANCH  18  29
ENDBRANCH  13  15
BRANCH  13  42
ATOM     42  CB  TYR d   1      17.365  -9.752  38.884  0.00  0.00    -0.014 C 
ATOM     43  H39 TYR d   1      16.875 -10.732  38.785  0.00  0.00     0.043 H 
ATOM     44  H40 TYR d   1      18.368  -9.796  38.435  0.00  0.00     0.043 H 
BRANCH  42  45
ATOM     45  CG  TYR d   1      16.540  -8.720  38.125  0.00  0.00    -0.056 A 
ATOM     46  CD2 TYR d   1      17.146  -7.659  37.466  0.00  0.00    -0.074 A 
ATOM     47  CE2 TYR d   1      16.437  -6.693  36.785  0.00  0.00    -0.051 A 
ATOM     48  H42 TYR d   1      18.227  -7.587  37.488  0.00  0.00     0.084 H 
ATOM     49  CZ  TYR d   1      15.059  -6.786  36.774  0.00  0.00     0.065 A 
ATOM     50  H44 TYR d   1      16.946  -5.884  36.273  0.00  0.00     0.087 H 
ATOM     51  CE1 TYR d   1      14.407  -7.807  37.428  0.00  0.00    -0.051 A 
ATOM     52  CD1 TYR d   1      15.155  -8.786  38.068  0.00  0.00    -0.074 A 
ATOM     53  H43 TYR d   1      13.324  -7.846  37.443  0.00  0.00     0.087 H 
ATOM     54  H41 TYR d   1      14.645  -9.621  38.534  0.00  0.00     0.084 H 
BRANCH  49  55
ATOM     55  OH  TYR d   1      14.315  -5.814  36.137  0.00  0.00    -0.361 OA
ATOM     56  H45 TYR d   1      13.761  -5.375  36.771  0.00  0.00     0.217 HD
ENDBRANCH  49  55
ENDBRANCH  42  45
ENDBRANCH  13  42
ENDBRANCH  11  13
ENDBRANCH   7   9
BRANCH   7  57
ATOM     57  CB  SEP d   1      20.094 -11.747  43.180  0.00  0.00     0.059 C 
ATOM     58  H35 SEP d   1      20.742 -12.532  43.597  0.00  0.00     0.079 H 
ATOM     59  H36 SEP d   1      19.050 -12.094  43.180  0.00  0.00     0.079 H 
BRANCH  57  60
ATOM     60  OG  SEP d   1      20.267 -10.457  43.831  0.00  0.00    -0.280 OA
BRANCH  60  61
ATOM     61  P   SEP d   1      20.072 -10.311  45.739  0.00  0.00     0.422 P 
ATOM     62  O1  SEP d   1      20.943 -11.345  46.465  0.00  0.00    -0.617 OA
ATOM     63  O3  SEP d   1      20.187  -8.956  46.370  0.00  0.00    -0.617 OA
ATOM     64  O2  SEP d   1      18.630 -10.819  45.962  0.00  0.00    -0.617 OA
ENDBRANCH  60  61
ENDBRANCH  57  60
ENDBRANCH   7  57
ENDBRANCH   4   7
ENDBRANCH   2   3
BRANCH   2  65
ATOM     65  CB  HIS d   1      24.565 -10.764  39.802  0.00  0.00     0.002 C 
ATOM     66  H28 HIS d   1      23.864  -9.961  39.528  0.00  0.00     0.046 H 
ATOM     67  H29 HIS d   1      24.420 -11.623  39.130  0.00  0.00     0.046 H 
BRANCH  65  68
ATOM     68  CG  HIS d   1      25.973 -10.261  39.668  0.00  0.00     0.030 A 
ATOM     69  CD2 HIS d   1      27.129 -10.915  39.386  0.00  0.00     0.025 A 
ATOM     70  H31 HIS d   1      27.242 -11.975  39.163  0.00  0.00     0.117 H 
ATOM     71  NE2 HIS d   1      28.127  -9.972  39.439  0.00  0.00    -0.254 NA
ATOM     72  CE1 HIS d   1      27.605  -8.794  39.743  0.00  0.00     0.063 A 
ATOM     73  H32 HIS d   1      28.158  -7.862  39.852  0.00  0.00     0.143 H 
ATOM     74  ND1 HIS d   1      26.302  -8.940  39.892  0.00  0.00    -0.353 N 
ATOM     75  H30 HIS d   1      25.639  -8.190  40.136  0.00  0.00     0.166 HD
ENDBRANCH  65  68
ENDBRANCH   2  65
BRANCH   2  76
ATOM     76  N   HIS d   1      25.343 -12.145  41.661  0.00  0.00    -0.346 N 
ATOM     77  H26 HIS d   1      25.767 -12.761  40.997  0.00  0.00     0.163 HD
ATOM     78  C   SER d   1      25.710 -12.164  42.925  0.00  0.00     0.243 C 
ATOM     79  O   SER d   1      25.186 -11.440  43.794  0.00  0.00    -0.271 OA
BRANCH  78  80
ATOM     80  CA  SER d   1      26.703 -13.234  43.383  0.00  0.00     0.109 C 
ATOM     81  H22 SER d   1      27.374 -13.535  42.565  0.00  0.00     0.090 H 
BRANCH  80  82
ATOM     82  CB  SER d   1      25.892 -14.437  43.892  0.00  0.00     0.044 C 
ATOM     83  H23 SER d   1      25.167 -14.739  43.122  0.00  0.00     0.077 H 
ATOM     84  H24 SER d   1      25.356 -14.153  44.810  0.00  0.00     0.077 H 
BRANCH  82  85
ATOM     85  OG  SER d   1      26.762 -15.527  44.173  0.00  0.00    -0.398 OA
ATOM     86  H25 SER d   1      27.388 -15.268  44.839  0.00  0.00     0.209 HD
ENDBRANCH  82  85
ENDBRANCH  80  82
BRANCH  80  87
ATOM     87  N   SER d   1      27.453 -12.651  44.485  0.00  0.00    -0.344 N 
ATOM     88  H21 SER d   1      27.388 -13.058  45.396  0.00  0.00     0.163 HD
ATOM     89  C   ARG d   1      28.221 -11.588  44.296  0.00  0.00     0.241 C 
ATOM     90  O   ARG d   1      28.429 -11.126  43.180  0.00  0.00    -0.271 OA
BRANCH  89  91
ATOM     91  CA  ARG d   1      28.868 -11.006  45.554  0.00  0.00     0.089 C 
ATOM     92  H9  ARG d   1      28.904 -11.786  46.329  0.00  0.00     0.087 H 
BRANCH  91  93
ATOM     93  CB  ARG d   1      28.042  -9.839  46.075  0.00  0.00    -0.036 C 
ATOM     94  H10 ARG d   1      28.646  -9.313  46.829  0.00  0.00     0.036 H 
ATOM     95  H11 ARG d   1      27.141 -10.254  46.551  0.00  0.00     0.036 H 
BRANCH  93  96
ATOM     96  CG  ARG d   1      27.588  -8.808  45.045  0.00  0.00    -0.048 C 
ATOM     97  H12 ARG d   1      27.174  -9.329  44.169  0.00  0.00     0.035 H 
ATOM     98  H13 ARG d   1      28.451  -8.200  44.736  0.00  0.00     0.035 H 
BRANCH  96  99
ATOM     99  CD  ARG d   1      26.523  -7.900  45.635  0.00  0.00     0.009 C 
ATOM    100  H14 ARG d   1      26.945  -7.422  46.531  0.00  0.00     0.064 H 
ATOM    101  H15 ARG d   1      25.666  -8.527  45.923  0.00  0.00     0.064 H 
BRANCH  99 102
ATOM    102  NE  ARG d   1      26.033  -6.848  44.755  0.00  0.00    -0.227 N 
ATOM    103  H16 ARG d   1      26.237  -6.919  43.748  0.00  0.00     0.177 HD
ATOM    104  CZ  ARG d   1      25.333  -5.797  45.187  0.00  0.00     0.665 C 
ATOM    105  NH1 ARG d   1      25.033  -5.648  46.474  0.00  0.00    -0.235 N 
ATOM    106  NH2 ARG d   1      24.911  -4.868  44.335  0.00  0.00    -0.235 N 
ATOM    107  H17 ARG d   1      24.492  -4.829  46.785  0.00  0.00     0.174 HD
ATOM    108  H18 ARG d   1      25.342  -6.352  47.160  0.00  0.00     0.174 HD
ATOM    109  H19 ARG d   1      25.127  -4.954  43.331  0.00  0.00     0.174 HD
ATOM    110  H20 ARG d   1      24.369  -4.063  44.678  0.00  0.00     0.174 HD
ENDBRANCH  99 102
ENDBRANCH  96  99
ENDBRANCH  93  96
ENDBRANCH  91  93
BRANCH  91 111
ATOM    111  N   ARG d   1      30.226 -10.584  45.253  0.00  0.00    -0.346 N 
ATOM    112  H8  ARG d   1      30.413  -9.624  45.042  0.00  0.00     0.163 HD
ATOM    113  C   ALA d   1      31.225 -11.468  45.256  0.00  0.00     0.248 C 
ATOM    114  O   ALA d   1      31.081 -12.657  45.554  0.00  0.00    -0.271 OA
BRANCH 113 115
ATOM    115  CA  ALA d   1      32.592 -10.883  44.890  0.00  0.00     0.172 C 
ATOM    116  H4  ALA d   1      32.670  -9.883  45.340  0.00  0.00     0.098 H 
BRANCH 115 117
ATOM    117  CB  ALA d   1      32.652 -10.715  43.383  0.00  0.00    -0.042 C 
ATOM    118  H5  ALA d   1      31.804 -10.099  43.049  0.00  0.00     0.030 H 
ATOM    119  H6  ALA d   1      32.600 -11.703  42.902  0.00  0.00     0.030 H 
ATOM    120  H7  ALA d   1      33.595 -10.221  43.106  0.00  0.00     0.030 H 
ENDBRANCH 115 117
BRANCH 115 121
ATOM    121  N   ALA d   1      33.704 -11.708  45.457  0.00  0.00    -0.067 N 
ATOM    122  H1  ALA d   1      34.589 -11.300  45.201  0.00  0.00     0.275 HD
ATOM    123  H2  ALA d   1      33.647 -12.645  45.091  0.00  0.00     0.275 HD
ATOM    124  H3  ALA d   1      33.624 -11.734  46.462  0.00  0.00     0.275 HD
ENDBRANCH 115 121
ENDBRANCH 113 115
ENDBRANCH  91 111
ENDBRANCH  89  91
ENDBRANCH  80  87
ENDBRANCH  78  80
ENDBRANCH   2  76
TORSDOF 31
