REMARK  9 active torsions:
REMARK  status: ('A' for Active; 'I' for Inactive)
REMARK    1  A    between atoms: C3_3  and  O3_4 
REMARK    2  A    between atoms: C7_8  and  C8_9 
REMARK    3  A    between atoms: C11_12  and  O11_13 
REMARK    4  A    between atoms: C15_17  and  C16_18 
REMARK    5  A    between atoms: C16_18  and  C17_20 
REMARK    6  A    between atoms: C20_23  and  O23_26 
REMARK    7  A    between atoms: O23_26  and  C24_27 
REMARK    8  A    between atoms: C24_27  and  C25_28 
REMARK    9  A    between atoms: C25_28  and  N26_29 
ROOT
ATOM      1  C17 RAL d   1      20.363  28.588   9.414  0.00  0.00     0.015 A 
ATOM      2  C18 RAL d   1      21.123  27.508   8.970  0.00  0.00    -0.067 A 
ATOM      3  C19 RAL d   1      22.123  27.612   7.971  0.00  0.00    -0.050 A 
ATOM      4  C20 RAL d   1      22.325  28.877   7.445  0.00  0.00     0.068 A 
ATOM      5  C21 RAL d   1      21.572  29.949   7.896  0.00  0.00    -0.050 A 
ATOM      6  C22 RAL d   1      20.606  29.830   8.850  0.00  0.00    -0.067 A 
ATOM      7  H10 RAL d   1      20.940  26.536   9.412  0.00  0.00     0.085 H 
ATOM      8  H11 RAL d   1      22.695  26.753   7.639  0.00  0.00     0.087 H 
ATOM      9  H12 RAL d   1      21.760  30.928   7.470  0.00  0.00     0.087 H 
ATOM     10  H13 RAL d   1      20.035  30.696   9.164  0.00  0.00     0.085 H 
ENDROOT
BRANCH   1  11
ATOM     11  C16 RAL d   1      19.347  28.422  10.448  0.00  0.00     0.194 C 
ATOM     12  O16 RAL d   1      19.245  27.333  11.042  0.00  0.00    -0.287 OA
BRANCH  11  13
ATOM     13  C15 RAL d   1      18.477  29.445  10.813  0.00  0.00     0.044 A 
ATOM     14  C7  RAL d   1      18.599  30.111  12.067  0.00  0.00     0.031 A 
ATOM     15  S6  RAL d   1      17.361  31.237  12.147  0.00  0.00    -0.088 SA
ATOM     16  C5  RAL d   1      16.646  30.947  10.657  0.00  0.00     0.019 A 
ATOM     17  C4  RAL d   1      15.578  31.529  10.065  0.00  0.00    -0.034 A 
ATOM     18  C14 RAL d   1      17.351  29.908   9.989  0.00  0.00    -0.003 A 
ATOM     19  C3  RAL d   1      15.155  31.132   8.777  0.00  0.00     0.067 A 
ATOM     20  H4  RAL d   1      15.039  32.312  10.587  0.00  0.00     0.089 H 
ATOM     21  C2  RAL d   1      15.839  30.128   8.103  0.00  0.00    -0.050 A 
ATOM     22  C1  RAL d   1      16.931  29.525   8.729  0.00  0.00    -0.068 A 
ATOM     23  H2  RAL d   1      15.531  29.819   7.111  0.00  0.00     0.087 H 
ATOM     24  H1  RAL d   1      17.464  28.735   8.213  0.00  0.00     0.085 H 
BRANCH  14  25
ATOM     25  C8  RAL d   1      19.604  29.881  13.140  0.00  0.00    -0.018 A 
ATOM     26  C9  RAL d   1      19.230  29.554  14.413  0.00  0.00    -0.069 A 
ATOM     27  C10 RAL d   1      20.162  29.321  15.430  0.00  0.00    -0.050 A 
ATOM     28  H5  RAL d   1      18.174  29.472  14.643  0.00  0.00     0.085 H 
ATOM     29  C11 RAL d   1      21.512  29.427  15.143  0.00  0.00     0.065 A 
ATOM     30  H6  RAL d   1      19.831  29.061  16.429  0.00  0.00     0.087 H 
ATOM     31  C12 RAL d   1      21.914  29.760  13.857  0.00  0.00    -0.050 A 
ATOM     32  C13 RAL d   1      20.961  29.985  12.866  0.00  0.00    -0.069 A 
ATOM     33  H8  RAL d   1      22.969  29.845  13.624  0.00  0.00     0.087 H 
ATOM     34  H9  RAL d   1      21.284  30.245  11.865  0.00  0.00     0.085 H 
BRANCH  29  35
ATOM     35  O11 RAL d   1      22.447  29.204  16.139  0.00  0.00    -0.361 OA
ATOM     36  H7  RAL d   1      22.349  28.319  16.471  0.00  0.00     0.217 HD
ENDBRANCH  29  35
ENDBRANCH  14  25
BRANCH  19  37
ATOM     37  O3  RAL d   1      14.066  31.718   8.166  0.00  0.00    -0.361 OA
ATOM     38  H3  RAL d   1      14.340  32.119   7.350  0.00  0.00     0.217 HD
ENDBRANCH  19  37
ENDBRANCH  11  13
ENDBRANCH   1  11
BRANCH   4  39
ATOM     39  O23 RAL d   1      23.230  29.279   6.466  0.00  0.00    -0.350 OA
BRANCH  39  40
ATOM     40  C24 RAL d   1      23.464  28.353   5.432  0.00  0.00     0.049 C 
ATOM     41  H14 RAL d   1      22.648  28.383   4.695  0.00  0.00     0.077 H 
ATOM     42  H15 RAL d   1      23.553  27.335   5.839  0.00  0.00     0.077 H 
BRANCH  40  43
ATOM     43  C25 RAL d   1      24.776  28.790   4.794  0.00  0.00     0.103 C 
ATOM     44  H16 RAL d   1      25.291  27.877   4.460  0.00  0.00     0.079 H 
ATOM     45  H17 RAL d   1      25.369  29.279   5.581  0.00  0.00     0.079 H 
BRANCH  43  46
ATOM     46  N26 RAL d   1      24.743  29.712   3.643  0.00  0.00    -0.069 N 
ATOM     47  C27 RAL d   1      26.071  29.594   2.985  0.00  0.00     0.084 C 
ATOM     48  C28 RAL d   1      26.179  30.450   1.724  0.00  0.00    -0.042 C 
ATOM     49  H19 RAL d   1      26.237  28.541   2.712  0.00  0.00     0.076 H 
ATOM     50  H20 RAL d   1      26.846  29.915   3.696  0.00  0.00     0.076 H 
ATOM     51  C29 RAL d   1      25.959  31.932   2.094  0.00  0.00    -0.062 C 
ATOM     52  H21 RAL d   1      25.414  30.135   0.999  0.00  0.00     0.035 H 
ATOM     53  H22 RAL d   1      27.178  30.326   1.280  0.00  0.00     0.035 H 
ATOM     54  C30 RAL d   1      24.604  32.042   2.797  0.00  0.00    -0.042 C 
ATOM     55  H23 RAL d   1      25.959  32.549   1.183  0.00  0.00     0.033 H 
ATOM     56  H24 RAL d   1      26.759  32.272   2.768  0.00  0.00     0.033 H 
ATOM     57  C31 RAL d   1      24.539  31.117   4.020  0.00  0.00     0.084 C 
ATOM     58  H25 RAL d   1      23.809  31.760   2.091  0.00  0.00     0.035 H 
ATOM     59  H26 RAL d   1      24.452  33.081   3.124  0.00  0.00     0.035 H 
ATOM     60  H27 RAL d   1      25.322  31.413   4.734  0.00  0.00     0.076 H 
ATOM     61  H28 RAL d   1      23.552  31.220   4.494  0.00  0.00     0.076 H 
ATOM     62  H18 RAL d   1      24.009  29.433   3.011  0.00  0.00     0.280 HD
ENDBRANCH  43  46
ENDBRANCH  40  43
ENDBRANCH  39  40
ENDBRANCH   4  39
TORSDOF 9
