REMARK  3 active torsions:
REMARK  status: ('A' for Active; 'I' for Inactive)
REMARK    1  A    between atoms: C3_3  and  O3_4 
REMARK    2  A    between atoms: C13_14  and  C18_20 
REMARK    3  A    between atoms: C17_18  and  O17_19 
ROOT
ATOM      1  C1  EST d   1     104.106  17.203  24.775  0.00  0.00    -0.073 A 
ATOM      2  C2  EST d   1     102.995  17.834  25.370  0.00  0.00    -0.051 A 
ATOM      3  C3  EST d   1     101.695  17.355  25.120  0.00  0.00     0.066 A 
ATOM      4  C4  EST d   1     101.506  16.240  24.274  0.00  0.00    -0.044 A 
ATOM      5  C5  EST d   1     102.621  15.588  23.660  0.00  0.00    -0.049 A 
ATOM      6  C6  EST d   1     102.371  14.379  22.735  0.00  0.00    -0.040 C 
ATOM      7  C7  EST d   1     103.644  13.753  22.086  0.00  0.00    -0.057 C 
ATOM      8  C8  EST d   1     104.898  13.873  22.953  0.00  0.00    -0.042 C 
ATOM      9  C9  EST d   1     105.178  15.388  23.261  0.00  0.00    -0.024 C 
ATOM     10  C10 EST d   1     103.957  16.078  23.918  0.00  0.00    -0.047 A 
ATOM     11  C11 EST d   1     106.462  15.459  24.125  0.00  0.00    -0.057 C 
ATOM     12  C12 EST d   1     107.711  14.803  23.508  0.00  0.00    -0.055 C 
ATOM     13  C13 EST d   1     107.463  13.343  23.124  0.00  0.00    -0.014 C 
ATOM     14  C14 EST d   1     106.170  13.270  22.242  0.00  0.00    -0.041 C 
ATOM     15  C15 EST d   1     106.228  11.821  21.792  0.00  0.00    -0.058 C 
ATOM     16  C16 EST d   1     107.701  11.713  21.263  0.00  0.00    -0.040 C 
ATOM     17  C17 EST d   1     108.494  12.719  22.135  0.00  0.00     0.043 C 
ATOM     18  H1  EST d   1     105.100  17.585  24.976  0.00  0.00     0.084 H 
ATOM     19  H2  EST d   1     103.142  18.689  26.020  0.00  0.00     0.087 H 
ATOM     20  H4  EST d   1     100.503  15.874  24.088  0.00  0.00     0.088 H 
ATOM     21  H5  EST d   1     101.703  14.706  21.924  0.00  0.00     0.040 H 
ATOM     22  H6  EST d   1     101.874  13.597  23.327  0.00  0.00     0.040 H 
ATOM     23  H7  EST d   1     103.833  14.263  21.130  0.00  0.00     0.034 H 
ATOM     24  H8  EST d   1     103.451  12.686  21.901  0.00  0.00     0.034 H 
ATOM     25  H9  EST d   1     104.727  13.333  23.896  0.00  0.00     0.041 H 
ATOM     26  H10 EST d   1     105.375  15.906  22.311  0.00  0.00     0.048 H 
ATOM     27  H11 EST d   1     106.254  14.959  25.083  0.00  0.00     0.034 H 
ATOM     28  H12 EST d   1     106.691  16.520  24.307  0.00  0.00     0.034 H 
ATOM     29  H13 EST d   1     108.531  14.843  24.240  0.00  0.00     0.034 H 
ATOM     30  H14 EST d   1     107.997  15.364  22.606  0.00  0.00     0.034 H 
ATOM     31  H15 EST d   1     106.312  13.893  21.347  0.00  0.00     0.042 H 
ATOM     32  H16 EST d   1     105.499  11.619  20.993  0.00  0.00     0.033 H 
ATOM     33  H17 EST d   1     106.052  11.133  22.632  0.00  0.00     0.033 H 
ATOM     34  H18 EST d   1     107.755  11.991  20.200  0.00  0.00     0.036 H 
ATOM     35  H19 EST d   1     108.089  10.692  21.395  0.00  0.00     0.036 H 
ATOM     36  H20 EST d   1     108.899  13.523  21.503  0.00  0.00     0.084 H 
ENDROOT
BRANCH  13  37
ATOM     37  C18 EST d   1     107.379  12.449  24.419  0.00  0.00    -0.066 C 
ATOM     38  H22 EST d   1     106.652  12.886  25.120  0.00  0.00     0.028 H 
ATOM     39  H23 EST d   1     108.368  12.403  24.898  0.00  0.00     0.028 H 
ATOM     40  H24 EST d   1     107.058  11.434  24.143  0.00  0.00     0.028 H 
ENDBRANCH  13  37
BRANCH  17  41
ATOM     41  O17 EST d   1     109.610  12.027  22.746  0.00  0.00    -0.395 OA
ATOM     42  H21 EST d   1     110.173  11.675  22.067  0.00  0.00     0.210 HD
ENDBRANCH  17  41
BRANCH   3  43
ATOM     43  O3  EST d   1     100.598  17.990  25.704  0.00  0.00    -0.361 OA
ATOM     44  H3  EST d   1     100.680  17.956  26.650  0.00  0.00     0.217 HD
ENDBRANCH   3  43
TORSDOF 3
