REMARK  5 active torsions:
REMARK  status: ('A' for Active; 'I' for Inactive)
REMARK    1  A    between atoms: CA_9  and  CB_1 
REMARK    2  A    between atoms: CG_2  and  OD_3 
REMARK    3  A    between atoms: OD_3  and  CE_4 
REMARK    4  A    between atoms: C_5  and  CA_9 
REMARK    5  A    between atoms: CA_9  and  N_8 
ROOT
ATOM      1  CB  AMB d   1       2.705  33.766  52.957  0.00  0.00    -0.043 C 
ATOM      2  CG  AMB d   1       1.637  33.494  53.872  0.00  0.00     0.011 C 
ATOM      3  H1  AMB d   1       3.594  33.176  53.177  0.00  0.00     0.083 H 
ATOM      4  H2  AMB d   1       1.901  32.750  54.622  0.00  0.00     0.122 H 
ENDROOT
BRANCH   1   5
ATOM      5  CA  AMB d   1       2.903  34.673  51.757  0.00  0.00     0.200 C 
ATOM      6  H9  AMB d   1       2.479  35.659  51.998  0.00  0.00     0.107 H 
BRANCH   5   7
ATOM      7  C   AMB d   1       4.398  34.810  51.569  0.00  0.00     0.208 C 
ATOM      8  O   AMB d   1       4.847  35.522  50.629  0.00  0.00    -0.646 OA
ATOM      9  OXT AMB d   1       5.190  34.230  52.333  0.00  0.00    -0.646 OA
ENDBRANCH   5   7
BRANCH   5  10
ATOM     10  N   AMB d   1       2.270  34.217  50.522  0.00  0.00    -0.062 N 
ATOM     11  H6  AMB d   1       1.276  34.132  50.666  0.00  0.00     0.275 HD
ATOM     12  H7  AMB d   1       2.650  33.321  50.261  0.00  0.00     0.275 HD
ATOM     13  H8  AMB d   1       2.447  34.884  49.787  0.00  0.00     0.275 HD
ENDBRANCH   5  10
ENDBRANCH   1   5
BRANCH   2  14
ATOM     14  OD  AMB d   1       0.287  33.988  54.021  0.00  0.00    -0.368 OA
BRANCH  14  15
ATOM     15  CE  AMB d   1      -0.711  33.199  54.678  0.00  0.00     0.009 C 
ATOM     16  H3  AMB d   1      -1.664  33.748  54.688  0.00  0.00     0.066 H 
ATOM     17  H4  AMB d   1      -0.395  32.994  55.711  0.00  0.00     0.066 H 
ATOM     18  H5  AMB d   1      -0.841  32.249  54.139  0.00  0.00     0.066 H 
ENDBRANCH  14  15
ENDBRANCH   2  14
TORSDOF 5
