REMARK WARNING: 32 MAX_TORS EXCEEDED!!!
REMARK  64 active torsions:
REMARK  status: ('A' for Active; 'I' for Inactive)
REMARK    1  A    between atoms: N_1  and  CN_2 
REMARK    2  A    between atoms: N_1  and  CA_3 
REMARK    3  A    between atoms: N_1  and  O_84 
REMARK    4  A    between atoms: CA_3  and  C_4 
REMARK    5  A    between atoms: CA_3  and  CB_6 
REMARK       I    between atoms: C_4  and  N_14 
REMARK    6  A    between atoms: CB_6  and  OG1_7 
REMARK    7  A    between atoms: CB_6  and  CG2_8 
REMARK    8  A    between atoms: CG2_8  and  CD1_9 
REMARK    9  A    between atoms: CG2_8  and  CD2_10 
REMARK   10  A    between atoms: CD2_10  and  CE_11 
REMARK   11  A    between atoms: CZ_12  and  CH_13 
REMARK   12  A    between atoms: N_14  and  CA_15 
REMARK   13  A    between atoms: CA_15  and  C_16 
REMARK   14  A    between atoms: CA_15  and  CB_18 
REMARK       I    between atoms: C_16  and  N_20 
REMARK   15  A    between atoms: CB_18  and  CG_19 
REMARK   16  A    between atoms: N_20  and  CA_21 
REMARK   17  A    between atoms: N_20  and  CN_24 
REMARK   18  A    between atoms: CA_21  and  C_22 
REMARK       I    between atoms: C_22  and  N_25 
REMARK   19  A    between atoms: N_25  and  CN_26 
REMARK   20  A    between atoms: N_25  and  CA_27 
REMARK   21  A    between atoms: CA_27  and  CB_28 
REMARK   22  A    between atoms: CA_27  and  C_32 
REMARK   23  A    between atoms: CB_28  and  CG_29 
REMARK   24  A    between atoms: CG_29  and  CD1_30 
REMARK   25  A    between atoms: CG_29  and  CD2_31 
REMARK       I    between atoms: C_32  and  N_34 
REMARK   26  A    between atoms: N_34  and  CA_35 
REMARK   27  A    between atoms: CA_35  and  C_36 
REMARK   28  A    between atoms: CA_35  and  CB_38 
REMARK       I    between atoms: C_36  and  N_41 
REMARK   29  A    between atoms: CB_38  and  CG1_39 
REMARK   30  A    between atoms: CB_38  and  CG2_40 
REMARK   31  A    between atoms: N_41  and  CN_42 
REMARK   32  A    between atoms: N_41  and  CA_43 
REMARK   33  A    between atoms: CA_43  and  CB_44 
REMARK   34  A    between atoms: CA_43  and  C_48 
REMARK   35  A    between atoms: CB_44  and  CG_45 
REMARK   36  A    between atoms: CG_45  and  CD1_46 
REMARK   37  A    between atoms: CG_45  and  CD2_47 
REMARK       I    between atoms: C_48  and  N_50 
REMARK   38  A    between atoms: N_50  and  CA_51 
REMARK   39  A    between atoms: CA_51  and  C_52 
REMARK   40  A    between atoms: CA_51  and  CB_54 
REMARK       I    between atoms: C_52  and  N_55 
REMARK   41  A    between atoms: N_55  and  CA_56 
REMARK   42  A    between atoms: CA_56  and  CB_57 
REMARK   43  A    between atoms: CA_56  and  C_58 
REMARK       I    between atoms: C_58  and  N_60 
REMARK   44  A    between atoms: N_60  and  CN_61 
REMARK   45  A    between atoms: N_60  and  CA_62 
REMARK   46  A    between atoms: CA_62  and  CB_63 
REMARK   47  A    between atoms: CA_62  and  C_67 
REMARK   48  A    between atoms: CB_63  and  CG_64 
REMARK   49  A    between atoms: CG_64  and  CD1_65 
REMARK   50  A    between atoms: CG_64  and  CD2_66 
REMARK       I    between atoms: C_67  and  N_69 
REMARK   51  A    between atoms: N_69  and  CN_70 
REMARK   52  A    between atoms: N_69  and  CA_71 
REMARK   53  A    between atoms: CA_71  and  CB_72 
REMARK   54  A    between atoms: CA_71  and  C_76 
REMARK   55  A    between atoms: CB_72  and  CG_73 
REMARK   56  A    between atoms: CG_73  and  CD1_74 
REMARK   57  A    between atoms: CG_73  and  CD2_75 
REMARK   58  A    between atoms: C_76  and  CN_78 
REMARK   59  A    between atoms: CN_78  and  CA_79 
REMARK   60  A    between atoms: CN_78  and  CB_80 
REMARK   61  A    between atoms: CB_80  and  CG1_81 
REMARK   62  A    between atoms: CG1_81  and  CG2_82 
REMARK   63  A    between atoms: CG1_81  and  C_83 
REMARK   64  A    between atoms: O_84  and  OXT_85 
ROOT
ATOM      1  N   MLE d   1      11.143  55.132 -17.689  0.00  0.00    -0.341 N 
ATOM      2  C   VAL d   1      10.153  54.220 -17.703  0.00  0.00     0.243 C 
ATOM      3  O   VAL d   1       8.992  54.520 -17.445  0.00  0.00    -0.271 OA
ENDROOT
BRANCH   1   4
ATOM      4  CN  MLE d   1      12.560  54.927 -18.166  0.00  0.00    -0.015 C 
ATOM      5  H53 MLE d   1      12.733  53.857 -18.352  0.00  0.00     0.056 H 
ATOM      6  H54 MLE d   1      13.261  55.283 -17.397  0.00  0.00     0.056 H 
ATOM      7  H55 MLE d   1      12.719  55.492 -19.096  0.00  0.00     0.056 H 
ENDBRANCH   1   4
BRANCH   1   8
ATOM      8  CA  MLE d   1      10.640  56.473 -17.364  0.00  0.00     0.091 C 
ATOM      9  H56 MLE d   1       9.606  56.392 -16.997  0.00  0.00     0.087 H 
BRANCH   8  10
ATOM     10  CB  MLE d   1      11.546  56.945 -16.223  0.00  0.00    -0.035 C 
ATOM     11  H57 MLE d   1      11.338  58.010 -16.042  0.00  0.00     0.037 H 
ATOM     12  H58 MLE d   1      12.591  56.825 -16.546  0.00  0.00     0.037 H 
BRANCH  10  13
ATOM     13  CG  MLE d   1      11.371  56.195 -14.896  0.00  0.00    -0.059 C 
ATOM     14  H59 MLE d   1      11.615  55.134 -15.053  0.00  0.00     0.038 H 
BRANCH  13  15
ATOM     15  CD1 MLE d   1      12.319  56.773 -13.851  0.00  0.00    -0.073 C 
ATOM     16  H60 MLE d   1      12.191  56.233 -12.901  0.00  0.00     0.028 H 
ATOM     17  H61 MLE d   1      12.093  57.839 -13.700  0.00  0.00     0.028 H 
ATOM     18  H62 MLE d   1      13.357  56.664 -14.197  0.00  0.00     0.028 H 
ENDBRANCH  13  15
BRANCH  13  19
ATOM     19  CD2 MLE d   1       9.929  56.300 -14.403  0.00  0.00    -0.073 C 
ATOM     20  H63 MLE d   1       9.251  55.882 -15.161  0.00  0.00     0.028 H 
ATOM     21  H64 MLE d   1       9.677  57.356 -14.229  0.00  0.00     0.028 H 
ATOM     22  H65 MLE d   1       9.821  55.738 -13.464  0.00  0.00     0.028 H 
ENDBRANCH  13  19
ENDBRANCH  10  13
ENDBRANCH   8  10
BRANCH   8  23
ATOM     23  C   MLE d   1      10.630  57.427 -18.556  0.00  0.00     0.241 C 
ATOM     24  O   MLE d   1      10.786  57.008 -19.699  0.00  0.00    -0.271 OA
ATOM     25  N   ALA d   1      10.428  58.711 -18.284  0.00  0.00    -0.346 N 
ATOM     26  H66 ALA d   1      10.306  58.997 -17.334  0.00  0.00     0.163 HD
BRANCH  25  27
ATOM     27  CA  ALA d   1      10.381  59.715 -19.344  0.00  0.00     0.086 C 
ATOM     28  H67 ALA d   1       9.660  59.380 -20.104  0.00  0.00     0.086 H 
BRANCH  27  29
ATOM     29  C   ALA d   1      11.743  59.881 -20.018  0.00  0.00     0.240 C 
ATOM     30  O   ALA d   1      12.781  59.587 -19.425  0.00  0.00    -0.271 OA
ATOM     31  N   DAL d   1      11.739  60.358 -21.266  0.00  0.00    -0.346 N 
ATOM     32  H71 DAL d   1      10.876  60.490 -21.753  0.00  0.00     0.163 HD
BRANCH  31  33
ATOM     33  CA  DAL d   1      13.001  60.683 -21.910  0.00  0.00     0.086 C 
ATOM     34  H72 DAL d   1      13.767  60.837 -21.136  0.00  0.00     0.086 H 
BRANCH  33  35
ATOM     35  CB  DAL d   1      12.856  61.960 -22.724  0.00  0.00    -0.049 C 
ATOM     36  H73 DAL d   1      13.815  62.198 -23.207  0.00  0.00     0.030 H 
ATOM     37  H74 DAL d   1      12.565  62.787 -22.060  0.00  0.00     0.030 H 
ATOM     38  H75 DAL d   1      12.083  61.819 -23.494  0.00  0.00     0.030 H 
ENDBRANCH  33  35
BRANCH  33  39
ATOM     39  C   DAL d   1      13.436  59.540 -22.815  0.00  0.00     0.242 C 
ATOM     40  O   DAL d   1      12.572  58.881 -23.396  0.00  0.00    -0.271 OA
ATOM     41  N   MLE d   1      14.766  59.234 -22.980  0.00  0.00    -0.341 N 
BRANCH  41  42
ATOM     42  CN  MLE d   1      15.878  59.811 -22.136  0.00  0.00    -0.015 C 
ATOM     43  H76 MLE d   1      15.485  60.639 -21.528  0.00  0.00     0.056 H 
ATOM     44  H77 MLE d   1      16.679  60.184 -22.791  0.00  0.00     0.056 H 
ATOM     45  H78 MLE d   1      16.279  59.029 -21.474  0.00  0.00     0.056 H 
ENDBRANCH  41  42
BRANCH  41  46
ATOM     46  CA  MLE d   1      15.065  58.107 -23.878  0.00  0.00     0.091 C 
ATOM     47  H79 MLE d   1      14.131  57.638 -24.221  0.00  0.00     0.087 H 
BRANCH  46  48
ATOM     48  CB  MLE d   1      15.794  58.759 -25.059  0.00  0.00    -0.035 C 
ATOM     49  H80 MLE d   1      16.136  57.945 -25.715  0.00  0.00     0.037 H 
ATOM     50  H81 MLE d   1      16.666  59.288 -24.646  0.00  0.00     0.037 H 
BRANCH  48  51
ATOM     51  CG  MLE d   1      15.043  59.758 -25.942  0.00  0.00    -0.059 C 
ATOM     52  H82 MLE d   1      14.642  60.563 -25.309  0.00  0.00     0.038 H 
BRANCH  51  53
ATOM     53  CD1 MLE d   1      16.006  60.357 -26.958  0.00  0.00    -0.073 C 
ATOM     54  H83 MLE d   1      15.468  61.075 -27.594  0.00  0.00     0.028 H 
ATOM     55  H84 MLE d   1      16.424  59.555 -27.584  0.00  0.00     0.028 H 
ATOM     56  H85 MLE d   1      16.821  60.873 -26.430  0.00  0.00     0.028 H 
ENDBRANCH  51  53
BRANCH  51  57
ATOM     57  CD2 MLE d   1      13.885  59.074 -26.661  0.00  0.00    -0.073 C 
ATOM     58  H86 MLE d   1      13.195  58.645 -25.919  0.00  0.00     0.028 H 
ATOM     59  H87 MLE d   1      14.275  58.273 -27.305  0.00  0.00     0.028 H 
ATOM     60  H88 MLE d   1      13.349  59.811 -27.277  0.00  0.00     0.028 H 
ENDBRANCH  51  57
ENDBRANCH  48  51
ENDBRANCH  46  48
BRANCH  46  61
ATOM     61  C   MLE d   1      15.925  57.039 -23.194  0.00  0.00     0.243 C 
ATOM     62  O   MLE d   1      17.134  56.984 -23.407  0.00  0.00    -0.271 OA
ATOM     63  N   MLE d   1      15.314  56.177 -22.360  0.00  0.00    -0.343 N 
BRANCH  63  64
ATOM     64  CN  MLE d   1      13.828  56.149 -22.061  0.00  0.00    -0.015 C 
ATOM     65  H89 MLE d   1      13.328  56.960 -22.611  0.00  0.00     0.056 H 
ATOM     66  H90 MLE d   1      13.669  56.285 -20.981  0.00  0.00     0.056 H 
ATOM     67  H91 MLE d   1      13.409  55.181 -22.374  0.00  0.00     0.056 H 
ENDBRANCH  63  64
BRANCH  63  68
ATOM     68  CA  MLE d   1      16.214  55.193 -21.748  0.00  0.00     0.072 C 
ATOM     69  H92 MLE d   1      17.257  55.420 -22.012  0.00  0.00     0.085 H 
BRANCH  68  70
ATOM     70  CB  MLE d   1      16.004  55.379 -20.242  0.00  0.00    -0.037 C 
ATOM     71  H93 MLE d   1      16.641  54.643 -19.730  0.00  0.00     0.037 H 
ATOM     72  H94 MLE d   1      14.947  55.160 -20.030  0.00  0.00     0.037 H 
BRANCH  70  73
ATOM     73  CG  MLE d   1      16.316  56.751 -19.635  0.00  0.00    -0.059 C 
ATOM     74  H95 MLE d   1      15.629  57.495 -20.063  0.00  0.00     0.038 H 
BRANCH  73  75
ATOM     75  CD1 MLE d   1      16.100  56.684 -18.122  0.00  0.00    -0.073 C 
ATOM     76  H96 MLE d   1      16.322  57.665 -17.676  0.00  0.00     0.028 H 
ATOM     77  H97 MLE d   1      16.769  55.925 -17.689  0.00  0.00     0.028 H 
ATOM     78  H98 MLE d   1      15.055  56.414 -17.913  0.00  0.00     0.028 H 
ENDBRANCH  73  75
BRANCH  73  79
ATOM     79  CD2 MLE d   1      17.747  57.173 -19.948  0.00  0.00    -0.073 C 
ATOM     80  H99 MLE d   1      17.886  57.217 -21.038  0.00  0.00     0.028 H 
ATOM     81 0H10 MLE d   1      18.447  56.442 -19.518  0.00  0.00     0.028 H 
ATOM     82 1H10 MLE d   1      17.940  58.165 -19.514  0.00  0.00     0.028 H 
ENDBRANCH  73  79
ENDBRANCH  70  73
ENDBRANCH  68  70
BRANCH  68  83
ATOM     83  C   MLE d   1      15.898  53.776 -22.206  0.00  0.00     0.153 C 
ATOM     84  O   MLE d   1      14.874  53.548 -22.855  0.00  0.00    -0.295 OA
BRANCH  83  85
ATOM     85  CN  MVA d   1      16.778  52.795 -21.864  0.00  0.00     0.003 C 
ATOM     86 2H10 MVA d   1      16.305  52.702 -20.875  0.00  0.00     0.051 H 
BRANCH  85  87
ATOM     87  CA  MVA d   1      18.103  53.045 -21.183  0.00  0.00    -0.066 C 
ATOM     88 3H10 MVA d   1      18.618  52.087 -21.020  0.00  0.00     0.028 H 
ATOM     89 4H10 MVA d   1      17.930  53.538 -20.215  0.00  0.00     0.028 H 
ATOM     90 5H10 MVA d   1      18.726  53.692 -21.818  0.00  0.00     0.028 H 
ENDBRANCH  85  87
BRANCH  85  91
ATOM     91  CB  MVA d   1      16.351  51.438 -22.227  0.00  0.00    -0.053 C 
ATOM     92 6H10 MVA d   1      15.331  51.489 -22.635  0.00  0.00     0.034 H 
ATOM     93 7H10 MVA d   1      16.353  50.816 -21.320  0.00  0.00     0.034 H 
BRANCH  91  94
ATOM     94  CG1 MVA d   1      17.292  50.760 -23.306  0.00  0.00    -0.060 C 
ATOM     95 8H10 MVA d   1      18.283  50.572 -22.867  0.00  0.00     0.038 H 
BRANCH  94  96
ATOM     96  CG2 MVA d   1      16.611  49.458 -23.743  0.00  0.00    -0.073 C 
ATOM     97 9H10 MVA d   1      17.234  48.953 -24.496  0.00  0.00     0.028 H 
ATOM     98 0H11 MVA d   1      15.626  49.687 -24.176  0.00  0.00     0.028 H 
ATOM     99 1H11 MVA d   1      16.484  48.800 -22.871  0.00  0.00     0.028 H 
ENDBRANCH  94  96
BRANCH  94 100
ATOM    100  C   MVA d   1      17.431  51.566 -24.601  0.00  0.00    -0.073 C 
ATOM    101 2H11 MVA d   1      17.916  52.529 -24.383  0.00  0.00     0.028 H 
ATOM    102 3H11 MVA d   1      16.434  51.746 -25.030  0.00  0.00     0.028 H 
ATOM    103 4H11 MVA d   1      18.043  51.002 -25.320  0.00  0.00     0.028 H 
ENDBRANCH  94 100
ENDBRANCH  91  94
ENDBRANCH  85  91
ENDBRANCH  83  85
ENDBRANCH  68  83
ENDBRANCH  63  68
ENDBRANCH  46  61
ENDBRANCH  41  46
ENDBRANCH  33  39
ENDBRANCH  31  33
ENDBRANCH  27  29
BRANCH  27 104
ATOM    104  CB  ALA d   1       9.905  61.050 -18.779  0.00  0.00    -0.049 C 
ATOM    105  H68 ALA d   1       9.873  61.798 -19.584  0.00  0.00     0.030 H 
ATOM    106  H69 ALA d   1      10.600  61.385 -17.995  0.00  0.00     0.030 H 
ATOM    107  H70 ALA d   1       8.899  60.929 -18.351  0.00  0.00     0.030 H 
ENDBRANCH  27 104
ENDBRANCH  25  27
ENDBRANCH   8  23
ENDBRANCH   1   8
BRANCH   2 108
ATOM    108  CA  VAL d   1      10.520  52.776 -18.031  0.00  0.00     0.092 C 
ATOM    109  H45 VAL d   1      11.608  52.698 -18.174  0.00  0.00     0.088 H 
BRANCH 108 110
ATOM    110  N   VAL d   1      10.122  51.911 -16.934  0.00  0.00    -0.346 N 
ATOM    111  C   MLE d   1      10.745  51.923 -15.765  0.00  0.00     0.241 C 
ATOM    112  O   MLE d   1      11.703  52.653 -15.518  0.00  0.00    -0.271 OA
ATOM    113  H44 VAL d   1       9.352  51.286 -17.066  0.00  0.00     0.163 HD
BRANCH 111 114
ATOM    114  CA  MLE d   1      10.195  50.948 -14.730  0.00  0.00     0.091 C 
ATOM    115  H34 MLE d   1       9.101  50.918 -14.840  0.00  0.00     0.087 H 
BRANCH 114 116
ATOM    116  N   MLE d   1      10.748  49.599 -14.889  0.00  0.00    -0.342 N 
ATOM    117  C   SAR d   1       9.923  48.609 -15.331  0.00  0.00     0.238 C 
ATOM    118  O   SAR d   1       8.705  48.809 -15.468  0.00  0.00    -0.272 OA
BRANCH 117 119
ATOM    119  CA  SAR d   1      10.422  47.206 -15.689  0.00  0.00     0.071 C 
ATOM    120  H26 SAR d   1      10.938  46.785 -14.813  0.00  0.00     0.079 H 
ATOM    121  H27 SAR d   1       9.553  46.580 -15.938  0.00  0.00     0.079 H 
BRANCH 119 122
ATOM    122  N   SAR d   1      11.358  47.191 -16.839  0.00  0.00    -0.346 N 
ATOM    123  C   ABA d   1      12.604  46.681 -16.683  0.00  0.00     0.242 C 
ATOM    124  O   ABA d   1      12.926  46.264 -15.557  0.00  0.00    -0.271 OA
BRANCH 123 125
ATOM    125  CA  ABA d   1      13.625  46.616 -17.825  0.00  0.00     0.089 C 
ATOM    126  H20 ABA d   1      13.079  46.443 -18.764  0.00  0.00     0.087 H 
BRANCH 125 127
ATOM    127  N   ABA d   1      14.359  47.866 -17.923  0.00  0.00    -0.346 N 
ATOM    128  C   BMT d   1      14.250  48.695 -18.977  0.00  0.00     0.255 C 
ATOM    129  O   BMT d   1      13.523  48.417 -19.963  0.00  0.00    -0.271 OA
ATOM    130  H19 ABA d   1      14.972  48.121 -17.175  0.00  0.00     0.163 HD
BRANCH 128 131
ATOM    131  CA  BMT d   1      15.142  49.934 -18.917  0.00  0.00     0.234 C 
ATOM    132  H5  BMT d   1      16.177  49.572 -18.831  0.00  0.00     0.108 H 
BRANCH 131 133
ATOM    133  N   BMT d   1      15.098  50.755 -20.145  0.00  0.00     0.080 N 
ATOM    134  H1  BMT d   1      15.480  51.553 -19.662  0.00  0.00     0.321 HD
BRANCH 133 135
ATOM    135  CN  BMT d   1      13.880  51.594 -20.524  0.00  0.00     0.096 C 
ATOM    136  H2  BMT d   1      14.075  52.116 -21.472  0.00  0.00     0.072 H 
ATOM    137  H3  BMT d   1      13.682  52.332 -19.733  0.00  0.00     0.072 H 
ATOM    138  H4  BMT d   1      13.005  50.938 -20.640  0.00  0.00     0.072 H 
ENDBRANCH 133 135
BRANCH 133 139
ATOM    139  O   MVA d   1      16.249  50.628 -20.903  0.00  0.00    -0.033 OA
BRANCH 139 140
ATOM    140  OXT MVA d   1      17.216  49.902 -20.561  0.00  0.00    -0.222 OA
ATOM    141 5H11 MVA d   1      17.554  50.200 -19.725  0.00  0.00     0.256 HD
ENDBRANCH 139 140
ENDBRANCH 133 139
ENDBRANCH 131 133
BRANCH 131 142
ATOM    142  CB  BMT d   1      14.837  50.774 -17.590  0.00  0.00     0.078 C 
ATOM    143  H6  BMT d   1      15.046  50.120 -16.731  0.00  0.00     0.087 H 
BRANCH 142 144
ATOM    144  OG1 BMT d   1      13.443  51.125 -17.576  0.00  0.00    -0.392 OA
ATOM    145  H7  BMT d   1      13.251  51.625 -16.791  0.00  0.00     0.210 HD
ENDBRANCH 142 144
BRANCH 142 146
ATOM    146  CG2 BMT d   1      15.695  52.089 -17.402  0.00  0.00    -0.027 C 
ATOM    147  H8  BMT d   1      15.418  52.745 -18.241  0.00  0.00     0.043 H 
BRANCH 146 148
ATOM    148  CD1 BMT d   1      17.228  51.842 -17.503  0.00  0.00    -0.070 C 
ATOM    149  H9  BMT d   1      17.763  52.793 -17.364  0.00  0.00     0.028 H 
ATOM    150  H10 BMT d   1      17.468  51.428 -18.493  0.00  0.00     0.028 H 
ATOM    151  H11 BMT d   1      17.537  51.130 -16.723  0.00  0.00     0.028 H 
ENDBRANCH 146 148
BRANCH 146 152
ATOM    152  CD2 BMT d   1      15.423  52.888 -16.112  0.00  0.00    -0.045 C 
ATOM    153  H12 BMT d   1      14.360  53.170 -16.111  0.00  0.00     0.039 H 
ATOM    154  H13 BMT d   1      16.043  53.796 -16.144  0.00  0.00     0.039 H 
BRANCH 152 155
ATOM    155  CE  BMT d   1      15.717  52.166 -14.784  0.00  0.00    -0.106 C 
ATOM    156  CZ  BMT d   1      14.662  51.831 -13.889  0.00  0.00    -0.110 C 
ATOM    157  H15 BMT d   1      13.636  52.089 -14.147  0.00  0.00     0.075 H 
ATOM    158  H14 BMT d   1      16.743  51.909 -14.527  0.00  0.00     0.076 H 
BRANCH 156 159
ATOM    159  CH  BMT d   1      14.950  51.115 -12.574  0.00  0.00    -0.060 C 
ATOM    160  H16 BMT d   1      14.007  50.949 -12.033  0.00  0.00     0.032 H 
ATOM    161  H17 BMT d   1      15.622  51.733 -11.960  0.00  0.00     0.032 H 
ATOM    162  H18 BMT d   1      15.429  50.147 -12.781  0.00  0.00     0.032 H 
ENDBRANCH 156 159
ENDBRANCH 152 155
ENDBRANCH 146 152
ENDBRANCH 142 146
ENDBRANCH 131 142
ENDBRANCH 128 131
ENDBRANCH 125 127
BRANCH 125 163
ATOM    163  CB  ABA d   1      14.652  45.485 -17.634  0.00  0.00    -0.041 C 
ATOM    164  H21 ABA d   1      14.101  44.535 -17.577  0.00  0.00     0.036 H 
ATOM    165  H22 ABA d   1      15.177  45.662 -16.684  0.00  0.00     0.036 H 
BRANCH 163 166
ATOM    166  CG  ABA d   1      15.716  45.351 -18.746  0.00  0.00    -0.074 C 
ATOM    167  H23 ABA d   1      16.392  44.517 -18.508  0.00  0.00     0.027 H 
ATOM    168  H24 ABA d   1      16.294  46.284 -18.814  0.00  0.00     0.027 H 
ATOM    169  H25 ABA d   1      15.219  45.157 -19.708  0.00  0.00     0.027 H 
ENDBRANCH 163 166
ENDBRANCH 125 163
ENDBRANCH 123 125
BRANCH 122 170
ATOM    170  CN  SAR d   1      10.719  47.602 -18.146  0.00  0.00    -0.015 C 
ATOM    171  H28 SAR d   1      11.470  47.567 -18.948  0.00  0.00     0.056 H 
ATOM    172  H29 SAR d   1      10.326  48.626 -18.056  0.00  0.00     0.056 H 
ATOM    173  H30 SAR d   1       9.896  46.913 -18.384  0.00  0.00     0.056 H 
ENDBRANCH 122 170
ENDBRANCH 119 122
ENDBRANCH 117 119
BRANCH 116 174
ATOM    174  CN  MLE d   1      12.199  49.377 -14.560  0.00  0.00    -0.015 C 
ATOM    175  H31 MLE d   1      12.456  48.321 -14.730  0.00  0.00     0.056 H 
ATOM    176  H32 MLE d   1      12.379  49.633 -13.505  0.00  0.00     0.056 H 
ATOM    177  H33 MLE d   1      12.823  50.015 -15.204  0.00  0.00     0.056 H 
ENDBRANCH 116 174
ENDBRANCH 114 116
BRANCH 114 178
ATOM    178  CB  MLE d   1      10.556  51.324 -13.288  0.00  0.00    -0.035 C 
ATOM    179  H35 MLE d   1      11.653  51.303 -13.206  0.00  0.00     0.037 H 
ATOM    180  H36 MLE d   1      10.124  50.557 -12.628  0.00  0.00     0.037 H 
BRANCH 178 181
ATOM    181  CG  MLE d   1      10.085  52.683 -12.781  0.00  0.00    -0.059 C 
ATOM    182  H37 MLE d   1      10.767  53.465 -13.146  0.00  0.00     0.038 H 
BRANCH 181 183
ATOM    183  CD1 MLE d   1       8.682  52.963 -13.304  0.00  0.00    -0.073 C 
ATOM    184  H38 MLE d   1       8.343  53.943 -12.938  0.00  0.00     0.028 H 
ATOM    185  H39 MLE d   1       7.995  52.181 -12.948  0.00  0.00     0.028 H 
ATOM    186  H40 MLE d   1       8.695  52.967 -14.404  0.00  0.00     0.028 H 
ENDBRANCH 181 183
BRANCH 181 187
ATOM    187  CD2 MLE d   1      10.097  52.681 -11.264  0.00  0.00    -0.073 C 
ATOM    188  H41 MLE d   1      11.117  52.477 -10.906  0.00  0.00     0.028 H 
ATOM    189  H42 MLE d   1       9.416  51.901 -10.893  0.00  0.00     0.028 H 
ATOM    190  H43 MLE d   1       9.767  53.663 -10.893  0.00  0.00     0.028 H 
ENDBRANCH 181 187
ENDBRANCH 178 181
ENDBRANCH 114 178
ENDBRANCH 111 114
ENDBRANCH 108 110
BRANCH 108 191
ATOM    191  CB  VAL d   1       9.803  52.366 -19.341  0.00  0.00    -0.033 C 
ATOM    192  H46 VAL d   1       8.730  52.585 -19.238  0.00  0.00     0.042 H 
BRANCH 191 193
ATOM    193  CG1 VAL d   1      10.351  53.167 -20.513  0.00  0.00    -0.071 C 
ATOM    194  H47 VAL d   1       9.834  52.867 -21.436  0.00  0.00     0.028 H 
ATOM    195  H48 VAL d   1      11.429  52.974 -20.617  0.00  0.00     0.028 H 
ATOM    196  H49 VAL d   1      10.186  54.240 -20.333  0.00  0.00     0.028 H 
ENDBRANCH 191 193
BRANCH 191 197
ATOM    197  CG2 VAL d   1       9.971  50.878 -19.584  0.00  0.00    -0.071 C 
ATOM    198  H50 VAL d   1       9.569  50.319 -18.726  0.00  0.00     0.028 H 
ATOM    199  H51 VAL d   1      11.039  50.645 -19.706  0.00  0.00     0.028 H 
ATOM    200  H52 VAL d   1       9.427  50.592 -20.496  0.00  0.00     0.028 H 
ENDBRANCH 191 197
ENDBRANCH 108 191
ENDBRANCH   2 108
TORSDOF 64
