REMARK WARNING: 32 MAX_TORS EXCEEDED!!!
REMARK  63 active torsions:
REMARK  status: ('A' for Active; 'I' for Inactive)
REMARK    1  A    between atoms: N_1  and  CN_2 
REMARK    2  A    between atoms: N_1  and  CA_3 
REMARK    3  A    between atoms: N_1  and  O_84 
REMARK    4  A    between atoms: CA_3  and  C_4 
REMARK    5  A    between atoms: CA_3  and  CB_6 
REMARK       I    between atoms: C_4  and  N_14 
REMARK    6  A    between atoms: CB_6  and  OG1_7 
REMARK    7  A    between atoms: CB_6  and  CG2_8 
REMARK    8  A    between atoms: CG2_8  and  CD1_9 
REMARK    9  A    between atoms: CG2_8  and  CD2_10 
REMARK   10  A    between atoms: CD2_10  and  CE_11 
REMARK   11  A    between atoms: CZ_12  and  CH_13 
REMARK   12  A    between atoms: N_14  and  CA_15 
REMARK   13  A    between atoms: CA_15  and  C_16 
REMARK   14  A    between atoms: CA_15  and  CB_18 
REMARK       I    between atoms: C_16  and  N_20 
REMARK   15  A    between atoms: CB_18  and  CG_19 
REMARK   16  A    between atoms: N_20  and  CA_21 
REMARK   17  A    between atoms: N_20  and  CN_24 
REMARK   18  A    between atoms: CA_21  and  C_22 
REMARK       I    between atoms: C_22  and  N_25 
REMARK   19  A    between atoms: N_25  and  CN_26 
REMARK   20  A    between atoms: N_25  and  CA_27 
REMARK   21  A    between atoms: CA_27  and  CB_28 
REMARK   22  A    between atoms: CA_27  and  C_32 
REMARK   23  A    between atoms: CB_28  and  CG_29 
REMARK   24  A    between atoms: CG_29  and  CD1_30 
REMARK   25  A    between atoms: CG_29  and  CD2_31 
REMARK       I    between atoms: C_32  and  N_34 
REMARK   26  A    between atoms: N_34  and  CA_35 
REMARK   27  A    between atoms: CA_35  and  C_36 
REMARK   28  A    between atoms: CA_35  and  CB_38 
REMARK       I    between atoms: C_36  and  N_41 
REMARK   29  A    between atoms: CB_38  and  CG1_39 
REMARK   30  A    between atoms: CB_38  and  CG2_40 
REMARK   31  A    between atoms: N_41  and  CN_42 
REMARK   32  A    between atoms: N_41  and  CA_43 
REMARK   33  A    between atoms: CA_43  and  CB_44 
REMARK   34  A    between atoms: CA_43  and  C_48 
REMARK   35  A    between atoms: CB_44  and  CG_45 
REMARK   36  A    between atoms: CG_45  and  CD1_46 
REMARK   37  A    between atoms: CG_45  and  CD2_47 
REMARK       I    between atoms: C_48  and  N_50 
REMARK   38  A    between atoms: N_50  and  CA_51 
REMARK   39  A    between atoms: CA_51  and  C_52 
REMARK   40  A    between atoms: CA_51  and  CB_54 
REMARK       I    between atoms: C_52  and  N_55 
REMARK   41  A    between atoms: N_55  and  CA_56 
REMARK   42  A    between atoms: CA_56  and  CB_57 
REMARK   43  A    between atoms: CA_56  and  C_58 
REMARK       I    between atoms: C_58  and  N_60 
REMARK   44  A    between atoms: N_60  and  CN_61 
REMARK   45  A    between atoms: N_60  and  CA_62 
REMARK   46  A    between atoms: CA_62  and  CB_63 
REMARK   47  A    between atoms: CA_62  and  C_67 
REMARK   48  A    between atoms: CB_63  and  CG_64 
REMARK   49  A    between atoms: CG_64  and  CD1_65 
REMARK   50  A    between atoms: CG_64  and  CD2_66 
REMARK       I    between atoms: C_67  and  N_69 
REMARK   51  A    between atoms: N_69  and  CN_70 
REMARK   52  A    between atoms: N_69  and  CA_71 
REMARK   53  A    between atoms: CA_71  and  CB_72 
REMARK   54  A    between atoms: CA_71  and  C_76 
REMARK   55  A    between atoms: CB_72  and  CG_73 
REMARK   56  A    between atoms: CG_73  and  CD1_74 
REMARK   57  A    between atoms: CG_73  and  CD2_75 
REMARK   58  A    between atoms: C_76  and  CN_78 
REMARK   59  A    between atoms: CN_78  and  CB_80 
REMARK   60  A    between atoms: CB_80  and  CG1_81 
REMARK   61  A    between atoms: CG1_81  and  CG2_82 
REMARK   62  A    between atoms: CG1_81  and  C_83 
REMARK   63  A    between atoms: O_84  and  OXT_85 
ROOT
ATOM      1  N   MLE d   1      34.892  44.513  16.912  0.00  0.00    -0.341 N 
ATOM      2  C   VAL d   1      34.692  43.280  17.419  0.00  0.00     0.243 C 
ATOM      3  O   VAL d   1      35.618  42.598  17.857  0.00  0.00    -0.271 OA
ENDROOT
BRANCH   1   4
ATOM      4  CN  MLE d   1      33.797  45.536  16.724  0.00  0.00    -0.015 C 
ATOM      5  H53 MLE d   1      32.819  45.032  16.733  0.00  0.00     0.056 H 
ATOM      6  H54 MLE d   1      33.936  46.049  15.761  0.00  0.00     0.056 H 
ATOM      7  H55 MLE d   1      33.838  46.272  17.541  0.00  0.00     0.056 H 
ENDBRANCH   1   4
BRANCH   1   8
ATOM      8  CA  MLE d   1      36.302  44.930  16.937  0.00  0.00     0.091 C 
ATOM      9  H56 MLE d   1      36.940  44.039  17.029  0.00  0.00     0.087 H 
BRANCH   8  10
ATOM     10  CB  MLE d   1      36.522  45.579  15.569  0.00  0.00    -0.035 C 
ATOM     11  H57 MLE d   1      37.579  45.877  15.508  0.00  0.00     0.037 H 
ATOM     12  H58 MLE d   1      35.886  46.475  15.520  0.00  0.00     0.037 H 
BRANCH  10  13
ATOM     13  CG  MLE d   1      36.211  44.722  14.339  0.00  0.00    -0.059 C 
ATOM     14  H59 MLE d   1      35.135  44.496  14.323  0.00  0.00     0.038 H 
BRANCH  13  15
ATOM     15  CD1 MLE d   1      36.576  45.494  13.080  0.00  0.00    -0.073 C 
ATOM     16  H60 MLE d   1      36.353  44.879  12.195  0.00  0.00     0.028 H 
ATOM     17  H61 MLE d   1      37.649  45.737  13.097  0.00  0.00     0.028 H 
ATOM     18  H62 MLE d   1      35.990  46.424  13.037  0.00  0.00     0.028 H 
ENDBRANCH  13  15
BRANCH  13  19
ATOM     19  CD2 MLE d   1      36.986  43.418  14.389  0.00  0.00    -0.073 C 
ATOM     20  H63 MLE d   1      36.717  42.866  15.302  0.00  0.00     0.028 H 
ATOM     21  H64 MLE d   1      38.065  43.633  14.395  0.00  0.00     0.028 H 
ATOM     22  H65 MLE d   1      36.738  42.810  13.506  0.00  0.00     0.028 H 
ENDBRANCH  13  19
ENDBRANCH  10  13
ENDBRANCH   8  10
BRANCH   8  23
ATOM     23  C   MLE d   1      36.656  45.871  18.088  0.00  0.00     0.241 C 
ATOM     24  O   MLE d   1      35.883  46.037  19.035  0.00  0.00    -0.271 OA
ATOM     25  N   ALA d   1      37.831  46.485  17.995  0.00  0.00    -0.346 N 
ATOM     26  H66 ALA d   1      38.402  46.319  17.191  0.00  0.00     0.163 HD
BRANCH  25  27
ATOM     27  CA  ALA d   1      38.314  47.393  19.029  0.00  0.00     0.086 C 
ATOM     28  H67 ALA d   1      38.080  46.944  20.006  0.00  0.00     0.086 H 
BRANCH  27  29
ATOM     29  C   ALA d   1      37.648  48.763  18.975  0.00  0.00     0.240 C 
ATOM     30  O   ALA d   1      37.125  49.174  17.940  0.00  0.00    -0.271 OA
ATOM     31  N   DAL d   1      37.677  49.473  20.110  0.00  0.00    -0.346 N 
ATOM     32  H71 DAL d   1      38.023  49.055  20.950  0.00  0.00     0.163 HD
BRANCH  31  33
ATOM     33  CA  DAL d   1      37.207  50.851  20.127  0.00  0.00     0.086 C 
ATOM     34  H72 DAL d   1      37.390  51.307  19.143  0.00  0.00     0.086 H 
BRANCH  33  35
ATOM     35  CB  DAL d   1      37.966  51.645  21.193  0.00  0.00    -0.049 C 
ATOM     36  H73 DAL d   1      37.607  52.685  21.201  0.00  0.00     0.030 H 
ATOM     37  H74 DAL d   1      39.042  51.631  20.964  0.00  0.00     0.030 H 
ATOM     38  H75 DAL d   1      37.795  51.190  22.180  0.00  0.00     0.030 H 
ENDBRANCH  33  35
BRANCH  33  39
ATOM     39  C   DAL d   1      35.714  50.876  20.415  0.00  0.00     0.242 C 
ATOM     40  O   DAL d   1      35.260  50.071  21.234  0.00  0.00    -0.271 OA
ATOM     41  N   MLE d   1      34.883  51.773  19.777  0.00  0.00    -0.341 N 
BRANCH  41  42
ATOM     42  CN  MLE d   1      35.291  52.603  18.583  0.00  0.00    -0.015 C 
ATOM     43  H76 MLE d   1      36.384  52.560  18.463  0.00  0.00     0.056 H 
ATOM     44  H77 MLE d   1      34.980  53.647  18.738  0.00  0.00     0.056 H 
ATOM     45  H78 MLE d   1      34.807  52.207  17.678  0.00  0.00     0.056 H 
ENDBRANCH  41  42
BRANCH  41  46
ATOM     46  CA  MLE d   1      33.453  51.693  20.119  0.00  0.00     0.091 C 
ATOM     47  H79 MLE d   1      33.278  50.888  20.848  0.00  0.00     0.087 H 
BRANCH  46  48
ATOM     48  CB  MLE d   1      33.144  53.056  20.749  0.00  0.00    -0.035 C 
ATOM     49  H80 MLE d   1      32.050  53.139  20.828  0.00  0.00     0.037 H 
ATOM     50  H81 MLE d   1      33.522  53.827  20.061  0.00  0.00     0.037 H 
BRANCH  48  51
ATOM     51  CG  MLE d   1      33.723  53.358  22.132  0.00  0.00    -0.059 C 
ATOM     52  H82 MLE d   1      34.819  53.276  22.089  0.00  0.00     0.038 H 
BRANCH  51  53
ATOM     53  CD1 MLE d   1      33.344  54.774  22.536  0.00  0.00    -0.073 C 
ATOM     54  H83 MLE d   1      33.759  54.995  23.530  0.00  0.00     0.028 H 
ATOM     55  H84 MLE d   1      32.248  54.866  22.567  0.00  0.00     0.028 H 
ATOM     56  H85 MLE d   1      33.751  55.486  21.803  0.00  0.00     0.028 H 
ENDBRANCH  51  53
BRANCH  51  57
ATOM     57  CD2 MLE d   1      33.194  52.365  23.152  0.00  0.00    -0.073 C 
ATOM     58  H86 MLE d   1      33.474  51.345  22.850  0.00  0.00     0.028 H 
ATOM     59  H87 MLE d   1      32.098  52.444  23.206  0.00  0.00     0.028 H 
ATOM     60  H88 MLE d   1      33.627  52.587  24.139  0.00  0.00     0.028 H 
ENDBRANCH  51  57
ENDBRANCH  48  51
ENDBRANCH  46  48
BRANCH  46  61
ATOM     61  C   MLE d   1      32.599  51.429  18.876  0.00  0.00     0.243 C 
ATOM     62  O   MLE d   1      32.034  52.354  18.296  0.00  0.00    -0.271 OA
ATOM     63  N   MLE d   1      32.489  50.156  18.454  0.00  0.00    -0.343 N 
BRANCH  63  64
ATOM     64  CN  MLE d   1      33.129  48.956  19.125  0.00  0.00    -0.015 C 
ATOM     65  H89 MLE d   1      33.706  49.290  20.000  0.00  0.00     0.056 H 
ATOM     66  H90 MLE d   1      33.800  48.453  18.414  0.00  0.00     0.056 H 
ATOM     67  H91 MLE d   1      32.345  48.255  19.448  0.00  0.00     0.056 H 
ENDBRANCH  63  64
BRANCH  63  68
ATOM     68  CA  MLE d   1      31.660  49.983  17.255  0.00  0.00     0.076 C 
ATOM     69  H92 MLE d   1      31.362  50.960  16.848  0.00  0.00     0.085 H 
BRANCH  68  70
ATOM     70  CB  MLE d   1      32.583  49.249  16.267  0.00  0.00    -0.036 C 
ATOM     71  H93 MLE d   1      31.971  48.968  15.397  0.00  0.00     0.037 H 
ATOM     72  H94 MLE d   1      32.942  48.340  16.771  0.00  0.00     0.037 H 
BRANCH  70  73
ATOM     73  CG  MLE d   1      33.809  49.985  15.737  0.00  0.00    -0.059 C 
ATOM     74  H95 MLE d   1      34.497  50.183  16.572  0.00  0.00     0.038 H 
BRANCH  73  75
ATOM     75  CD1 MLE d   1      34.507  49.098  14.715  0.00  0.00    -0.073 C 
ATOM     76  H96 MLE d   1      35.394  49.617  14.324  0.00  0.00     0.028 H 
ATOM     77  H97 MLE d   1      33.816  48.879  13.887  0.00  0.00     0.028 H 
ATOM     78  H98 MLE d   1      34.815  48.157  15.195  0.00  0.00     0.028 H 
ENDBRANCH  73  75
BRANCH  73  79
ATOM     79  CD2 MLE d   1      33.413  51.317  15.104  0.00  0.00    -0.073 C 
ATOM     80  H99 MLE d   1      32.911  51.945  15.855  0.00  0.00     0.028 H 
ATOM     81 0H10 MLE d   1      32.729  51.134  14.262  0.00  0.00     0.028 H 
ATOM     82 1H10 MLE d   1      34.314  51.832  14.739  0.00  0.00     0.028 H 
ENDBRANCH  73  79
ENDBRANCH  70  73
ENDBRANCH  68  70
BRANCH  68  83
ATOM     83  C   MLE d   1      30.400  49.166  17.566  0.00  0.00     0.177 C 
ATOM     84  O   MLE d   1      30.262  48.652  18.678  0.00  0.00    -0.290 OA
BRANCH  83  85
ATOM     85  CN  MVA d   1      29.456  49.071  16.627  0.00  0.00    -0.019 C 
ATOM     86  CA  MVA d   1      29.512  49.753  15.450  0.00  0.00    -0.112 C 
ATOM     87 2H10 MVA d   1      28.715  49.640  14.717  0.00  0.00     0.067 H 
ATOM     88 3H10 MVA d   1      30.354  50.411  15.242  0.00  0.00     0.067 H 
BRANCH  85  89
ATOM     89  CB  MVA d   1      28.308  48.223  16.939  0.00  0.00    -0.036 C 
ATOM     90 4H10 MVA d   1      28.473  47.750  17.918  0.00  0.00     0.040 H 
ATOM     91 5H10 MVA d   1      28.222  47.446  16.166  0.00  0.00     0.040 H 
BRANCH  89  92
ATOM     92  CG1 MVA d   1      26.985  49.023  16.990  0.00  0.00    -0.057 C 
ATOM     93 6H10 MVA d   1      26.777  49.427  15.988  0.00  0.00     0.039 H 
BRANCH  92  94
ATOM     94  CG2 MVA d   1      25.838  48.107  17.394  0.00  0.00    -0.073 C 
ATOM     95 7H10 MVA d   1      24.902  48.684  17.427  0.00  0.00     0.028 H 
ATOM     96 8H10 MVA d   1      26.042  47.681  18.387  0.00  0.00     0.028 H 
ATOM     97 9H10 MVA d   1      25.741  47.294  16.659  0.00  0.00     0.028 H 
ENDBRANCH  92  94
BRANCH  92  98
ATOM     98  C   MVA d   1      27.113  50.178  17.961  0.00  0.00    -0.073 C 
ATOM     99 0H11 MVA d   1      27.946  50.827  17.652  0.00  0.00     0.028 H 
ATOM    100 1H11 MVA d   1      27.308  49.788  18.971  0.00  0.00     0.028 H 
ATOM    101 2H11 MVA d   1      26.179  50.758  17.966  0.00  0.00     0.028 H 
ENDBRANCH  92  98
ENDBRANCH  89  92
ENDBRANCH  85  89
ENDBRANCH  83  85
ENDBRANCH  68  83
ENDBRANCH  63  68
ENDBRANCH  46  61
ENDBRANCH  41  46
ENDBRANCH  33  39
ENDBRANCH  31  33
ENDBRANCH  27  29
BRANCH  27 102
ATOM    102  CB  ALA d   1      39.833  47.547  18.920  0.00  0.00    -0.049 C 
ATOM    103  H68 ALA d   1      40.189  48.233  19.703  0.00  0.00     0.030 H 
ATOM    104  H69 ALA d   1      40.090  47.954  17.931  0.00  0.00     0.030 H 
ATOM    105  H70 ALA d   1      40.311  46.565  19.048  0.00  0.00     0.030 H 
ENDBRANCH  27 102
ENDBRANCH  25  27
ENDBRANCH   8  23
ENDBRANCH   1   8
BRANCH   2 106
ATOM    106  CA  VAL d   1      33.261  42.742  17.442  0.00  0.00     0.092 C 
ATOM    107  H45 VAL d   1      32.580  43.503  17.034  0.00  0.00     0.088 H 
BRANCH 106 108
ATOM    108  N   VAL d   1      33.170  41.540  16.620  0.00  0.00    -0.346 N 
ATOM    109  C   MLE d   1      33.291  41.578  15.299  0.00  0.00     0.241 C 
ATOM    110  O   MLE d   1      33.466  42.619  14.671  0.00  0.00    -0.271 OA
ATOM    111  H44 VAL d   1      33.011  40.659  17.066  0.00  0.00     0.163 HD
BRANCH 109 112
ATOM    112  CA  MLE d   1      33.179  40.237  14.581  0.00  0.00     0.091 C 
ATOM    113  H34 MLE d   1      33.502  39.440  15.266  0.00  0.00     0.087 H 
BRANCH 112 114
ATOM    114  N   MLE d   1      31.797  40.003  14.137  0.00  0.00    -0.342 N 
ATOM    115  C   SAR d   1      31.065  39.043  14.789  0.00  0.00     0.238 C 
ATOM    116  O   SAR d   1      31.597  38.307  15.632  0.00  0.00    -0.272 OA
BRANCH 115 117
ATOM    117  CA  SAR d   1      29.565  38.820  14.551  0.00  0.00     0.071 C 
ATOM    118  H26 SAR d   1      29.407  38.597  13.486  0.00  0.00     0.079 H 
ATOM    119  H27 SAR d   1      29.235  37.964  15.158  0.00  0.00     0.079 H 
BRANCH 117 120
ATOM    120  N   SAR d   1      28.746  40.007  14.916  0.00  0.00    -0.346 N 
ATOM    121  C   ABA d   1      27.967  40.612  13.984  0.00  0.00     0.242 C 
ATOM    122  O   ABA d   1      27.971  40.160  12.827  0.00  0.00    -0.271 OA
BRANCH 121 123
ATOM    123  CA  ABA d   1      27.101  41.838  14.303  0.00  0.00     0.089 C 
ATOM    124  H20 ABA d   1      26.758  41.750  15.345  0.00  0.00     0.087 H 
BRANCH 123 125
ATOM    125  N   ABA d   1      27.874  43.068  14.155  0.00  0.00    -0.346 N 
ATOM    126  C   BMT d   1      28.123  43.897  15.181  0.00  0.00     0.255 C 
ATOM    127  O   BMT d   1      27.691  43.670  16.337  0.00  0.00    -0.271 OA
ATOM    128  H19 ABA d   1      28.233  43.303  13.252  0.00  0.00     0.163 HD
BRANCH 126 129
ATOM    129  CA  BMT d   1      28.897  45.154  14.802  0.00  0.00     0.234 C 
ATOM    130  H5  BMT d   1      28.287  45.677  14.050  0.00  0.00     0.108 H 
BRANCH 129 131
ATOM    131  N   BMT d   1      29.082  46.110  15.914  0.00  0.00     0.080 N 
ATOM    132  H1  BMT d   1      29.828  46.584  15.430  0.00  0.00     0.321 HD
BRANCH 131 133
ATOM    133  CN  BMT d   1      30.017  45.848  17.078  0.00  0.00     0.096 C 
ATOM    134  H2  BMT d   1      29.984  46.700  17.774  0.00  0.00     0.072 H 
ATOM    135  H3  BMT d   1      31.043  45.721  16.703  0.00  0.00     0.072 H 
ATOM    136  H4  BMT d   1      29.702  44.934  17.602  0.00  0.00     0.072 H 
ENDBRANCH 131 133
BRANCH 131 137
ATOM    137  O   MVA d   1      28.265  47.203  15.807  0.00  0.00    -0.033 OA
BRANCH 137 138
ATOM    138  OXT MVA d   1      27.502  47.376  14.855  0.00  0.00    -0.222 OA
ATOM    139 3H11 MVA d   1      27.028  48.191  14.974  0.00  0.00     0.256 HD
ENDBRANCH 137 138
ENDBRANCH 131 137
ENDBRANCH 129 131
BRANCH 129 140
ATOM    140  CB  BMT d   1      30.283  44.778  14.089  0.00  0.00     0.078 C 
ATOM    141  H6  BMT d   1      30.034  44.209  13.181  0.00  0.00     0.087 H 
BRANCH 140 142
ATOM    142  OG1 BMT d   1      31.085  43.926  14.955  0.00  0.00    -0.392 OA
ATOM    143  H7  BMT d   1      31.902  43.712  14.519  0.00  0.00     0.210 HD
ENDBRANCH 140 142
BRANCH 140 144
ATOM    144  CG2 BMT d   1      31.158  46.015  13.645  0.00  0.00    -0.027 C 
ATOM    145  H8  BMT d   1      31.398  46.559  14.571  0.00  0.00     0.043 H 
BRANCH 144 146
ATOM    146  CD1 BMT d   1      30.373  46.991  12.718  0.00  0.00    -0.070 C 
ATOM    147  H9  BMT d   1      31.023  47.833  12.437  0.00  0.00     0.028 H 
ATOM    148  H10 BMT d   1      29.489  47.372  13.251  0.00  0.00     0.028 H 
ATOM    149  H11 BMT d   1      30.052  46.457  11.811  0.00  0.00     0.028 H 
ENDBRANCH 144 146
BRANCH 144 150
ATOM    150  CD2 BMT d   1      32.506  45.698  12.954  0.00  0.00    -0.045 C 
ATOM    151  H12 BMT d   1      33.101  45.084  13.646  0.00  0.00     0.039 H 
ATOM    152  H13 BMT d   1      33.023  46.652  12.774  0.00  0.00     0.039 H 
BRANCH 150 153
ATOM    153  CE  BMT d   1      32.426  44.945  11.608  0.00  0.00    -0.106 C 
ATOM    154  CZ  BMT d   1      33.149  43.733  11.420  0.00  0.00    -0.110 C 
ATOM    155  H15 BMT d   1      33.767  43.339  12.226  0.00  0.00     0.075 H 
ATOM    156  H14 BMT d   1      31.814  45.343  10.800  0.00  0.00     0.076 H 
BRANCH 154 157
ATOM    157  CH  BMT d   1      33.062  42.985  10.096  0.00  0.00    -0.060 C 
ATOM    158  H16 BMT d   1      33.685  42.080  10.145  0.00  0.00     0.032 H 
ATOM    159  H17 BMT d   1      33.421  43.634   9.284  0.00  0.00     0.032 H 
ATOM    160  H18 BMT d   1      32.017  42.701   9.903  0.00  0.00     0.032 H 
ENDBRANCH 154 157
ENDBRANCH 150 153
ENDBRANCH 144 150
ENDBRANCH 140 144
ENDBRANCH 129 140
ENDBRANCH 126 129
ENDBRANCH 123 125
BRANCH 123 161
ATOM    161  CB  ABA d   1      25.863  41.961  13.383  0.00  0.00    -0.041 C 
ATOM    162  H21 ABA d   1      25.263  41.047  13.503  0.00  0.00     0.036 H 
ATOM    163  H22 ABA d   1      26.221  42.031  12.345  0.00  0.00     0.036 H 
BRANCH 161 164
ATOM    164  CG  ABA d   1      24.934  43.176  13.647  0.00  0.00    -0.074 C 
ATOM    165  H23 ABA d   1      24.095  43.157  12.936  0.00  0.00     0.027 H 
ATOM    166  H24 ABA d   1      25.503  44.108  13.517  0.00  0.00     0.027 H 
ATOM    167  H25 ABA d   1      24.545  43.124  14.675  0.00  0.00     0.027 H 
ENDBRANCH 161 164
ENDBRANCH 123 161
ENDBRANCH 121 123
BRANCH 120 168
ATOM    168  CN  SAR d   1      28.900  40.428  16.364  0.00  0.00    -0.015 C 
ATOM    169  H28 SAR d   1      28.268  41.307  16.559  0.00  0.00     0.056 H 
ATOM    170  H29 SAR d   1      29.952  40.681  16.562  0.00  0.00     0.056 H 
ATOM    171  H30 SAR d   1      28.591  39.602  17.021  0.00  0.00     0.056 H 
ENDBRANCH 120 168
ENDBRANCH 117 120
ENDBRANCH 115 117
BRANCH 114 172
ATOM    172  CN  MLE d   1      31.254  40.845  13.008  0.00  0.00    -0.015 C 
ATOM    173  H31 MLE d   1      30.216  40.550  12.797  0.00  0.00     0.056 H 
ATOM    174  H32 MLE d   1      31.869  40.693  12.109  0.00  0.00     0.056 H 
ATOM    175  H33 MLE d   1      31.282  41.906  13.296  0.00  0.00     0.056 H 
ENDBRANCH 114 172
ENDBRANCH 112 114
BRANCH 112 176
ATOM    176  CB  MLE d   1      34.011  40.189  13.286  0.00  0.00    -0.035 C 
ATOM    177  H35 MLE d   1      35.058  40.389  13.556  0.00  0.00     0.037 H 
ATOM    178  H36 MLE d   1      33.644  40.988  12.625  0.00  0.00     0.037 H 
BRANCH 176 179
ATOM    179  CG  MLE d   1      33.980  38.878  12.491  0.00  0.00    -0.059 C 
ATOM    180  H37 MLE d   1      32.946  38.686  12.167  0.00  0.00     0.038 H 
BRANCH 179 181
ATOM    181  CD1 MLE d   1      34.871  39.008  11.252  0.00  0.00    -0.073 C 
ATOM    182  H38 MLE d   1      34.847  38.067  10.683  0.00  0.00     0.028 H 
ATOM    183  H39 MLE d   1      35.904  39.222  11.564  0.00  0.00     0.028 H 
ATOM    184  H40 MLE d   1      34.502  39.828  10.619  0.00  0.00     0.028 H 
ENDBRANCH 179 181
BRANCH 179 185
ATOM    185  CD2 MLE d   1      34.444  37.711  13.347  0.00  0.00    -0.073 C 
ATOM    186  H41 MLE d   1      33.798  37.627  14.233  0.00  0.00     0.028 H 
ATOM    187  H42 MLE d   1      35.483  37.880  13.666  0.00  0.00     0.028 H 
ATOM    188  H43 MLE d   1      34.387  36.781  12.762  0.00  0.00     0.028 H 
ENDBRANCH 179 185
ENDBRANCH 176 179
ENDBRANCH 112 176
ENDBRANCH 109 112
ENDBRANCH 106 108
BRANCH 106 189
ATOM    189  CB  VAL d   1      32.867  42.445  18.910  0.00  0.00    -0.033 C 
ATOM    190  H46 VAL d   1      33.522  41.652  19.301  0.00  0.00     0.042 H 
BRANCH 189 191
ATOM    191  CG1 VAL d   1      33.046  43.691  19.761  0.00  0.00    -0.071 C 
ATOM    192  H47 VAL d   1      32.764  43.469  20.801  0.00  0.00     0.028 H 
ATOM    193  H48 VAL d   1      32.406  44.496  19.371  0.00  0.00     0.028 H 
ATOM    194  H49 VAL d   1      34.098  44.010  19.727  0.00  0.00     0.028 H 
ENDBRANCH 189 191
BRANCH 189 195
ATOM    195  CG2 VAL d   1      31.422  41.964  18.971  0.00  0.00    -0.071 C 
ATOM    196  H50 VAL d   1      31.309  41.063  18.351  0.00  0.00     0.028 H 
ATOM    197  H51 VAL d   1      30.756  42.754  18.594  0.00  0.00     0.028 H 
ATOM    198  H52 VAL d   1      31.158  41.728  20.012  0.00  0.00     0.028 H 
ENDBRANCH 189 195
ENDBRANCH 106 189
ENDBRANCH   2 106
TORSDOF 63
