REMARK  2 active torsions:
REMARK  status: ('A' for Active; 'I' for Inactive)
REMARK    1  A    between atoms: C14_17  and  N2_15 
REMARK    2  A    between atoms: C15_18  and  C14_17 
ROOT
ATOM      1  C1  I40 d   1      31.880  63.629   9.868  0.00  0.00    -0.024 C 
ATOM      2  C2  I40 d   1      30.834  63.686   8.747  0.00  0.00    -0.060 C 
ATOM      3  C3  I40 d   1      30.255  64.941   8.570  0.00  0.00    -0.061 C 
ATOM      4  C4  I40 d   1      31.203  66.210   8.408  0.00  0.00    -0.037 C 
ATOM      5  C5  I40 d   1      33.625  67.038   9.253  0.00  0.00     0.049 A 
ATOM      6  C6  I40 d   1      35.945  67.716  10.138  0.00  0.00    -0.069 A 
ATOM      7  C7  I40 d   1      37.102  67.427  10.844  0.00  0.00    -0.082 A 
ATOM      8  C8  I40 d   1      37.214  66.145  11.445  0.00  0.00    -0.081 A 
ATOM      9  C9  I40 d   1      36.267  65.216  11.364  0.00  0.00    -0.054 A 
ATOM     10  N1  I40 d   1      34.040  64.516  10.546  0.00  0.00    -0.252 NA
ATOM     11  C10 I40 d   1      32.955  64.755   9.900  0.00  0.00     0.043 A 
ATOM     12  C11 I40 d   1      32.575  65.961   9.182  0.00  0.00    -0.006 A 
ATOM     13  C12 I40 d   1      34.884  66.841   9.973  0.00  0.00     0.020 A 
ATOM     14  C13 I40 d   1      35.037  65.468  10.635  0.00  0.00     0.069 A 
ATOM     15  N2  I40 d   1      33.187  68.109   8.603  0.00  0.00    -0.384 N 
ATOM     16  H1  I40 d   1      32.410  62.669   9.777  0.00  0.00     0.042 H 
ATOM     17  H2  I40 d   1      31.340  63.661  10.826  0.00  0.00     0.042 H 
ATOM     18  H3  I40 d   1      30.035  62.968   8.983  0.00  0.00     0.033 H 
ATOM     19  H4  I40 d   1      31.322  63.395   7.805  0.00  0.00     0.033 H 
ATOM     20  H5  I40 d   1      29.614  65.127   9.444  0.00  0.00     0.033 H 
ATOM     21  H6  I40 d   1      29.633  64.885   7.664  0.00  0.00     0.033 H 
ATOM     22  H7  I40 d   1      30.703  67.096   8.827  0.00  0.00     0.040 H 
ATOM     23  H8  I40 d   1      31.411  66.377   7.341  0.00  0.00     0.040 H 
ATOM     24  H9  I40 d   1      35.865  68.696   9.683  0.00  0.00     0.085 H 
ATOM     25  H10 I40 d   1      37.898  68.157  10.935  0.00  0.00     0.083 H 
ATOM     26  H11 I40 d   1      38.117  65.913  11.998  0.00  0.00     0.083 H 
ATOM     27  H12 I40 d   1      36.415  64.258  11.848  0.00  0.00     0.087 H 
ATOM     28  H13 I40 d   1      32.278  67.989   8.133  0.00  0.00     0.160 HD
ENDROOT
BRANCH  15  29
ATOM     29  C14 I40 d   1      33.798  69.454   8.445  0.00  0.00     0.017 C 
ATOM     30  H14 I40 d   1      33.617  69.860   7.439  0.00  0.00     0.071 H 
ATOM     31  H15 I40 d   1      34.880  69.428   8.640  0.00  0.00     0.071 H 
BRANCH  29  32
ATOM     32  C15 I40 d   1      33.045  70.277   9.533  0.00  0.00    -0.039 A 
ATOM     33  C16 I40 d   1      31.672  70.282   9.557  0.00  0.00    -0.059 A 
ATOM     34  C17 I40 d   1      31.036  70.977  10.510  0.00  0.00     0.007 A 
ATOM     35  H16 I40 d   1      31.109  69.730   8.813  0.00  0.00     0.086 H 
ATOM     36  I1  I40 d   1      28.999  71.038  10.601  0.00  0.00    -0.045 I 
ATOM     37  C18 I40 d   1      31.691  71.706  11.495  0.00  0.00    -0.067 A 
ATOM     38  C19 I40 d   1      33.033  71.723  11.506  0.00  0.00    -0.081 A 
ATOM     39  H17 I40 d   1      31.127  72.252  12.242  0.00  0.00     0.085 H 
ATOM     40  C20 I40 d   1      33.783  71.007  10.523  0.00  0.00    -0.075 A 
ATOM     41  H18 I40 d   1      33.555  72.287  12.271  0.00  0.00     0.083 H 
ATOM     42  H19 I40 d   1      34.867  71.015  10.525  0.00  0.00     0.084 H 
ENDBRANCH  29  32
ENDBRANCH  15  29
TORSDOF 2
