REMARK  2 active torsions:
REMARK  status: ('A' for Active; 'I' for Inactive)
REMARK       I    between atoms: C1_1  and  N1_2 
REMARK    1  A    between atoms: C1_1  and  C2_4 
REMARK    2  A    between atoms: C2_4  and  C3_6 
ROOT
ATOM      1  C2  PYM d   1      83.787  57.991  16.890  0.00  0.00     0.212 C 
ATOM      2  O2  PYM d   1      83.645  59.140  17.302  0.00  0.00    -0.288 OA
ENDROOT
BRANCH   1   3
ATOM      3  C1  PYM d   1      82.999  56.886  17.236  0.00  0.00     0.284 C 
ATOM      4  N1  PYM d   1      82.026  57.057  18.054  0.00  0.00    -0.364 N 
ATOM      5  H1  PYM d   1      81.846  57.964  18.434  0.00  0.00     0.159 HD
ATOM      6  H2  PYM d   1      81.448  56.283  18.312  0.00  0.00     0.159 HD
ATOM      7  O1  PYM d   1      83.236  55.719  16.744  0.00  0.00    -0.265 OA
ENDBRANCH   1   3
BRANCH   1   8
ATOM      8  C3  PYM d   1      84.847  58.111  16.079  0.00  0.00    -0.012 C 
ATOM      9  H3  PYM d   1      85.188  59.157  16.073  0.00  0.00     0.038 H 
ATOM     10  H4  PYM d   1      84.564  57.812  15.059  0.00  0.00     0.038 H 
ATOM     11  H5  PYM d   1      85.659  57.463  16.439  0.00  0.00     0.038 H 
ENDBRANCH   1   8
TORSDOF 2
