REMARK  6 active torsions:
REMARK  status: ('A' for Active; 'I' for Inactive)
REMARK    1  A    between atoms: C5_5  and  N25_20 
REMARK    2  A    between atoms: C8_7  and  C11_10 
REMARK    3  A    between atoms: N10_9  and  C22_16 
REMARK    4  A    between atoms: C22_16  and  C25_19 
REMARK    5  A    between atoms: C22_16  and  C24_18 
REMARK    6  A    between atoms: C22_16  and  C23_17 
ROOT
ATOM      1  C1  PP2 d   1      25.357  37.141  83.359  0.00  0.00     0.164 A 
ATOM      2  N2  PP2 d   1      26.341  36.657  82.556  0.00  0.00    -0.222 NA
ATOM      3  C3  PP2 d   1      25.999  35.653  81.781  0.00  0.00     0.091 A 
ATOM      4  N4  PP2 d   1      24.739  35.127  81.788  0.00  0.00    -0.224 NA
ATOM      5  C5  PP2 d   1      23.741  35.534  82.544  0.00  0.00     0.139 A 
ATOM      6  C6  PP2 d   1      24.041  36.638  83.421  0.00  0.00     0.088 A 
ATOM      7  C8  PP2 d   1      23.290  37.392  84.318  0.00  0.00     0.105 A 
ATOM      8  N9  PP2 d   1      24.096  38.365  84.799  0.00  0.00    -0.168 NA
ATOM      9  N10 PP2 d   1      25.355  38.213  84.240  0.00  0.00    -0.242 N 
ATOM     10  H1  PP2 d   1      26.741  35.228  81.115  0.00  0.00     0.146 H 
ENDROOT
BRANCH   9  11
ATOM     11  C22 PP2 d   1      26.507  39.139  84.603  0.00  0.00     0.047 C 
BRANCH  11  12
ATOM     12  C25 PP2 d   1      26.050  40.219  85.704  0.00  0.00    -0.052 C 
ATOM     13  H12 PP2 d   1      26.899  40.875  85.949  0.00  0.00     0.030 H 
ATOM     14  H13 PP2 d   1      25.716  39.697  86.613  0.00  0.00     0.030 H 
ATOM     15  H14 PP2 d   1      25.223  40.824  85.303  0.00  0.00     0.030 H 
ENDBRANCH  11  12
BRANCH  11  16
ATOM     16  C24 PP2 d   1      27.646  38.507  85.445  0.00  0.00    -0.052 C 
ATOM     17  H9  PP2 d   1      28.418  39.265  85.645  0.00  0.00     0.030 H 
ATOM     18  H10 PP2 d   1      28.091  37.669  84.889  0.00  0.00     0.030 H 
ATOM     19  H11 PP2 d   1      27.237  38.139  86.398  0.00  0.00     0.030 H 
ENDBRANCH  11  16
BRANCH  11  20
ATOM     20  C23 PP2 d   1      26.957  39.898  83.293  0.00  0.00    -0.052 C 
ATOM     21  H6  PP2 d   1      27.791  40.575  83.530  0.00  0.00     0.030 H 
ATOM     22  H7  PP2 d   1      26.112  40.481  82.898  0.00  0.00     0.030 H 
ATOM     23  H8  PP2 d   1      27.282  39.166  82.539  0.00  0.00     0.030 H 
ENDBRANCH  11  20
ENDBRANCH   9  11
BRANCH   7  24
ATOM     24  C11 PP2 d   1      21.941  37.183  84.855  0.00  0.00    -0.004 A 
ATOM     25  C16 PP2 d   1      21.048  38.286  84.901  0.00  0.00    -0.069 A 
ATOM     26  C15 PP2 d   1      19.775  38.081  85.595  0.00  0.00    -0.061 A 
ATOM     27  H5  PP2 d   1      21.297  39.236  84.443  0.00  0.00     0.085 H 
ATOM     28  C14 PP2 d   1      19.467  36.848  86.157  0.00  0.00     0.034 A 
ATOM     29  H4  PP2 d   1      19.067  38.898  85.671  0.00  0.00     0.086 H 
ATOM     30  C13 PP2 d   1      20.366  35.762  86.112  0.00  0.00    -0.061 A 
ATOM     31 CL   PP2 d   1      17.860  36.655  86.893  0.00  0.00    -0.084 Cl
ATOM     32  C12 PP2 d   1      21.589  35.951  85.452  0.00  0.00    -0.069 A 
ATOM     33  H3  PP2 d   1      20.120  34.812  86.573  0.00  0.00     0.086 H 
ATOM     34  H2  PP2 d   1      22.288  35.124  85.398  0.00  0.00     0.085 H 
ENDBRANCH   7  24
BRANCH   5  35
ATOM     35  N25 PP2 d   1      22.458  35.032  82.398  0.00  0.00    -0.383 N 
ATOM     36  H15 PP2 d   1      21.700  35.372  83.006  0.00  0.00     0.157 HD
ATOM     37  H16 PP2 d   1      22.263  34.319  81.681  0.00  0.00     0.157 HD
ENDBRANCH   5  35
TORSDOF 6
