REMARK  21 active torsions:
REMARK  status: ('A' for Active; 'I' for Inactive)
REMARK    1  A    between atoms: C10_87  and  O6_139 
REMARK    2  A    between atoms: C11_88  and  C35_112 
REMARK    3  A    between atoms: O7_140  and  C13_90 
REMARK    4  A    between atoms: C15_92  and  O8_141 
REMARK    5  A    between atoms: C17_94  and  C36_113 
REMARK    6  A    between atoms: C19_96  and  C37_114 
REMARK    7  A    between atoms: C21_98  and  C38_115 
REMARK    8  A    between atoms: C24_101  and  O10_143 
REMARK    9  A    between atoms: C25_102  and  C41_117 
REMARK   10  A    between atoms: C26_103  and  C27_104 
REMARK   11  A    between atoms: C27_104  and  C42_118 
REMARK   12  A    between atoms: C28_105  and  C29_106 
REMARK   13  A    between atoms: C31_108  and  O11_144 
REMARK   14  A    between atoms: C32_109  and  O12_145 
REMARK   15  A    between atoms: C38_115  and  C39_116 
REMARK   16  A    between atoms: O7_140  and  C43_119 
REMARK   17  A    between atoms: O8_141  and  C44_120 
REMARK   18  A    between atoms: O11_144  and  C45_121 
REMARK   19  A    between atoms: O12_145  and  C58_122 
REMARK   20  A    between atoms: N65_129  and  C67_131 
REMARK   21  A    between atoms: C67_131  and  C68_132 
ROOT
ATOM      1  H1  858 d   1      23.727  33.432 135.873  0.00  0.00     0.088 H 
ATOM      2  H2  858 d   1      22.814  35.668 135.965  0.00  0.00     0.036 H 
ATOM      3  H3  858 d   1      24.515  35.804 135.403  0.00  0.00     0.036 H 
ATOM      4  H4  858 d   1      23.883  37.557 137.048  0.00  0.00     0.033 H 
ATOM      5  H5  858 d   1      25.231  36.515 137.616  0.00  0.00     0.033 H 
ATOM      6  H6  858 d   1      22.284  36.267 138.389  0.00  0.00     0.035 H 
ATOM      7  H7  858 d   1      23.617  36.873 139.429  0.00  0.00     0.035 H 
ATOM      8  H8  858 d   1      23.039  34.480 139.885  0.00  0.00     0.064 H 
ATOM      9  H9  858 d   1      24.732  34.691 139.324  0.00  0.00     0.064 H 
ATOM     10  H10 858 d   1      23.956  31.077 139.165  0.00  0.00     0.048 H 
ATOM     11  H11 858 d   1      24.817  29.433 140.689  0.00  0.00     0.037 H 
ATOM     12  H12 858 d   1      23.317  29.474 141.677  0.00  0.00     0.037 H 
ATOM     13  H13 858 d   1      25.448  31.649 141.453  0.00  0.00     0.087 H 
ATOM     14  H14 858 d   1      22.837  31.553 143.051  0.00  0.00     0.091 H 
ATOM     15  H15 858 d   1      23.203  34.034 143.409  0.00  0.00     0.087 H 
ATOM     16  H16 858 d   1      24.865  34.360 141.653  0.00  0.00     0.037 H 
ATOM     17  H17 858 d   1      26.009  33.280 142.520  0.00  0.00     0.037 H 
ATOM     18  H18 858 d   1      26.422  35.770 142.584  0.00  0.00     0.040 H 
ATOM     19  H19 858 d   1      26.304  34.165 145.146  0.00  0.00     0.040 H 
ATOM     20  H20 858 d   1      26.920  35.852 145.091  0.00  0.00     0.040 H 
ATOM     21  H21 858 d   1      27.752  32.415 144.495  0.00  0.00     0.078 H 
ATOM     22  H22 858 d   1      30.520  33.256 143.511  0.00  0.00     0.058 H 
ATOM     23  H23 858 d   1      31.136  33.333 140.924  0.00  0.00     0.048 H 
ATOM     24  H24 858 d   1      29.627  34.239 141.282  0.00  0.00     0.048 H 
ATOM     25  H25 858 d   1      29.780  32.002 139.192  0.00  0.00     0.084 H 
ATOM     26  H26 858 d   1      27.512  32.670 140.149  0.00  0.00     0.047 H 
ATOM     27  H27 858 d   1      28.069  33.346 137.205  0.00  0.00     0.092 H 
ATOM     28  C1  858 d   1      25.607  33.866 136.835  0.00  0.00     0.282 C 
ATOM     29  C2  858 d   1      24.114  34.105 136.652  0.00  0.00     0.099 C 
ATOM     30  C3  858 d   1      23.868  35.560 136.259  0.00  0.00    -0.037 C 
ATOM     31  C4  858 d   1      24.158  36.544 137.376  0.00  0.00    -0.061 C 
ATOM     32  C5  858 d   1      23.358  36.183 138.612  0.00  0.00    -0.050 C 
ATOM     33  C6  858 d   1      23.674  34.765 139.033  0.00  0.00    -0.001 C 
ATOM     34  C8  858 d   1      22.459  32.949 137.987  0.00  0.00     0.296 C 
ATOM     35  C9  858 d   1      21.788  32.667 139.194  0.00  0.00     0.278 C 
ATOM     36  C10 858 d   1      22.273  31.787 140.386  0.00  0.00     0.238 C 
ATOM     37  C11 858 d   1      23.245  30.647 139.886  0.00  0.00     0.007 C 
ATOM     38  C12 858 d   1      24.014  30.077 141.077  0.00  0.00    -0.030 C 
ATOM     39  C13 858 d   1      24.646  31.124 141.993  0.00  0.00     0.066 C 
ATOM     40  C14 858 d   1      23.566  32.122 142.456  0.00  0.00     0.092 C 
ATOM     41  C15 858 d   1      24.031  33.316 143.313  0.00  0.00     0.066 C 
ATOM     42  C16 858 d   1      25.209  34.025 142.643  0.00  0.00    -0.035 C 
ATOM     43  C17 858 d   1      25.826  35.238 143.341  0.00  0.00    -0.052 C 
ATOM     44  C18 858 d   1      26.772  34.930 144.509  0.00  0.00    -0.042 C 
ATOM     45  C19 858 d   1      28.135  34.417 144.059  0.00  0.00    -0.086 C 
ATOM     46  C20 858 d   1      28.453  33.108 144.031  0.00  0.00    -0.090 C 
ATOM     47  C21 858 d   1      29.719  32.510 143.401  0.00  0.00     0.020 C 
ATOM     48  C22 858 d   1      29.611  32.183 141.914  0.00  0.00     0.137 C 
ATOM     49  C23 858 d   1      30.037  33.280 140.933  0.00  0.00     0.015 C 
ATOM     50  C24 858 d   1      29.548  33.033 139.497  0.00  0.00     0.048 C 
ATOM     51  C25 858 d   1      28.019  33.269 139.378  0.00  0.00    -0.003 C 
ATOM     52  C26 858 d   1      27.496  32.824 137.986  0.00  0.00     0.074 C 
ATOM     53  N7  858 d   1      23.411  33.876 137.903  0.00  0.00    -0.331 N 
ATOM     54  O1  858 d   1      26.096  33.083 137.854  0.00  0.00    -0.309 OA
ATOM     55  O2  858 d   1      26.409  34.392 136.068  0.00  0.00    -0.263 OA
ATOM     56  O3  858 d   1      22.114  32.319 136.986  0.00  0.00    -0.264 OA
ATOM     57  O4  858 d   1      20.686  33.198 139.355  0.00  0.00    -0.281 OA
ATOM     58  O5  858 d   1      22.908  32.669 141.309  0.00  0.00    -0.338 OA
ATOM     59  O9  858 d   1      29.248  31.061 141.538  0.00  0.00    -0.297 OA
ENDROOT
BRANCH  52  60
ATOM     60  C27 858 d   1      27.569  31.322 137.791  0.00  0.00    -0.058 C 
ATOM     61  C28 858 d   1      28.363  30.870 136.804  0.00  0.00    -0.095 C 
ATOM     62  H28 858 d   1      28.692  31.623 136.090  0.00  0.00     0.077 H 
BRANCH  60  63
ATOM     63  C42 858 d   1      26.724  30.437 138.675  0.00  0.00    -0.052 C 
ATOM     64  H55 858 d   1      26.892  29.384 138.407  0.00  0.00     0.033 H 
ATOM     65  H56 858 d   1      25.662  30.686 138.535  0.00  0.00     0.033 H 
ATOM     66  H57 858 d   1      27.003  30.596 139.727  0.00  0.00     0.033 H 
ENDBRANCH  60  63
BRANCH  61  67
ATOM     67  C29 858 d   1      28.869  29.458 136.540  0.00  0.00    -0.035 C 
ATOM     68  H29 858 d   1      28.131  28.734 136.915  0.00  0.00     0.046 H 
ATOM     69  C34 858 d   1      30.224  29.196 137.214  0.00  0.00    -0.056 C 
ATOM     70  H36 858 d   1      30.070  29.169 138.303  0.00  0.00     0.034 H 
ATOM     71  H37 858 d   1      30.903  30.024 136.961  0.00  0.00     0.034 H 
ATOM     72  C33 858 d   1      30.882  27.888 136.789  0.00  0.00    -0.037 C 
ATOM     73  H34 858 d   1      31.885  27.840 137.238  0.00  0.00     0.036 H 
ATOM     74  H35 858 d   1      30.272  27.053 137.163  0.00  0.00     0.036 H 
ATOM     75  C32 858 d   1      31.022  27.745 135.267  0.00  0.00     0.070 C 
ATOM     76  H33 858 d   1      31.730  28.500 134.895  0.00  0.00     0.088 H 
ATOM     77  C31 858 d   1      29.647  27.933 134.605  0.00  0.00     0.064 C 
ATOM     78  H32 858 d   1      28.969  27.131 134.931  0.00  0.00     0.087 H 
ATOM     79  C30 858 d   1      29.053  29.284 135.025  0.00  0.00    -0.032 C 
ATOM     80  H30 858 d   1      29.723  30.080 134.667  0.00  0.00     0.037 H 
ATOM     81  H31 858 d   1      28.069  29.390 134.545  0.00  0.00     0.037 H 
BRANCH  75  82
ATOM     82  O12 858 d   1      31.470  26.441 134.906  0.00  0.00    -0.343 OA
BRANCH  82  83
ATOM     83  C58 858 d   1      32.689  25.958 135.280  0.00  0.00     0.070 A 
ATOM     84  C60 858 d   1      32.795  24.590 135.529  0.00  0.00    -0.039 A 
ATOM     85  H68 858 d   1      31.940  23.940 135.380  0.00  0.00     0.089 H 
ATOM     86  C61 858 d   1      34.018  24.059 135.975  0.00  0.00    -0.005 A 
ATOM     87  C63 858 d   1      35.070  24.952 136.140  0.00  0.00     0.044 A 
ATOM     88  C64 858 d   1      34.382  22.776 136.306  0.00  0.00    -0.056 A 
ATOM     89  C62 858 d   1      34.974  26.326 135.892  0.00  0.00    -0.054 A 
ATOM     90  N65 858 d   1      36.157  24.138 136.606  0.00  0.00    -0.356 N 
ATOM     91  H69 858 d   1      35.826  26.980 136.036  0.00  0.00     0.087 H 
ATOM     92  C59 858 d   1      33.775  26.817 135.464  0.00  0.00    -0.049 A 
ATOM     93  H67 858 d   1      33.665  27.877 135.266  0.00  0.00     0.087 H 
ATOM     94  C66 858 d   1      35.711  22.666 136.729  0.00  0.00    -0.019 A 
ATOM     95  H71 858 d   1      36.272  21.790 137.053  0.00  0.00     0.111 H 
ATOM     96  H70 858 d   1      33.702  21.927 136.245  0.00  0.00     0.086 H 
BRANCH  90  97
ATOM     97  C67 858 d   1      37.450  24.792 136.838  0.00  0.00    -0.004 C 
ATOM     98  H72 858 d   1      37.418  25.295 137.816  0.00  0.00     0.064 H 
ATOM     99  H73 858 d   1      37.613  25.538 136.047  0.00  0.00     0.064 H 
BRANCH  97 100
ATOM    100  C68 858 d   1      38.600  23.830 136.832  0.00  0.00    -0.061 C 
ATOM    101  H74 858 d   1      39.537  24.378 137.010  0.00  0.00     0.029 H 
ATOM    102  H75 858 d   1      38.651  23.325 135.856  0.00  0.00     0.029 H 
ATOM    103  H76 858 d   1      38.456  23.082 137.625  0.00  0.00     0.029 H 
ENDBRANCH  97 100
ENDBRANCH  90  97
ENDBRANCH  82  83
ENDBRANCH  75  82
BRANCH  77 104
ATOM    104  O11 858 d   1      29.823  27.850 133.181  0.00  0.00    -0.388 OA
BRANCH 104 105
ATOM    105  C45 858 d   1      28.570  27.835 132.468  0.00  0.00     0.005 C 
ATOM    106  H64 858 d   1      28.764  27.771 131.387  0.00  0.00     0.066 H 
ATOM    107  H65 858 d   1      28.013  28.758 132.686  0.00  0.00     0.066 H 
ATOM    108  H66 858 d   1      27.977  26.965 132.786  0.00  0.00     0.066 H 
ENDBRANCH 104 105
ENDBRANCH  77 104
ENDBRANCH  61  67
ENDBRANCH  52  60
BRANCH  51 109
ATOM    109  C41 858 d   1      27.693  34.749 139.614  0.00  0.00    -0.068 C 
ATOM    110  H52 858 d   1      28.068  35.054 140.602  0.00  0.00     0.028 H 
ATOM    111  H53 858 d   1      26.604  34.895 139.574  0.00  0.00     0.028 H 
ATOM    112  H54 858 d   1      28.174  35.359 138.835  0.00  0.00     0.028 H 
ENDBRANCH  51 109
BRANCH  50 113
ATOM    113  O10 858 d   1      30.258  33.967 138.670  0.00  0.00    -0.395 OA
ATOM    114  H78 858 d   1      29.990  33.855 137.766  0.00  0.00     0.210 HD
ENDBRANCH  50 113
BRANCH  47 115
ATOM    115  C38 858 d   1      30.125  31.251 144.173  0.00  0.00    -0.056 C 
ATOM    116  H47 858 d   1      29.343  30.491 144.027  0.00  0.00     0.034 H 
ATOM    117  H48 858 d   1      30.192  31.508 145.240  0.00  0.00     0.034 H 
BRANCH 115 118
ATOM    118  C39 858 d   1      31.453  30.655 143.744  0.00  0.00    -0.076 C 
ATOM    119  H49 858 d   1      31.665  29.760 144.347  0.00  0.00     0.027 H 
ATOM    120  H50 858 d   1      32.253  31.395 143.894  0.00  0.00     0.027 H 
ATOM    121  H51 858 d   1      31.404  30.378 142.681  0.00  0.00     0.027 H 
ENDBRANCH 115 118
ENDBRANCH  47 115
BRANCH  45 122
ATOM    122  C37 858 d   1      29.105  35.486 143.593  0.00  0.00    -0.055 C 
ATOM    123  H44 858 d   1      30.052  35.015 143.292  0.00  0.00     0.033 H 
ATOM    124  H45 858 d   1      29.292  36.194 144.414  0.00  0.00     0.033 H 
ATOM    125  H46 858 d   1      28.674  36.024 142.736  0.00  0.00     0.033 H 
ENDBRANCH  45 122
BRANCH  36 126
ATOM    126  O6  858 d   1      21.138  31.305 141.092  0.00  0.00    -0.359 OA
ATOM    127  H77 858 d   1      20.580  32.036 141.329  0.00  0.00     0.213 HD
ENDBRANCH  36 126
BRANCH  37 128
ATOM    128  C35 858 d   1      22.472  29.518 139.207  0.00  0.00    -0.067 C 
ATOM    129  H38 858 d   1      21.915  29.920 138.348  0.00  0.00     0.028 H 
ATOM    130  H39 858 d   1      21.767  29.073 139.925  0.00  0.00     0.028 H 
ATOM    131  H40 858 d   1      23.177  28.748 138.859  0.00  0.00     0.028 H 
ENDBRANCH  37 128
BRANCH  43 132
ATOM    132  C36 858 d   1      24.717  36.173 143.808  0.00  0.00    -0.073 C 
ATOM    133  H41 858 d   1      24.042  36.390 142.967  0.00  0.00     0.028 H 
ATOM    134  H42 858 d   1      25.159  37.111 144.175  0.00  0.00     0.028 H 
ATOM    135  H43 858 d   1      24.149  35.693 144.619  0.00  0.00     0.028 H 
ENDBRANCH  43 132
BRANCH  39 136
ATOM    136  O7  858 d   1      25.166  30.515 143.174  0.00  0.00    -0.388 OA
BRANCH 136 137
ATOM    137  C43 858 d   1      26.227  29.596 142.977  0.00  0.00     0.005 C 
ATOM    138  H58 858 d   1      26.547  29.191 143.949  0.00  0.00     0.066 H 
ATOM    139  H59 858 d   1      27.073  30.110 142.498  0.00  0.00     0.066 H 
ATOM    140  H60 858 d   1      25.885  28.773 142.332  0.00  0.00     0.066 H 
ENDBRANCH 136 137
ENDBRANCH  39 136
BRANCH  41 141
ATOM    141  O8  858 d   1      24.376  32.830 144.622  0.00  0.00    -0.388 OA
BRANCH 141 142
ATOM    142  C44 858 d   1      23.198  32.518 145.349  0.00  0.00     0.005 C 
ATOM    143  H61 858 d   1      23.471  32.147 146.348  0.00  0.00     0.066 H 
ATOM    144  H62 858 d   1      22.631  31.743 144.813  0.00  0.00     0.066 H 
ATOM    145  H63 858 d   1      22.579  33.422 145.450  0.00  0.00     0.066 H 
ENDBRANCH 141 142
ENDBRANCH  41 141
TORSDOF 21
