REMARK  22 active torsions:
REMARK  status: ('A' for Active; 'I' for Inactive)
REMARK    1  A    between atoms: C10_9  and  O6_60 
REMARK    2  A    between atoms: C11_10  and  C35_34 
REMARK    3  A    between atoms: C13_12  and  O7_61 
REMARK    4  A    between atoms: C15_14  and  O8_62 
REMARK    5  A    between atoms: C17_16  and  C36_35 
REMARK    6  A    between atoms: C18_17  and  O13_67 
REMARK    7  A    between atoms: C19_18  and  C37_36 
REMARK    8  A    between atoms: C21_20  and  C38_37 
REMARK    9  A    between atoms: C24_23  and  O10_64 
REMARK   10  A    between atoms: C25_24  and  C41_39 
REMARK   11  A    between atoms: C27_26  and  C26_25 
REMARK   12  A    between atoms: C28_27  and  C27_26 
REMARK   13  A    between atoms: C27_26  and  C42_40 
REMARK   14  A    between atoms: C29_28  and  C28_27 
REMARK   15  A    between atoms: C31_30  and  O11_65 
REMARK   16  A    between atoms: O12_66  and  C32_31 
REMARK   17  A    between atoms: C38_37  and  C39_38 
REMARK   18  A    between atoms: O7_61  and  C43_41 
REMARK   19  A    between atoms: O8_62  and  C44_42 
REMARK   20  A    between atoms: O11_65  and  C45_43 
REMARK   21  A    between atoms: C58_44  and  O12_66 
REMARK   22  A    between atoms: N65_51  and  C67_53 
ROOT
ATOM      1  C1  587 d   1      47.928  29.999   5.207  0.00  0.00     0.282 C 
ATOM      2  C2  587 d   1      48.060  29.779   3.707  0.00  0.00     0.099 C 
ATOM      3  C3  587 d   1      49.358  30.402   3.200  0.00  0.00    -0.037 C 
ATOM      4  C4  587 d   1      49.366  31.922   3.241  0.00  0.00    -0.061 C 
ATOM      5  C5  587 d   1      48.201  32.478   2.449  0.00  0.00    -0.050 C 
ATOM      6  C6  587 d   1      46.900  31.896   2.959  0.00  0.00    -0.001 C 
ATOM      7  C8  587 d   1      46.247  29.684   2.190  0.00  0.00     0.296 C 
ATOM      8  C9  587 d   1      45.317  30.264   1.372  0.00  0.00     0.278 C 
ATOM      9  C10 587 d   1      43.907  30.605   1.781  0.00  0.00     0.238 C 
ATOM     10  C11 587 d   1      43.435  29.544   2.786  0.00  0.00     0.007 C 
ATOM     11  C12 587 d   1      42.214  30.074   3.527  0.00  0.00    -0.030 C 
ATOM     12  C13 587 d   1      42.408  31.497   4.032  0.00  0.00     0.066 C 
ATOM     13  C14 587 d   1      42.810  32.397   2.858  0.00  0.00     0.092 C 
ATOM     14  C15 587 d   1      43.027  33.884   3.102  0.00  0.00     0.066 C 
ATOM     15  C16 587 d   1      43.992  34.105   4.271  0.00  0.00    -0.033 C 
ATOM     16  C17 587 d   1      44.306  35.557   4.645  0.00  0.00    -0.027 C 
ATOM     17  C18 587 d   1      43.121  36.305   5.275  0.00  0.00     0.060 C 
ATOM     18  C19 587 d   1      43.073  35.987   6.757  0.00  0.00    -0.058 C 
ATOM     19  C20 587 d   1      42.475  34.870   7.175  0.00  0.00    -0.088 C 
ATOM     20  C21 587 d   1      42.445  34.399   8.589  0.00  0.00     0.020 C 
ATOM     21  C22 587 d   1      43.203  33.088   8.768  0.00  0.00     0.137 C 
ATOM     22  C23 587 d   1      44.643  33.216   9.257  0.00  0.00     0.015 C 
ATOM     23  C24 587 d   1      45.524  32.033   8.844  0.00  0.00     0.048 C 
ATOM     24  C25 587 d   1      45.736  32.001   7.324  0.00  0.00    -0.003 C 
ATOM     25  C26 587 d   1      46.502  30.702   7.050  0.00  0.00     0.074 C 
ATOM     26  N7  587 d   1      47.005  30.431   2.958  0.00  0.00    -0.331 N 
ATOM     27  O1  587 d   1      46.784  30.577   5.670  0.00  0.00    -0.309 OA
ATOM     28  O2  587 d   1      48.847  29.681   5.965  0.00  0.00    -0.263 OA
ATOM     29  O3  587 d   1      46.308  28.452   2.156  0.00  0.00    -0.264 OA
ATOM     30  O4  587 d   1      45.650  30.568   0.224  0.00  0.00    -0.281 OA
ATOM     31  O5  587 d   1      43.996  31.904   2.298  0.00  0.00    -0.338 OA
ATOM     32  O9  587 d   1      42.661  31.996   8.573  0.00  0.00    -0.297 OA
ATOM     33  H1  587 d   1      48.050  28.698   3.503  0.00  0.00     0.088 H 
ATOM     34  H2  587 d   1      49.513  30.082   2.159  0.00  0.00     0.036 H 
ATOM     35  H3  587 d   1      50.186  30.034   3.824  0.00  0.00     0.036 H 
ATOM     36  H4  587 d   1      50.307  32.291   2.808  0.00  0.00     0.033 H 
ATOM     37  H5  587 d   1      49.286  32.257   4.286  0.00  0.00     0.033 H 
ATOM     38  H6  587 d   1      48.325  32.217   1.388  0.00  0.00     0.035 H 
ATOM     39  H7  587 d   1      48.177  33.572   2.557  0.00  0.00     0.035 H 
ATOM     40  H8  587 d   1      46.073  32.208   2.304  0.00  0.00     0.064 H 
ATOM     41  H9  587 d   1      46.711  32.252   3.982  0.00  0.00     0.064 H 
ATOM     42  H10 587 d   1      44.240  29.326   3.503  0.00  0.00     0.048 H 
ATOM     43  H11 587 d   1      42.012  29.419   4.388  0.00  0.00     0.037 H 
ATOM     44  H12 587 d   1      41.352  30.057   2.844  0.00  0.00     0.037 H 
ATOM     45  H13 587 d   1      43.193  31.524   4.802  0.00  0.00     0.087 H 
ATOM     46  H14 587 d   1      42.004  32.313   2.114  0.00  0.00     0.091 H 
ATOM     47  H15 587 d   1      43.460  34.353   2.206  0.00  0.00     0.087 H 
ATOM     48  H16 587 d   1      44.943  33.615   4.014  0.00  0.00     0.037 H 
ATOM     49  H17 587 d   1      43.557  33.620   5.157  0.00  0.00     0.037 H 
ATOM     50  H18 587 d   1      45.114  35.542   5.391  0.00  0.00     0.043 H 
ATOM     51  H19 587 d   1      42.193  35.950   4.802  0.00  0.00     0.090 H 
ATOM     52  H20 587 d   1      41.972  34.257   6.428  0.00  0.00     0.078 H 
ATOM     53  H21 587 d   1      42.923  35.161   9.222  0.00  0.00     0.058 H 
ATOM     54  H22 587 d   1      44.636  33.281  10.355  0.00  0.00     0.048 H 
ATOM     55  H23 587 d   1      45.075  34.137   8.838  0.00  0.00     0.048 H 
ATOM     56  H24 587 d   1      45.057  31.090   9.163  0.00  0.00     0.084 H 
ATOM     57  H25 587 d   1      44.770  32.001   6.798  0.00  0.00     0.047 H 
ATOM     58  H26 587 d   1      47.436  30.697   7.631  0.00  0.00     0.092 H 
ENDROOT
BRANCH  25  59
ATOM     59  C27 587 d   1      45.654  29.520   7.416  0.00  0.00    -0.058 C 
BRANCH  59  60
ATOM     60  C28 587 d   1      46.092  28.708   8.381  0.00  0.00    -0.095 C 
ATOM     61  H27 587 d   1      47.084  28.918   8.779  0.00  0.00     0.077 H 
BRANCH  60  62
ATOM     62  C29 587 d   1      45.366  27.535   8.979  0.00  0.00    -0.035 C 
ATOM     63  C30 587 d   1      46.332  26.381   9.253  0.00  0.00    -0.032 C 
ATOM     64  C31 587 d   1      45.726  25.185   9.996  0.00  0.00     0.064 C 
ATOM     65  H29 587 d   1      47.165  26.770   9.857  0.00  0.00     0.037 H 
ATOM     66  H30 587 d   1      46.716  26.022   8.287  0.00  0.00     0.037 H 
ATOM     67  C32 587 d   1      45.120  25.655  11.321  0.00  0.00     0.070 C 
ATOM     68  H31 587 d   1      44.966  24.708   9.360  0.00  0.00     0.087 H 
ATOM     69  C33 587 d   1      44.114  26.774  11.069  0.00  0.00    -0.037 C 
ATOM     70  H32 587 d   1      45.920  26.038  11.971  0.00  0.00     0.088 H 
ATOM     71  C34 587 d   1      44.717  27.940  10.305  0.00  0.00    -0.056 C 
ATOM     72  H33 587 d   1      43.745  27.141  12.038  0.00  0.00     0.036 H 
ATOM     73  H34 587 d   1      43.274  26.368  10.487  0.00  0.00     0.036 H 
ATOM     74  H35 587 d   1      43.919  28.667  10.094  0.00  0.00     0.034 H 
ATOM     75  H36 587 d   1      45.484  28.411  10.938  0.00  0.00     0.034 H 
ATOM     76  H28 587 d   1      44.588  27.200   8.277  0.00  0.00     0.046 H 
BRANCH  64  77
ATOM     77  O11 587 d   1      46.703  24.245  10.390  0.00  0.00    -0.388 OA
BRANCH  77  78
ATOM     78  C45 587 d   1      47.378  23.592   9.314  0.00  0.00     0.005 C 
ATOM     79  H63 587 d   1      48.115  22.883   9.720  0.00  0.00     0.066 H 
ATOM     80  H64 587 d   1      47.893  24.342   8.695  0.00  0.00     0.066 H 
ATOM     81  H65 587 d   1      46.646  23.048   8.698  0.00  0.00     0.066 H 
ENDBRANCH  77  78
ENDBRANCH  64  77
BRANCH  67  82
ATOM     82  O12 587 d   1      44.494  24.530  11.959  0.00  0.00    -0.343 OA
BRANCH  82  83
ATOM     83  C58 587 d   1      44.826  24.402  13.284  0.00  0.00     0.070 A 
ATOM     84  C59 587 d   1      46.174  24.374  13.654  0.00  0.00    -0.049 A 
ATOM     85  C62 587 d   1      46.529  24.496  14.970  0.00  0.00    -0.054 A 
ATOM     86  H66 587 d   1      46.940  24.255  12.896  0.00  0.00     0.087 H 
ATOM     87  C63 587 d   1      45.508  24.646  15.925  0.00  0.00     0.044 A 
ATOM     88  H68 587 d   1      47.571  24.477  15.269  0.00  0.00     0.087 H 
ATOM     89  C61 587 d   1      44.145  24.671  15.604  0.00  0.00    -0.005 A 
ATOM     90  N65 587 d   1      45.566  24.857  17.402  0.00  0.00    -0.360 N 
ATOM     91  C60 587 d   1      43.815  24.539  14.241  0.00  0.00    -0.039 A 
ATOM     92  C64 587 d   1      43.338  24.857  16.712  0.00  0.00    -0.056 A 
ATOM     93  H67 587 d   1      42.776  24.544  13.933  0.00  0.00     0.089 H 
ATOM     94  C66 587 d   1      44.006  24.996  17.921  0.00  0.00    -0.020 A 
ATOM     95  H69 587 d   1      42.252  24.892  16.641  0.00  0.00     0.086 H 
ATOM     96  H70 587 d   1      43.613  25.152  18.924  0.00  0.00     0.111 H 
BRANCH  90  97
ATOM     97  C67 587 d   1      46.761  25.032  18.272  0.00  0.00    -0.014 C 
ATOM     98  H71 587 d   1      47.673  24.886  17.675  0.00  0.00     0.057 H 
ATOM     99  H72 587 d   1      46.733  24.293  19.086  0.00  0.00     0.057 H 
ATOM    100  H73 587 d   1      46.760  26.047  18.697  0.00  0.00     0.057 H 
ENDBRANCH  90  97
ENDBRANCH  82  83
ENDBRANCH  67  82
ENDBRANCH  60  62
ENDBRANCH  59  60
BRANCH  59 101
ATOM    101  C42 587 d   1      44.381  29.306   6.626  0.00  0.00    -0.052 C 
ATOM    102  H54 587 d   1      43.864  28.410   7.000  0.00  0.00     0.033 H 
ATOM    103  H55 587 d   1      44.628  29.170   5.563  0.00  0.00     0.033 H 
ATOM    104  H56 587 d   1      43.726  30.182   6.742  0.00  0.00     0.033 H 
ENDBRANCH  59 101
ENDBRANCH  25  59
BRANCH  24 105
ATOM    105  C41 587 d   1      46.560  33.195   6.879  0.00  0.00    -0.068 C 
ATOM    106  H51 587 d   1      46.002  34.121   7.080  0.00  0.00     0.028 H 
ATOM    107  H52 587 d   1      46.766  33.117   5.801  0.00  0.00     0.028 H 
ATOM    108  H53 587 d   1      47.510  33.212   7.433  0.00  0.00     0.028 H 
ENDBRANCH  24 105
BRANCH  23 109
ATOM    109  O10 587 d   1      46.779  32.212   9.511  0.00  0.00    -0.395 OA
ATOM    110  H75 587 d   1      46.637  32.230  10.450  0.00  0.00     0.210 HD
ENDBRANCH  23 109
BRANCH  20 111
ATOM    111  C38 587 d   1      40.991  34.242   9.020  0.00  0.00    -0.056 C 
ATOM    112  H46 587 d   1      40.538  33.435   8.425  0.00  0.00     0.034 H 
ATOM    113  H47 587 d   1      40.465  35.187   8.817  0.00  0.00     0.034 H 
BRANCH 111 114
ATOM    114  C39 587 d   1      40.820  33.909  10.477  0.00  0.00    -0.076 C 
ATOM    115  H48 587 d   1      39.749  33.813  10.708  0.00  0.00     0.027 H 
ATOM    116  H49 587 d   1      41.257  34.711  11.090  0.00  0.00     0.027 H 
ATOM    117  H50 587 d   1      41.330  32.960  10.698  0.00  0.00     0.027 H 
ENDBRANCH 111 114
ENDBRANCH  20 111
BRANCH  18 118
ATOM    118  C37 587 d   1      43.702  36.940   7.755  0.00  0.00    -0.052 C 
ATOM    119  H43 587 d   1      43.569  36.545   8.773  0.00  0.00     0.033 H 
ATOM    120  H44 587 d   1      43.218  37.925   7.678  0.00  0.00     0.033 H 
ATOM    121  H45 587 d   1      44.776  37.042   7.538  0.00  0.00     0.033 H 
ENDBRANCH  18 118
BRANCH   9 122
ATOM    122  O6  587 d   1      43.076  30.643   0.644  0.00  0.00    -0.359 OA
ATOM    123  H74 587 d   1      43.453  31.228  -0.003  0.00  0.00     0.213 HD
ENDBRANCH   9 122
BRANCH  17 124
ATOM    124  O13 587 d   1      43.207  37.710   5.087  0.00  0.00    -0.391 OA
ATOM    125  H76 587 d   1      43.237  37.903   4.157  0.00  0.00     0.210 HD
ENDBRANCH  17 124
BRANCH  10 126
ATOM    126  C35 587 d   1      43.058  28.283   2.044  0.00  0.00    -0.067 C 
ATOM    127  H37 587 d   1      43.937  27.897   1.507  0.00  0.00     0.028 H 
ATOM    128  H38 587 d   1      42.258  28.507   1.323  0.00  0.00     0.028 H 
ATOM    129  H39 587 d   1      42.705  27.527   2.761  0.00  0.00     0.028 H 
ENDBRANCH  10 126
BRANCH  16 130
ATOM    130  C36 587 d   1      44.816  36.282   3.405  0.00  0.00    -0.070 C 
ATOM    131  H40 587 d   1      45.662  35.725   2.977  0.00  0.00     0.028 H 
ATOM    132  H41 587 d   1      45.146  37.294   3.682  0.00  0.00     0.028 H 
ATOM    133  H42 587 d   1      44.008  36.350   2.662  0.00  0.00     0.028 H 
ENDBRANCH  16 130
BRANCH  12 134
ATOM    134  O7  587 d   1      41.177  31.915   4.585  0.00  0.00    -0.388 OA
BRANCH 134 135
ATOM    135  C43 587 d   1      40.970  31.414   5.898  0.00  0.00     0.005 C 
ATOM    136  H57 587 d   1      40.001  31.769   6.277  0.00  0.00     0.066 H 
ATOM    137  H58 587 d   1      41.775  31.770   6.558  0.00  0.00     0.066 H 
ATOM    138  H59 587 d   1      40.974  30.314   5.876  0.00  0.00     0.066 H 
ENDBRANCH 134 135
ENDBRANCH  12 134
BRANCH  14 139
ATOM    139  O8  587 d   1      41.736  34.406   3.325  0.00  0.00    -0.388 OA
BRANCH 139 140
ATOM    140  C44 587 d   1      41.199  34.791   2.064  0.00  0.00     0.005 C 
ATOM    141  H60 587 d   1      40.189  35.203   2.206  0.00  0.00     0.066 H 
ATOM    142  H61 587 d   1      41.147  33.913   1.404  0.00  0.00     0.066 H 
ATOM    143  H62 587 d   1      41.846  35.555   1.608  0.00  0.00     0.066 H 
ENDBRANCH 139 140
ENDBRANCH  14 139
TORSDOF 22
