REMARK  6 active torsions:
REMARK  status: ('A' for Active; 'I' for Inactive)
REMARK    1  A    between atoms: CA_2  and  N_1 
REMARK    2  A    between atoms: CA_2  and  C_3 
REMARK    3  A    between atoms: CA_2  and  CB_5 
REMARK    4  A    between atoms: CB_5  and  CG_6 
REMARK    5  A    between atoms: CG_6  and  SD_7 
REMARK    6  A    between atoms: SD_7  and  CE_8 
ROOT
ATOM      1  CB  MET d   1      15.401  17.530  50.317  0.00  0.00    -0.021 C 
ATOM      2  H5  MET d   1      14.446  17.774  49.829  0.00  0.00     0.037 H 
ATOM      3  H6  MET d   1      15.994  16.878  49.658  0.00  0.00     0.037 H 
ENDROOT
BRANCH   1   4
ATOM      4  CA  MET d   1      15.084  16.739  51.596  0.00  0.00     0.183 C 
ATOM      5  H4  MET d   1      14.948  17.433  52.439  0.00  0.00     0.101 H 
BRANCH   4   6
ATOM      6  C   MET d   1      13.846  15.930  51.367  0.00  0.00     0.204 C 
ATOM      7  OXT MET d   1      13.865  14.721  51.154  0.00  0.00    -0.646 OA
ATOM      8  O   MET d   1      12.795  16.510  51.424  0.00  0.00    -0.646 OA
ENDBRANCH   4   6
BRANCH   4   9
ATOM      9  N   MET d   1      16.161  15.756  51.903  0.00  0.00    -0.065 N 
ATOM     10  H1  MET d   1      17.026  16.246  52.068  0.00  0.00     0.275 HD
ATOM     11  H2  MET d   1      16.274  15.127  51.123  0.00  0.00     0.275 HD
ATOM     12  H3  MET d   1      15.911  15.230  52.725  0.00  0.00     0.275 HD
ENDBRANCH   4   9
ENDBRANCH   1   4
BRANCH   1  13
ATOM     13  CG  MET d   1      16.183  18.846  50.502  0.00  0.00    -0.021 C 
ATOM     14  H7  MET d   1      15.645  19.462  51.237  0.00  0.00     0.049 H 
ATOM     15  H8  MET d   1      16.207  19.368  49.534  0.00  0.00     0.049 H 
BRANCH  13  16
ATOM     16  SD  MET d   1      17.852  18.653  51.063  0.00  0.00    -0.173 SA
BRANCH  16  17
ATOM     17  CE  MET d   1      18.614  17.814  49.556  0.00  0.00    -0.035 C 
ATOM     18  H9  MET d   1      19.680  17.619  49.745  0.00  0.00     0.041 H 
ATOM     19  H10 MET d   1      18.511  18.471  48.680  0.00  0.00     0.041 H 
ATOM     20  H11 MET d   1      18.095  16.863  49.364  0.00  0.00     0.041 H 
ENDBRANCH  16  17
ENDBRANCH  13  16
ENDBRANCH   1  13
TORSDOF 6
