REMARK  15 active torsions:
REMARK  status: ('A' for Active; 'I' for Inactive)
REMARK    1  A    between atoms: CA_1  and  CB2_5 
REMARK    2  A    between atoms: CA_1  and  CB1_4 
REMARK    3  A    between atoms: C_2  and  CA_1 
REMARK       I    between atoms: N_6  and  C_2 
REMARK    4  A    between atoms: CA_7  and  N_6 
REMARK    5  A    between atoms: CB_18  and  CG2_20 
REMARK    6  A    between atoms: CB_25  and  CG_26 
REMARK    7  A    between atoms: CD_33  and  OE_34 
REMARK    8  A    between atoms: CA_36  and  CB_39 
REMARK    9  A    between atoms: CB_39  and  CG_40 
REMARK   10  A    between atoms: N_46  and  CN_50 
REMARK   11  A    between atoms: CE2_56  and  OZ_58 
REMARK   12  A    between atoms: CZ1_57  and  OH1_59 
REMARK   13  A    between atoms: CA_64  and  CB_67 
REMARK   14  A    between atoms: CB_67  and  CG1_68 
REMARK   15  A    between atoms: CB_67  and  CG2_69 
ROOT
ATOM      1  CA  CIR d   1     -15.022  19.016  37.997  0.00  0.00     0.089 C 
ATOM      2  CB  CIR d   1     -15.697  19.840  36.886  0.00  0.00    -0.036 C 
ATOM      3  CG  CIR d   1     -14.739  20.422  35.835  0.00  0.00    -0.048 C 
ATOM      4  CD  CIR d   1     -14.051  19.430  34.905  0.00  0.00    -0.003 C 
ATOM      5  NE  CIR d   1     -12.869  20.028  34.268  0.00  0.00    -0.343 N 
ATOM      6  C   CIR d   1     -13.710  19.751  38.466  0.00  0.00     0.241 C 
ATOM      7  O   CIR d   1     -13.767  20.905  38.873  0.00  0.00    -0.271 OA
ATOM      8  NE  CIR d   1     -11.649  20.365  32.423  0.00  0.00    -0.308 N 
ATOM      9  CZ2 CIR d   1     -12.801  19.950  32.938  0.00  0.00     0.320 C 
ATOM     10  OH2 CIR d   1     -13.673  19.503  32.209  0.00  0.00    -0.247 OA
ATOM     11  H9  CIR d   1     -14.776  18.011  37.624  0.00  0.00     0.087 H 
ATOM     12  H10 CIR d   1     -16.233  20.676  37.359  0.00  0.00     0.036 H 
ATOM     13  H11 CIR d   1     -16.417  19.189  36.368  0.00  0.00     0.036 H 
ATOM     14  H12 CIR d   1     -13.953  20.975  36.371  0.00  0.00     0.035 H 
ATOM     15  H13 CIR d   1     -15.316  21.119  35.209  0.00  0.00     0.035 H 
ATOM     16  H14 CIR d   1     -14.761  19.119  34.124  0.00  0.00     0.064 H 
ATOM     17  H15 CIR d   1     -13.738  18.551  35.487  0.00  0.00     0.064 H 
ATOM     18  H16 CIR d   1     -12.151  20.471  34.805  0.00  0.00     0.164 HD
ATOM     19  H54 CIR d   1     -10.978  20.827  33.003  0.00  0.00     0.170 HD
ATOM     20  N   THR d   1     -12.549  19.053  38.362  0.00  0.00    -0.344 N 
ATOM     21  CA  THR d   1     -11.312  19.747  38.652  0.00  0.00     0.115 C 
ATOM     22  C   THR d   1     -10.918  20.804  37.605  0.00  0.00     0.247 C 
ATOM     23  O   THR d   1     -11.256  20.711  36.432  0.00  0.00    -0.271 OA
ATOM     24  CB  THR d   1     -10.048  18.810  38.873  0.00  0.00     0.072 C 
ATOM     25  OG1 THR d   1      -9.974  17.840  37.838  0.00  0.00    -0.312 OA
ATOM     26  H17 THR d   1     -12.549  18.090  38.093  0.00  0.00     0.163 HD
ATOM     27  H18 THR d   1     -11.486  20.279  39.599  0.00  0.00     0.091 H 
ATOM     28  H19 THR d   1      -9.134  19.421  38.851  0.00  0.00     0.087 H 
ATOM     29  N   DBU d   1     -10.207  21.831  38.171  0.00  0.00    -0.321 N 
ATOM     30  CA  DBU d   1      -9.866  23.054  37.416  0.00  0.00     0.099 C 
ATOM     31  C   DBU d   1      -8.900  22.955  36.282  0.00  0.00     0.268 C 
ATOM     32  O   DBU d   1      -8.683  23.949  35.593  0.00  0.00    -0.266 OA
ATOM     33  CB  DBU d   1     -10.416  24.257  37.724  0.00  0.00    -0.075 C 
ATOM     34  H23 DBU d   1      -9.911  21.750  39.123  0.00  0.00     0.169 HD
ATOM     35  H24 DBU d   1     -10.104  25.129  37.151  0.00  0.00     0.080 H 
ATOM     36  N   GLJ d   1      -8.297  21.805  36.085  0.00  0.00    -0.342 N 
ATOM     37  CA  GLJ d   1      -7.323  21.678  35.002  0.00  0.00     0.090 C 
ATOM     38  C   GLJ d   1      -7.966  21.066  33.697  0.00  0.00     0.245 C 
ATOM     39  O   GLJ d   1      -9.165  21.229  33.420  0.00  0.00    -0.271 OA
ATOM     40  CB  GLJ d   1      -6.099  20.893  35.510  0.00  0.00    -0.034 C 
ATOM     41  CG  GLJ d   1      -5.157  20.738  34.324  0.00  0.00    -0.022 C 
ATOM     42  CD  GLJ d   1      -5.773  19.884  33.230  0.00  0.00     0.106 C 
ATOM     43  H28 GLJ d   1      -8.503  21.022  36.672  0.00  0.00     0.163 HD
ATOM     44  H29 GLJ d   1      -6.979  22.690  34.742  0.00  0.00     0.087 H 
ATOM     45  H30 GLJ d   1      -6.409  19.904  35.880  0.00  0.00     0.036 H 
ATOM     46  H31 GLJ d   1      -5.602  21.448  36.319  0.00  0.00     0.036 H 
ATOM     47  H32 GLJ d   1      -4.226  20.262  34.667  0.00  0.00     0.039 H 
ATOM     48  H33 GLJ d   1      -4.931  21.734  33.915  0.00  0.00     0.039 H 
ATOM     49  H34 GLJ d   1      -5.093  19.826  32.368  0.00  0.00     0.117 H 
ATOM     50  N   PHE d   1      -7.120  20.358  32.847  0.00  0.00    -0.310 N 
ATOM     51  CA  PHE d   1      -7.637  19.996  31.518  0.00  0.00     0.098 C 
ATOM     52  C   PHE d   1      -7.455  18.483  31.231  0.00  0.00     0.243 C 
ATOM     53  O   PHE d   1      -6.440  18.123  30.663  0.00  0.00    -0.271 OA
ATOM     54  H36 PHE d   1      -8.706  20.251  31.476  0.00  0.00     0.088 H 
ATOM     55  N   TYJ d   1      -8.377  17.580  31.634  0.00  0.00    -0.341 N 
ATOM     56  CA  TYJ d   1      -9.589  17.950  32.371  0.00  0.00     0.095 C 
ATOM     57  C   TYJ d   1      -9.885  17.354  33.736  0.00  0.00     0.241 C 
ATOM     58  O   TYJ d   1     -11.037  17.097  34.061  0.00  0.00    -0.271 OA
ATOM     59  CB  TYJ d   1     -10.804  17.762  31.484  0.00  0.00    -0.011 C 
ATOM     60  CG  TYJ d   1     -10.939  18.935  30.578  0.00  0.00    -0.026 A 
ATOM     61  CD1 TYJ d   1     -11.384  20.160  31.104  0.00  0.00     0.045 A 
ATOM     62  CD2 TYJ d   1     -10.568  18.783  29.236  0.00  0.00    -0.040 A 
ATOM     63  CE1 TYJ d   1     -11.494  21.265  30.276  0.00  0.00    -0.022 A 
ATOM     64  CE2 TYJ d   1     -10.679  19.899  28.437  0.00  0.00     0.099 A 
ATOM     65  CZ1 TYJ d   1     -11.118  21.126  28.949  0.00  0.00     0.101 A 
ATOM     66  H44 TYJ d   1      -9.485  19.030  32.552  0.00  0.00     0.088 H 
ATOM     67  H48 TYJ d   1     -11.705  17.675  32.109  0.00  0.00     0.044 H 
ATOM     68  H49 TYJ d   1     -10.684  16.847  30.885  0.00  0.00     0.044 H 
ATOM     69  H50 TYJ d   1     -10.212  17.836  28.847  0.00  0.00     0.088 H 
ATOM     70  H51 TYJ d   1     -11.863  22.211  30.655  0.00  0.00     0.091 H 
ATOM     71  N   VAL d   1      -8.772  17.240  34.501  0.00  0.00    -0.345 N 
ATOM     72  CA  VAL d   1      -8.869  16.849  35.917  0.00  0.00     0.099 C 
ATOM     73  C   VAL d   1      -9.120  18.060  36.866  0.00  0.00     0.282 C 
ATOM     74  O   VAL d   1      -8.570  19.098  36.671  0.00  0.00    -0.263 OA
ATOM     75  H55 VAL d   1      -7.875  17.424  34.099  0.00  0.00     0.163 HD
ATOM     76  H56 VAL d   1      -9.710  16.146  36.010  0.00  0.00     0.089 H 
ENDROOT
BRANCH   1  77
ATOM     77  N   CIR d   1     -15.943  18.922  39.129  0.00  0.00    -0.347 N 
ATOM     78  C   ALQ d   1     -15.955  17.856  39.911  0.00  0.00     0.221 C 
ATOM     79  O1  ALQ d   1     -15.332  16.853  39.600  0.00  0.00    -0.273 OA
ATOM     80  H8  CIR d   1     -16.573  19.676  39.315  0.00  0.00     0.163 HD
BRANCH  78  81
ATOM     81  CA  ALQ d   1     -16.745  18.030  41.207  0.00  0.00     0.017 C 
ATOM     82  H1  ALQ d   1     -16.907  19.102  41.393  0.00  0.00     0.053 H 
BRANCH  81  83
ATOM     83  CB2 ALQ d   1     -18.094  17.332  41.126  0.00  0.00    -0.065 C 
ATOM     84  H5  ALQ d   1     -18.683  17.766  40.305  0.00  0.00     0.028 H 
ATOM     85  H6  ALQ d   1     -18.634  17.466  42.075  0.00  0.00     0.028 H 
ATOM     86  H7  ALQ d   1     -17.941  16.259  40.940  0.00  0.00     0.028 H 
ENDBRANCH  81  83
BRANCH  81  87
ATOM     87  CB1 ALQ d   1     -15.917  17.422  42.359  0.00  0.00    -0.065 C 
ATOM     88  H2  ALQ d   1     -16.466  17.535  43.305  0.00  0.00     0.028 H 
ATOM     89  H3  ALQ d   1     -14.951  17.943  42.431  0.00  0.00     0.028 H 
ATOM     90  H4  ALQ d   1     -15.743  16.354  42.162  0.00  0.00     0.028 H 
ENDBRANCH  81  87
ENDBRANCH  78  81
ENDBRANCH   1  77
BRANCH  24  91
ATOM     91  CG2 THR d   1     -10.170  18.163  40.214  0.00  0.00    -0.049 C 
ATOM     92  H20 THR d   1      -9.302  17.509  40.386  0.00  0.00     0.031 H 
ATOM     93  H21 THR d   1     -11.093  17.565  40.250  0.00  0.00     0.031 H 
ATOM     94  H22 THR d   1     -10.205  18.938  40.993  0.00  0.00     0.031 H 
ENDBRANCH  24  91
BRANCH  33  95
ATOM     95  CG  DBU d   1     -11.443  24.451  38.825  0.00  0.00    -0.057 C 
ATOM     96  H25 DBU d   1     -11.730  25.512  38.875  0.00  0.00     0.032 H 
ATOM     97  H26 DBU d   1     -11.011  24.142  39.788  0.00  0.00     0.032 H 
ATOM     98  H27 DBU d   1     -12.332  23.840  38.609  0.00  0.00     0.032 H 
ENDBRANCH  33  95
BRANCH  72  99
ATOM     99  CB  VAL d   1      -7.593  16.166  36.422  0.00  0.00    -0.032 C 
ATOM    100  H57 VAL d   1      -6.955  16.942  36.870  0.00  0.00     0.042 H 
BRANCH  99 101
ATOM    101  CG1 VAL d   1      -7.920  15.149  37.523  0.00  0.00    -0.071 C 
ATOM    102  H58 VAL d   1      -6.991  14.672  37.869  0.00  0.00     0.028 H 
ATOM    103  H59 VAL d   1      -8.599  14.381  37.123  0.00  0.00     0.028 H 
ATOM    104  H60 VAL d   1      -8.404  15.664  38.366  0.00  0.00     0.028 H 
ENDBRANCH  99 101
BRANCH  99 105
ATOM    105  CG2 VAL d   1      -6.817  15.549  35.283  0.00  0.00    -0.071 C 
ATOM    106  H61 VAL d   1      -6.609  16.317  34.523  0.00  0.00     0.028 H 
ATOM    107  H62 VAL d   1      -7.409  14.739  34.833  0.00  0.00     0.028 H 
ATOM    108  H63 VAL d   1      -5.868  15.143  35.663  0.00  0.00     0.028 H 
ENDBRANCH  99 105
ENDBRANCH  72  99
BRANCH  65 109
ATOM    109  OH1 TYJ d   1     -11.163  22.276  28.142  0.00  0.00    -0.358 OA
ATOM    110  H53 TYJ d   1     -10.885  22.054  27.261  0.00  0.00     0.217 HD
ENDBRANCH  65 109
BRANCH  64 111
ATOM    111  OZ  TYJ d   1     -10.320  19.771  27.119  0.00  0.00    -0.358 OA
ATOM    112  H52 TYJ d   1     -10.051  18.876  26.951  0.00  0.00     0.217 HD
ENDBRANCH  64 111
BRANCH  55 113
ATOM    113  CN  TYJ d   1      -8.199  16.122  31.436  0.00  0.00    -0.015 C 
ATOM    114  H45 TYJ d   1      -7.269  15.939  30.877  0.00  0.00     0.056 H 
ATOM    115  H46 TYJ d   1      -9.053  15.722  30.869  0.00  0.00     0.056 H 
ATOM    116  H47 TYJ d   1      -8.143  15.623  32.415  0.00  0.00     0.056 H 
ENDBRANCH  55 113
BRANCH  42 117
ATOM    117  OE  GLJ d   1      -6.113  18.608  33.741  0.00  0.00    -0.377 OA
ATOM    118  H35 GLJ d   1      -5.325  18.166  34.037  0.00  0.00     0.212 HD
ENDBRANCH  42 117
BRANCH  51 119
ATOM    119  CB  PHE d   1      -6.885  20.748  30.409  0.00  0.00    -0.014 C 
ATOM    120  H37 PHE d   1      -7.325  20.477  29.438  0.00  0.00     0.043 H 
ATOM    121  H38 PHE d   1      -5.828  20.444  30.431  0.00  0.00     0.043 H 
BRANCH 119 122
ATOM    122  CG  PHE d   1      -6.961  22.247  30.573  0.00  0.00    -0.056 A 
ATOM    123  CD2 PHE d   1      -8.111  22.926  30.088  0.00  0.00    -0.077 A 
ATOM    124  CE2 PHE d   1      -8.230  24.318  30.289  0.00  0.00    -0.082 A 
ATOM    125  H40 PHE d   1      -8.890  22.380  29.568  0.00  0.00     0.084 H 
ATOM    126  CZ  PHE d   1      -7.189  24.981  30.959  0.00  0.00    -0.083 A 
ATOM    127  H42 PHE d   1      -9.100  24.860  29.936  0.00  0.00     0.083 H 
ATOM    128  CE1 PHE d   1      -6.051  24.287  31.425  0.00  0.00    -0.082 A 
ATOM    129  H43 PHE d   1      -7.261  26.050  31.122  0.00  0.00     0.083 H 
ATOM    130  CD1 PHE d   1      -5.890  22.892  31.237  0.00  0.00    -0.077 A 
ATOM    131  H41 PHE d   1      -5.276  24.839  31.943  0.00  0.00     0.083 H 
ATOM    132  H39 PHE d   1      -5.010  22.357  31.577  0.00  0.00     0.084 H 
ENDBRANCH 119 122
ENDBRANCH  51 119
TORSDOF 15
