REMARK  4 active torsions:
REMARK  status: ('A' for Active; 'I' for Inactive)
REMARK    1  A    between atoms: C3_3  and  C8_6 
REMARK    2  A    between atoms: C8_6  and  C9_7 
REMARK    3  A    between atoms: C9_7  and  C11_18 
REMARK    4  A    between atoms: C11_18  and  C7_15 
ROOT
ATOM      1  C1  100 d   1     -14.890  26.585  69.681  0.00  0.00    -0.060 A 
ATOM      2  C2  100 d   1     -15.810  27.587  70.123  0.00  0.00     0.035 A 
ATOM      3  C10 100 d   1     -16.428  28.496  69.202  0.00  0.00    -0.049 A 
ATOM      4  C4  100 d   1     -16.122  28.387  67.795  0.00  0.00     0.007 A 
ATOM      5  C5  100 d   1     -15.193  27.366  67.347  0.00  0.00     0.043 A 
ATOM      6  C6  100 d   1     -14.577  26.465  68.284  0.00  0.00    -0.055 A 
ATOM      7  C7  100 d   1     -16.561  29.122  66.610  0.00  0.00     0.038 A 
ATOM      8  C12 100 d   1     -15.899  28.529  65.515  0.00  0.00    -0.008 A 
ATOM      9  N9  100 d   1     -15.094  27.495  65.965  0.00  0.00    -0.364 N 
ATOM     10 CL1  100 d   1     -16.161  27.700  71.817  0.00  0.00    -0.084 Cl
ATOM     11  H4  100 d   1     -14.429  25.917  70.400  0.00  0.00     0.086 H 
ATOM     12  H5  100 d   1     -17.116  29.255  69.557  0.00  0.00     0.087 H 
ATOM     13  H6  100 d   1     -13.885  25.705  67.940  0.00  0.00     0.087 H 
ATOM     14  H7  100 d   1     -16.004  28.837  64.476  0.00  0.00     0.112 H 
ATOM     15  H8  100 d   1     -14.505  26.904  65.361  0.00  0.00     0.165 HD
ENDROOT
BRANCH   7  16
ATOM     16  C11 100 d   1     -17.466  30.184  66.605  0.00  0.00     0.168 C 
ATOM     17  O2  100 d   1     -17.451  30.994  67.508  0.00  0.00    -0.292 OA
BRANCH  16  18
ATOM     18  C9  100 d   1     -18.423  30.323  65.505  0.00  0.00     0.046 C 
ATOM     19  H2  100 d   1     -17.821  30.376  64.586  0.00  0.00     0.055 H 
ATOM     20  H3  100 d   1     -19.016  29.396  65.502  0.00  0.00     0.055 H 
BRANCH  18  21
ATOM     21  C8  100 d   1     -19.392  31.421  65.415  0.00  0.00     0.142 C 
ATOM     22  O1  100 d   1     -19.422  32.402  66.325  0.00  0.00    -0.192 OA
BRANCH  21  23
ATOM     23  C3  100 d   1     -20.368  31.420  64.275  0.00  0.00     0.220 A 
ATOM     24  N3  100 d   1     -21.299  32.329  63.998  0.00  0.00    -0.134 NA
ATOM     25  N1  100 d   1     -22.049  32.051  62.871  0.00  0.00     0.022 NA
ATOM     26  N2  100 d   1     -21.528  30.853  62.407  0.00  0.00    -0.200 N 
ATOM     27  N4  100 d   1     -20.525  30.534  63.291  0.00  0.00    -0.137 NA
ATOM     28  H1  100 d   1     -21.828  30.318  61.579  0.00  0.00     0.208 HD
ENDBRANCH  21  23
ENDBRANCH  18  21
ENDBRANCH  16  18
ENDBRANCH   7  16
TORSDOF 4
