REMARK  28 active torsions:
REMARK  status: ('A' for Active; 'I' for Inactive)
REMARK    1  A    between atoms: C_1  and  CH3_3 
REMARK       I    between atoms: N_4  and  C_1 
REMARK    2  A    between atoms: CA_5  and  N_4 
REMARK    3  A    between atoms: C_6  and  CA_5 
REMARK    4  A    between atoms: CA_5  and  CB_8 
REMARK       I    between atoms: N_16  and  C_6 
REMARK    5  A    between atoms: CB_8  and  CG_9 
REMARK    6  A    between atoms: CZ_14  and  OH_15 
REMARK    7  A    between atoms: C_18  and  CA_17 
REMARK       I    between atoms: N_23  and  C_18 
REMARK    8  A    between atoms: CA_24  and  N_23 
REMARK    9  A    between atoms: C_25  and  CA_24 
REMARK   10  A    between atoms: CA_24  and  CB_27 
REMARK       I    between atoms: N_31  and  C_25 
REMARK   11  A    between atoms: CB_27  and  CG1_28 
REMARK   12  A    between atoms: CB_27  and  CG2_29 
REMARK   13  A    between atoms: CG1_28  and  CD1_30 
REMARK   14  A    between atoms: CA_32  and  N_31 
REMARK   15  A    between atoms: C_33  and  CA_32 
REMARK   16  A    between atoms: CA_32  and  CB_35 
REMARK       I    between atoms: N_40  and  C_33 
REMARK   17  A    between atoms: CB_35  and  CG_36 
REMARK   18  A    between atoms: CG_36  and  CD_37 
REMARK       I    between atoms: CD_37  and  NE2_39 
REMARK   19  A    between atoms: CA_41  and  N_40 
REMARK   20  A    between atoms: C_42  and  CA_41 
REMARK   21  A    between atoms: CA_41  and  CB_44 
REMARK       I    between atoms: C_42  and  N_49 
REMARK   22  A    between atoms: CB_44  and  CG_45 
REMARK   23  A    between atoms: CG_45  and  CD_46 
REMARK   24  A    between atoms: N_49  and  CA_50 
REMARK   25  A    between atoms: CA_50  and  C_51 
REMARK   26  A    between atoms: CA_50  and  CB_53 
REMARK   27  A    between atoms: CB_53  and  OG1_54 
REMARK   28  A    between atoms: CB_53  and  CG2_55 
ROOT
ATOM      1  CA  ILE d   1      41.147  52.629   2.294  0.00  0.00     0.092 C 
ATOM      2  H21 ILE d   1      40.800  51.902   1.545  0.00  0.00     0.088 H 
ENDROOT
BRANCH   1   3
ATOM      3  C   ILE d   1      41.409  51.913   3.617  0.00  0.00     0.241 C 
ATOM      4  O   ILE d   1      41.615  52.556   4.638  0.00  0.00    -0.271 OA
ATOM      5  N   GLN d   1      41.395  50.584   3.606  0.00  0.00    -0.346 N 
ATOM      6  H31 GLN d   1      41.232  50.098   2.747  0.00  0.00     0.163 HD
BRANCH   5   7
ATOM      7  CA  GLN d   1      41.615  49.824   4.836  0.00  0.00     0.090 C 
ATOM      8  H32 GLN d   1      40.929  50.226   5.597  0.00  0.00     0.087 H 
BRANCH   7   9
ATOM      9  C   GLN d   1      43.028  49.927   5.384  0.00  0.00     0.241 C 
ATOM     10  O   GLN d   1      43.986  50.143   4.643  0.00  0.00    -0.271 OA
ATOM     11  N   GLU d   1      43.143  49.777   6.695  0.00  0.00    -0.346 N 
ATOM     12  H39 GLU d   1      42.318  49.645   7.244  0.00  0.00     0.163 HD
BRANCH  11  13
ATOM     13  CA  GLU d   1      44.439  49.799   7.358  0.00  0.00     0.090 C 
ATOM     14  H40 GLU d   1      45.019  50.681   7.050  0.00  0.00     0.087 H 
BRANCH  13  15
ATOM     15  C   GLU d   1      45.140  48.510   6.931  0.00  0.00     0.241 C 
ATOM     16  O   GLU d   1      44.492  47.573   6.461  0.00  0.00    -0.271 OA
ATOM     17  N   THR d   1      46.455  48.456   7.087  0.00  0.00    -0.343 N 
ATOM     18  H45 THR d   1      46.941  49.241   7.471  0.00  0.00     0.163 HD
BRANCH  17  19
ATOM     19  CA  THR d   1      47.199  47.261   6.703  0.00  0.00     0.120 C 
ATOM     20  H46 THR d   1      46.572  46.661   6.027  0.00  0.00     0.093 H 
BRANCH  19  21
ATOM     21  C   THR d   1      47.524  46.433   7.943  0.00  0.00     0.199 C 
ATOM     22  O   THR d   1      47.438  45.186   7.866  0.00  0.00    -0.646 OA
ATOM     23  O1  THR d   1      47.870  46.991   9.018  0.00  0.00    -0.646 OA
ENDBRANCH  19  21
BRANCH  19  24
ATOM     24  CB  THR d   1      48.508  47.620   5.971  0.00  0.00     0.061 C 
ATOM     25  H47 THR d   1      49.021  46.693   5.678  0.00  0.00     0.086 H 
BRANCH  24  26
ATOM     26  OG1 THR d   1      49.357  48.375   6.844  0.00  0.00    -0.393 OA
ATOM     27  H48 THR d   1      48.912  49.173   7.105  0.00  0.00     0.210 HD
ENDBRANCH  24  26
BRANCH  24  28
ATOM     28  CG2 THR d   1      48.212  48.441   4.726  0.00  0.00    -0.050 C 
ATOM     29  H49 THR d   1      49.155  48.688   4.217  0.00  0.00     0.031 H 
ATOM     30  H50 THR d   1      47.696  49.369   5.013  0.00  0.00     0.031 H 
ATOM     31  H51 THR d   1      47.570  47.860   4.047  0.00  0.00     0.031 H 
ENDBRANCH  24  28
ENDBRANCH  19  24
ENDBRANCH  17  19
ENDBRANCH  13  15
BRANCH  13  32
ATOM     32  CB  GLU d   1      44.252  49.801   8.877  0.00  0.00    -0.029 C 
ATOM     33  H41 GLU d   1      43.754  50.739   9.165  0.00  0.00     0.037 H 
ATOM     34  H42 GLU d   1      45.244  49.753   9.349  0.00  0.00     0.037 H 
BRANCH  32  35
ATOM     35  CG  GLU d   1      43.413  48.630   9.395  0.00  0.00     0.018 C 
ATOM     36  H43 GLU d   1      43.925  47.691   9.136  0.00  0.00     0.049 H 
ATOM     37  H44 GLU d   1      42.430  48.659   8.902  0.00  0.00     0.049 H 
BRANCH  35  38
ATOM     38  CD  GLU d   1      43.200  48.667  10.909  0.00  0.00     0.172 C 
ATOM     39  OE1 GLU d   1      42.305  47.948  11.403  0.00  0.00    -0.648 OA
ATOM     40  OE2 GLU d   1      43.926  49.401  11.610  0.00  0.00    -0.648 OA
ENDBRANCH  35  38
ENDBRANCH  32  35
ENDBRANCH  13  32
ENDBRANCH  11  13
ENDBRANCH   7   9
BRANCH   7  41
ATOM     41  CB  GLN d   1      41.287  48.340   4.621  0.00  0.00    -0.030 C 
ATOM     42  H33 GLN d   1      41.456  47.809   5.569  0.00  0.00     0.037 H 
ATOM     43  H34 GLN d   1      41.968  47.944   3.853  0.00  0.00     0.037 H 
BRANCH  41  44
ATOM     44  CG  GLN d   1      39.863  48.074   4.175  0.00  0.00     0.011 C 
ATOM     45  H35 GLN d   1      39.734  48.470   3.157  0.00  0.00     0.047 H 
ATOM     46  H36 GLN d   1      39.177  48.593   4.861  0.00  0.00     0.047 H 
BRANCH  44  47
ATOM     47  CD  GLN d   1      39.517  46.603   4.168  0.00  0.00     0.215 C 
ATOM     48  OE1 GLN d   1      40.243  45.785   3.610  0.00  0.00    -0.274 OA
ATOM     49  NE2 GLN d   1      38.393  46.259   4.778  0.00  0.00    -0.370 N 
ATOM     50  H37 GLN d   1      38.112  45.300   4.806  0.00  0.00     0.159 HD
ATOM     51  H38 GLN d   1      37.825  46.959   5.211  0.00  0.00     0.159 HD
ENDBRANCH  44  47
ENDBRANCH  41  44
ENDBRANCH   7  41
ENDBRANCH   5   7
ENDBRANCH   1   3
BRANCH   1  52
ATOM     52  CB  ILE d   1      42.448  53.282   1.792  0.00  0.00    -0.030 C 
ATOM     53  H22 ILE d   1      42.727  54.092   2.482  0.00  0.00     0.043 H 
BRANCH  52  54
ATOM     54  CG1 ILE d   1      42.203  53.882   0.410  0.00  0.00    -0.063 C 
ATOM     55  H23 ILE d   1      41.332  54.551   0.472  0.00  0.00     0.033 H 
ATOM     56  H24 ILE d   1      41.987  53.062  -0.291  0.00  0.00     0.033 H 
BRANCH  54  57
ATOM     57  CD1 ILE d   1      43.365  54.666  -0.123  0.00  0.00    -0.076 C 
ATOM     58  H28 ILE d   1      43.113  55.064  -1.117  0.00  0.00     0.027 H 
ATOM     59  H29 ILE d   1      44.244  54.010  -0.203  0.00  0.00     0.027 H 
ATOM     60  H30 ILE d   1      43.590  55.499   0.560  0.00  0.00     0.027 H 
ENDBRANCH  54  57
ENDBRANCH  52  54
BRANCH  52  61
ATOM     61  CG2 ILE d   1      43.587  52.259   1.765  0.00  0.00    -0.071 C 
ATOM     62  H25 ILE d   1      43.735  51.849   2.775  0.00  0.00     0.028 H 
ATOM     63  H26 ILE d   1      44.513  52.749   1.429  0.00  0.00     0.028 H 
ATOM     64  H27 ILE d   1      43.332  51.444   1.072  0.00  0.00     0.028 H 
ENDBRANCH  52  61
ENDBRANCH   1  52
BRANCH   1  65
ATOM     65  N   ILE d   1      40.106  53.632   2.510  0.00  0.00    -0.346 N 
ATOM     66  H20 ILE d   1      40.308  54.433   3.073  0.00  0.00     0.163 HD
ATOM     67  C   PRO d   1      38.898  53.502   1.974  0.00  0.00     0.241 C 
ATOM     68  O   PRO d   1      38.588  52.558   1.248  0.00  0.00    -0.271 OA
BRANCH  67  69
ATOM     69  CA  PRO d   1      37.870  54.581   2.299  0.00  0.00     0.091 C 
ATOM     70  N   PRO d   1      36.934  54.632   1.173  0.00  0.00    -0.337 N 
ATOM     71  CD  PRO d   1      35.613  54.130   1.575  0.00  0.00    -0.001 C 
ATOM     72  C   TYR d   1      37.192  55.025  -0.081  0.00  0.00     0.243 C 
ATOM     73  CG  PRO d   1      35.606  54.411   3.024  0.00  0.00    -0.048 C 
ATOM     74  H18 PRO d   1      34.806  54.671   1.059  0.00  0.00     0.064 H 
ATOM     75  H19 PRO d   1      35.518  53.052   1.376  0.00  0.00     0.064 H 
ATOM     76  CB  PRO d   1      36.989  54.138   3.471  0.00  0.00    -0.036 C 
ATOM     77  H16 PRO d   1      35.338  55.461   3.213  0.00  0.00     0.035 H 
ATOM     78  H17 PRO d   1      34.894  53.752   3.543  0.00  0.00     0.035 H 
ATOM     79  H14 PRO d   1      37.226  54.718   4.375  0.00  0.00     0.036 H 
ATOM     80  H15 PRO d   1      37.126  53.066   3.676  0.00  0.00     0.036 H 
ATOM     81  O   TYR d   1      38.302  55.426  -0.430  0.00  0.00    -0.271 OA
ATOM     82  H13 PRO d   1      38.355  55.549   2.491  0.00  0.00     0.087 H 
BRANCH  72  83
ATOM     83  CA  TYR d   1      36.032  54.967  -1.066  0.00  0.00     0.093 C 
ATOM     84  H5  TYR d   1      35.094  55.118  -0.511  0.00  0.00     0.088 H 
BRANCH  83  85
ATOM     85  CB  TYR d   1      35.999  53.574  -1.718  0.00  0.00    -0.014 C 
ATOM     86  H6  TYR d   1      36.100  52.820  -0.924  0.00  0.00     0.043 H 
ATOM     87  H7  TYR d   1      36.852  53.497  -2.408  0.00  0.00     0.043 H 
BRANCH  85  88
ATOM     88  CG  TYR d   1      34.734  53.276  -2.495  0.00  0.00    -0.056 A 
ATOM     89  CD2 TYR d   1      33.506  53.801  -2.089  0.00  0.00    -0.074 A 
ATOM     90  CE2 TYR d   1      32.342  53.554  -2.803  0.00  0.00    -0.051 A 
ATOM     91  H9  TYR d   1      33.461  54.415  -1.197  0.00  0.00     0.084 H 
ATOM     92  CZ  TYR d   1      32.393  52.774  -3.941  0.00  0.00     0.065 A 
ATOM     93  H11 TYR d   1      31.399  53.971  -2.469  0.00  0.00     0.087 H 
ATOM     94  CE1 TYR d   1      33.601  52.232  -4.370  0.00  0.00    -0.051 A 
ATOM     95  CD1 TYR d   1      34.763  52.484  -3.645  0.00  0.00    -0.074 A 
ATOM     96  H10 TYR d   1      33.637  51.618  -5.263  0.00  0.00     0.087 H 
ATOM     97  H8  TYR d   1      35.703  52.059  -3.978  0.00  0.00     0.084 H 
BRANCH  92  98
ATOM     98  OH  TYR d   1      31.233  52.551  -4.648  0.00  0.00    -0.361 OA
ATOM     99  H12 TYR d   1      31.060  51.618  -4.684  0.00  0.00     0.217 HD
ENDBRANCH  92  98
ENDBRANCH  85  88
ENDBRANCH  83  85
BRANCH  83 100
ATOM    100  N   TYR d   1      36.135  56.010  -2.076  0.00  0.00    -0.348 N 
ATOM    101  H4  TYR d   1      36.586  55.807  -2.945  0.00  0.00     0.163 HD
ATOM    102  C   ACE d   1      35.641  57.228  -1.867  0.00  0.00     0.214 C 
ATOM    103  O   ACE d   1      35.065  57.547  -0.823  0.00  0.00    -0.274 OA
BRANCH 102 104
ATOM    104  CH3 ACE d   1      35.810  58.239  -2.997  0.00  0.00    -0.003 C 
ATOM    105  H1  ACE d   1      36.344  57.767  -3.834  0.00  0.00     0.040 H 
ATOM    106  H2  ACE d   1      36.387  59.102  -2.634  0.00  0.00     0.040 H 
ATOM    107  H3  ACE d   1      34.820  58.577  -3.338  0.00  0.00     0.040 H 
ENDBRANCH 102 104
ENDBRANCH  83 100
ENDBRANCH  72  83
ENDBRANCH  67  69
ENDBRANCH   1  65
TORSDOF 28
