REMARK  4 active torsions:
REMARK  status: ('A' for Active; 'I' for Inactive)
REMARK    1  A    between atoms: C3_3  and  O18_20 
REMARK    2  A    between atoms: C6_8  and  O17_19 
REMARK    3  A    between atoms: N10_12  and  C19_21 
REMARK    4  A    between atoms: O17_19  and  C16_18 
ROOT
ATOM      1  C1  GNT d   1       2.553  67.316  62.605  0.00  0.00    -0.089 C 
ATOM      2  C2  GNT d   1       2.729  67.755  61.329  0.00  0.00    -0.078 C 
ATOM      3  C3  GNT d   1       4.099  67.898  60.675  0.00  0.00     0.054 C 
ATOM      4  C4  GNT d   1       5.217  68.040  61.762  0.00  0.00    -0.012 C 
ATOM      5  C41 GNT d   1       5.100  66.912  62.838  0.00  0.00     0.062 C 
ATOM      6  C42 GNT d   1       3.694  66.926  63.583  0.00  0.00     0.036 C 
ATOM      7  O5  GNT d   1       5.283  65.577  62.290  0.00  0.00    -0.341 OA
ATOM      8  C6  GNT d   1       4.666  63.381  63.229  0.00  0.00     0.102 A 
ATOM      9  C7  GNT d   1       3.804  62.676  64.149  0.00  0.00    -0.047 A 
ATOM     10  C8  GNT d   1       2.843  63.381  64.937  0.00  0.00    -0.072 A 
ATOM     11  C9  GNT d   1       1.682  65.588  65.673  0.00  0.00     0.107 C 
ATOM     12  N10 GNT d   1       2.290  66.659  66.531  0.00  0.00    -0.071 N 
ATOM     13  C11 GNT d   1       2.588  67.939  65.779  0.00  0.00     0.085 C 
ATOM     14  C12 GNT d   1       3.837  67.841  64.855  0.00  0.00    -0.026 C 
ATOM     15  C13 GNT d   1       4.519  64.785  63.142  0.00  0.00     0.110 A 
ATOM     16  C14 GNT d   1       3.576  65.464  63.921  0.00  0.00     0.001 A 
ATOM     17  C15 GNT d   1       2.710  64.795  64.843  0.00  0.00    -0.022 A 
ATOM     18  H1  GNT d   1       1.530  67.231  62.969  0.00  0.00     0.078 H 
ATOM     19  H2  GNT d   1       1.847  68.017  60.746  0.00  0.00     0.080 H 
ATOM     20  H3  GNT d   1       4.104  68.798  60.042  0.00  0.00     0.089 H 
ATOM     21  H4  GNT d   1       5.117  69.019  62.255  0.00  0.00     0.041 H 
ATOM     22  H5  GNT d   1       6.202  67.973  61.276  0.00  0.00     0.041 H 
ATOM     23  H6  GNT d   1       5.889  67.090  63.583  0.00  0.00     0.086 H 
ATOM     24  H7  GNT d   1       3.887  61.599  64.243  0.00  0.00     0.087 H 
ATOM     25  H8  GNT d   1       2.204  62.830  65.618  0.00  0.00     0.084 H 
ATOM     26  H9  GNT d   1       0.969  66.061  64.981  0.00  0.00     0.083 H 
ATOM     27  H10 GNT d   1       1.147  64.883  66.326  0.00  0.00     0.083 H 
ATOM     28  H11 GNT d   1       3.162  66.304  66.891  0.00  0.00     0.279 HD
ATOM     29  H12 GNT d   1       2.759  68.741  66.512  0.00  0.00     0.076 H 
ATOM     30  H13 GNT d   1       1.715  68.189  65.159  0.00  0.00     0.076 H 
ATOM     31  H14 GNT d   1       4.080  68.857  64.511  0.00  0.00     0.037 H 
ATOM     32  H15 GNT d   1       4.670  67.449  65.458  0.00  0.00     0.037 H 
ENDROOT
BRANCH   8  33
ATOM     33  O17 GNT d   1       5.639  62.766  62.418  0.00  0.00    -0.353 OA
BRANCH  33  34
ATOM     34  C16 GNT d   1       5.872  61.344  62.420  0.00  0.00     0.010 C 
ATOM     35  H16 GNT d   1       6.676  61.103  61.709  0.00  0.00     0.066 H 
ATOM     36  H17 GNT d   1       4.951  60.821  62.123  0.00  0.00     0.066 H 
ATOM     37  H18 GNT d   1       6.167  61.022  63.430  0.00  0.00     0.066 H 
ENDBRANCH  33  34
ENDBRANCH   8  33
BRANCH  12  38
ATOM     38  C19 GNT d   1       1.386  66.958  67.687  0.00  0.00     0.067 C 
ATOM     39  H20 GNT d   1       1.170  66.028  68.233  0.00  0.00     0.068 H 
ATOM     40  H21 GNT d   1       0.446  67.392  67.315  0.00  0.00     0.068 H 
ATOM     41  H22 GNT d   1       1.878  67.674  68.362  0.00  0.00     0.068 H 
ENDBRANCH  12  38
BRANCH   3  42
ATOM     42  O18 GNT d   1       4.341  66.739  59.851  0.00  0.00    -0.392 OA
ATOM     43  H19 GNT d   1       4.344  65.960  60.395  0.00  0.00     0.210 HD
ENDBRANCH   3  42
TORSDOF 4
