REMARK  2 active torsions:
REMARK  status: ('A' for Active; 'I' for Inactive)
REMARK    1  A    between atoms: C3_3  and  N15_15 
REMARK    2  A    between atoms: C6_6  and  N16_16 
ROOT
ATOM      1  C1  PRL d   1     -61.717 -45.628   3.267  0.00  0.00    -0.069 A 
ATOM      2  C2  PRL d   1     -61.807 -45.726   1.891  0.00  0.00    -0.057 A 
ATOM      3  C3  PRL d   1     -62.932 -46.269   1.315  0.00  0.00     0.028 A 
ATOM      4  C4  PRL d   1     -63.973 -46.714   2.093  0.00  0.00    -0.029 A 
ATOM      5  C5  PRL d   1     -65.923 -47.455   6.320  0.00  0.00    -0.029 A 
ATOM      6  C6  PRL d   1     -65.882 -47.382   7.691  0.00  0.00     0.028 A 
ATOM      7  C7  PRL d   1     -64.767 -46.837   8.324  0.00  0.00    -0.057 A 
ATOM      8  C8  PRL d   1     -63.696 -46.367   7.579  0.00  0.00    -0.069 A 
ATOM      9  C9  PRL d   1     -62.683 -45.984   5.436  0.00  0.00    -0.059 A 
ATOM     10  N10 PRL d   1     -64.927 -47.072   4.221  0.00  0.00    -0.247 NA
ATOM     11  C11 PRL d   1     -63.881 -46.619   3.460  0.00  0.00     0.070 A 
ATOM     12  C12 PRL d   1     -63.733 -46.441   6.216  0.00  0.00    -0.006 A 
ATOM     13  C13 PRL d   1     -62.749 -46.067   4.064  0.00  0.00    -0.006 A 
ATOM     14  C14 PRL d   1     -64.868 -46.991   5.590  0.00  0.00     0.070 A 
ATOM     15  H1  PRL d   1     -60.829 -45.203   3.720  0.00  0.00     0.085 H 
ATOM     16  H2  PRL d   1     -60.993 -45.376   1.267  0.00  0.00     0.086 H 
ATOM     17  H3  PRL d   1     -64.859 -47.136   1.632  0.00  0.00     0.090 H 
ATOM     18  H4  PRL d   1     -66.787 -47.878   5.822  0.00  0.00     0.090 H 
ATOM     19  H5  PRL d   1     -64.737 -46.780   9.406  0.00  0.00     0.086 H 
ATOM     20  H6  PRL d   1     -62.832 -45.942   8.077  0.00  0.00     0.085 H 
ATOM     21  H7  PRL d   1     -61.805 -45.559   5.909  0.00  0.00     0.086 H 
ENDROOT
BRANCH   3  22
ATOM     22  N15 PRL d   1     -63.056 -46.382  -0.018  0.00  0.00    -0.399 N 
ATOM     23  H8  PRL d   1     -62.297 -46.060  -0.635  0.00  0.00     0.156 HD
ATOM     24  H9  PRL d   1     -63.910 -46.791  -0.423  0.00  0.00     0.156 HD
ENDBRANCH   3  22
BRANCH   6  25
ATOM     25  N16 PRL d   1     -66.940 -47.848   8.389  0.00  0.00    -0.399 N 
ATOM     26  H10 PRL d   1     -67.750 -48.245   7.892  0.00  0.00     0.156 HD
ATOM     27  H11 PRL d   1     -66.937 -47.806   9.418  0.00  0.00     0.156 HD
ENDBRANCH   6  25
TORSDOF 2
