REMARK  2 active torsions:
REMARK  status: ('A' for Active; 'I' for Inactive)
REMARK    1  A    between atoms: C3_14  and  N15_26 
REMARK    2  A    between atoms: C6_17  and  N16_27 
ROOT
ATOM      1  H1  PRL d   1     -60.856 -44.783   3.123  0.00  0.00     0.085 H 
ATOM      2  H2  PRL d   1     -61.310 -45.100   0.712  0.00  0.00     0.086 H 
ATOM      3  H3  PRL d   1     -65.140 -46.760   1.591  0.00  0.00     0.090 H 
ATOM      4  H4  PRL d   1     -66.657 -47.246   6.000  0.00  0.00     0.090 H 
ATOM      5  H5  PRL d   1     -64.258 -45.986   9.307  0.00  0.00     0.086 H 
ATOM      6  H6  PRL d   1     -62.480 -45.247   7.763  0.00  0.00     0.085 H 
ATOM      7  H7  PRL d   1     -61.633 -44.994   5.455  0.00  0.00     0.086 H 
ATOM      8  C1  PRL d   1     -61.795 -45.216   2.798  0.00  0.00    -0.069 A 
ATOM      9  C2  PRL d   1     -62.053 -45.395   1.444  0.00  0.00    -0.057 A 
ATOM     10  C3  PRL d   1     -63.253 -45.948   1.022  0.00  0.00     0.028 A 
ATOM     11  C4  PRL d   1     -64.205 -46.328   1.929  0.00  0.00    -0.029 A 
ATOM     12  C5  PRL d   1     -65.748 -46.804   6.391  0.00  0.00    -0.029 A 
ATOM     13  C6  PRL d   1     -65.582 -46.652   7.750  0.00  0.00     0.028 A 
ATOM     14  C7  PRL d   1     -64.396 -46.098   8.238  0.00  0.00    -0.057 A 
ATOM     15  C8  PRL d   1     -63.388 -45.688   7.368  0.00  0.00    -0.069 A 
ATOM     16  C9  PRL d   1     -62.554 -45.436   5.093  0.00  0.00    -0.059 A 
ATOM     17  N10 PRL d   1     -64.940 -46.555   4.169  0.00  0.00    -0.247 NA
ATOM     18  C11 PRL d   1     -63.965 -46.157   3.275  0.00  0.00     0.070 A 
ATOM     19  C12 PRL d   1     -63.541 -45.841   6.011  0.00  0.00    -0.006 A 
ATOM     20  C13 PRL d   1     -62.750 -45.597   3.731  0.00  0.00    -0.006 A 
ATOM     21  C14 PRL d   1     -64.751 -46.391   5.529  0.00  0.00     0.070 A 
ENDROOT
BRANCH  10  22
ATOM     22  N15 PRL d   1     -63.538 -46.136  -0.275  0.00  0.00    -0.399 N 
ATOM     23  H8  PRL d   1     -62.854 -45.867  -0.997  0.00  0.00     0.156 HD
ATOM     24  H9  PRL d   1     -64.440 -46.550  -0.549  0.00  0.00     0.156 HD
ENDBRANCH  10  22
BRANCH  13  25
ATOM     25  N16 PRL d   1     -66.578 -47.058   8.571  0.00  0.00    -0.399 N 
ATOM     26  H10 PRL d   1     -67.439 -47.462   8.175  0.00  0.00     0.156 HD
ATOM     27  H11 PRL d   1     -66.475 -46.963   9.591  0.00  0.00     0.156 HD
ENDBRANCH  13  25
TORSDOF 2
