REMARK WARNING: 32 MAX_TORS EXCEEDED!!!
REMARK  42 active torsions:
REMARK  status: ('A' for Active; 'I' for Inactive)
REMARK    1  A    between atoms: N_1  and  CA_2 
REMARK    2  A    between atoms: CA_2  and  C_3 
REMARK    3  A    between atoms: CA_2  and  CB_5 
REMARK       I    between atoms: C_3  and  N_13 
REMARK    4  A    between atoms: CA_14  and  C_15 
REMARK       I    between atoms: C_15  and  N_27 
REMARK    5  A    between atoms: CA_28  and  C_29 
REMARK       I    between atoms: C_29  and  N_41 
REMARK    6  A    between atoms: N_41  and  CA_42 
REMARK    7  A    between atoms: CA_42  and  C_43 
REMARK    8  A    between atoms: CA_42  and  CB_45 
REMARK       I    between atoms: C_43  and  N_60 
REMARK    9  A    between atoms: CB_45  and  CG_46 
REMARK   10  A    between atoms: CG_46  and  CD1_47 
REMARK   11  A    between atoms: CG_46  and  CD2_48 
REMARK   12  A    between atoms: CA_61  and  C_62 
REMARK       I    between atoms: C_62  and  N_74 
REMARK   13  A    between atoms: CA_75  and  C_76 
REMARK       I    between atoms: C_76  and  N_88 
REMARK   14  A    between atoms: N_88  and  CA_89 
REMARK   15  A    between atoms: CA_89  and  C_90 
REMARK   16  A    between atoms: CA_89  and  CB_92 
REMARK       I    between atoms: C_90  and  N_112 
REMARK   17  A    between atoms: CB_92  and  CG_93 
REMARK   18  A    between atoms: CG_93  and  CD_94 
REMARK   19  A    between atoms: CD_94  and  NE_95 
REMARK       I    between atoms: NE_95  and  CZ_96 
REMARK       I    between atoms: CZ_96  and  NH1_97 
REMARK       I    between atoms: CZ_96  and  NH2_98 
REMARK   20  A    between atoms: N_112  and  CA_113 
REMARK   21  A    between atoms: CA_113  and  C_114 
REMARK   22  A    between atoms: CA_113  and  CB_116 
REMARK       I    between atoms: C_114  and  N_126 
REMARK   23  A    between atoms: CB_116  and  CG_117 
REMARK       I    between atoms: CG_117  and  ND2_119 
REMARK   24  A    between atoms: N_126  and  CA_127 
REMARK   25  A    between atoms: CA_127  and  C_128 
REMARK   26  A    between atoms: CA_127  and  CB_130 
REMARK       I    between atoms: C_128  and  N_150 
REMARK   27  A    between atoms: CB_130  and  CG_131 
REMARK   28  A    between atoms: CG_131  and  CD_132 
REMARK   29  A    between atoms: CD_132  and  NE_133 
REMARK       I    between atoms: NE_133  and  CZ_134 
REMARK       I    between atoms: CZ_134  and  NH1_135 
REMARK       I    between atoms: CZ_134  and  NH2_136 
REMARK   30  A    between atoms: CA_151  and  C_152 
REMARK       I    between atoms: C_152  and  N_164 
REMARK   31  A    between atoms: N_164  and  CA_165 
REMARK   32  A    between atoms: CA_165  and  C_166 
REMARK   33  A    between atoms: CA_165  and  CB_168 
REMARK       I    between atoms: C_166  and  N_188 
REMARK   34  A    between atoms: CB_168  and  CG_169 
REMARK   35  A    between atoms: CG_169  and  CD_170 
REMARK   36  A    between atoms: CD_170  and  NE_171 
REMARK       I    between atoms: NE_171  and  CZ_172 
REMARK       I    between atoms: CZ_172  and  NH1_173 
REMARK   37  A    between atoms: N_188  and  CA_189 
REMARK   38  A    between atoms: CA_189  and  C_190 
REMARK   39  A    between atoms: CA_189  and  CB_192 
REMARK   40  A    between atoms: CB_192  and  CG_193 
REMARK   41  A    between atoms: CG_193  and  CD1_194 
REMARK   42  A    between atoms: CG_193  and  CD2_195 
ROOT
ATOM      1  CA  ARG d   1      62.063  -2.432  -5.027  0.00  0.00     0.089 C 
ATOM      2  H48 ARG d   1      61.357  -1.802  -4.465  0.00  0.00     0.087 H 
ENDROOT
BRANCH   1   3
ATOM      3  N   ARG d   1      62.284  -1.835  -6.373  0.00  0.00    -0.346 N 
ATOM      4  C   PRO d   1      62.912  -0.697  -6.484  0.00  0.00     0.241 C 
ATOM      5  O   PRO d   1      63.324  -0.107  -5.504  0.00  0.00    -0.271 OA
ATOM      6  H47 ARG d   1      61.952  -2.305  -7.190  0.00  0.00     0.163 HD
BRANCH   4   7
ATOM      7  CA  PRO d   1      63.100  -0.124  -7.891  0.00  0.00     0.091 C 
ATOM      8  N   PRO d   1      62.565   1.248  -7.953  0.00  0.00    -0.337 N 
ATOM      9  C   PRO d   1      61.284   1.504  -8.014  0.00  0.00     0.243 C 
ATOM     10  CD  PRO d   1      63.599   2.303  -7.937  0.00  0.00    -0.001 C 
ATOM     11  O   PRO d   1      60.422   0.648  -8.025  0.00  0.00    -0.271 OA
ATOM     12  CG  PRO d   1      64.929   1.526  -7.903  0.00  0.00    -0.048 C 
ATOM     13  H45 PRO d   1      63.495   2.938  -7.045  0.00  0.00     0.064 H 
ATOM     14  H46 PRO d   1      63.534   2.927  -8.841  0.00  0.00     0.064 H 
ATOM     15  CB  PRO d   1      64.584   0.052  -8.222  0.00  0.00    -0.036 C 
ATOM     16  H43 PRO d   1      65.622   1.926  -8.658  0.00  0.00     0.035 H 
ATOM     17  H44 PRO d   1      65.388   1.602  -6.906  0.00  0.00     0.035 H 
ATOM     18  H41 PRO d   1      64.764  -0.160  -9.286  0.00  0.00     0.036 H 
ATOM     19  H42 PRO d   1      65.195  -0.624  -7.605  0.00  0.00     0.036 H 
ATOM     20  H40 PRO d   1      62.607  -0.777  -8.627  0.00  0.00     0.087 H 
BRANCH   9  21
ATOM     21  CA  PRO d   1      60.909   2.990  -8.063  0.00  0.00     0.092 C 
ATOM     22  N   PRO d   1      59.467   3.150  -8.317  0.00  0.00    -0.337 N 
ATOM     23  C   LEU d   1      58.944   3.032  -9.514  0.00  0.00     0.243 C 
ATOM     24  CD  PRO d   1      58.673   3.452  -7.109  0.00  0.00    -0.001 C 
ATOM     25  O   LEU d   1      59.595   2.784 -10.510  0.00  0.00    -0.271 OA
ATOM     26  CG  PRO d   1      59.725   3.627  -5.998  0.00  0.00    -0.048 C 
ATOM     27  H38 PRO d   1      57.991   2.622  -6.873  0.00  0.00     0.064 H 
ATOM     28  H39 PRO d   1      58.092   4.376  -7.245  0.00  0.00     0.064 H 
ATOM     29  CB  PRO d   1      61.106   3.645  -6.694  0.00  0.00    -0.036 C 
ATOM     30  H36 PRO d   1      59.558   4.573  -5.463  0.00  0.00     0.035 H 
ATOM     31  H37 PRO d   1      59.669   2.789  -5.287  0.00  0.00     0.035 H 
ATOM     32  H34 PRO d   1      61.458   4.680  -6.815  0.00  0.00     0.036 H 
ATOM     33  H35 PRO d   1      61.838   3.076  -6.102  0.00  0.00     0.036 H 
ATOM     34  H33 PRO d   1      61.507   3.498  -8.834  0.00  0.00     0.087 H 
BRANCH  23  35
ATOM     35  CA  LEU d   1      57.424   3.229  -9.611  0.00  0.00     0.090 C 
ATOM     36  H23 LEU d   1      57.025   3.507  -8.624  0.00  0.00     0.087 H 
BRANCH  35  37
ATOM     37  N   LEU d   1      57.128   4.312 -10.591  0.00  0.00    -0.346 N 
ATOM     38  C   PRO d   1      57.776   5.444 -10.527  0.00  0.00     0.241 C 
ATOM     39  O   PRO d   1      58.623   5.638  -9.678  0.00  0.00    -0.271 OA
ATOM     40  H22 LEU d   1      56.434   4.172 -11.297  0.00  0.00     0.163 HD
BRANCH  38  41
ATOM     41  CA  PRO d   1      57.424   6.521 -11.558  0.00  0.00     0.091 C 
ATOM     42  N   PRO d   1      57.429   7.854 -10.929  0.00  0.00    -0.337 N 
ATOM     43  C   PRO d   1      56.467   8.268 -10.147  0.00  0.00     0.243 C 
ATOM     44  CD  PRO d   1      58.613   8.676 -11.257  0.00  0.00    -0.001 C 
ATOM     45  O   PRO d   1      55.490   7.602  -9.869  0.00  0.00    -0.271 OA
ATOM     46  CG  PRO d   1      59.436   7.785 -12.207  0.00  0.00    -0.048 C 
ATOM     47  H20 PRO d   1      59.187   8.914 -10.349  0.00  0.00     0.064 H 
ATOM     48  H21 PRO d   1      58.314   9.609 -11.757  0.00  0.00     0.064 H 
ATOM     49  CB  PRO d   1      58.505   6.627 -12.637  0.00  0.00    -0.036 C 
ATOM     50  H18 PRO d   1      59.757   8.362 -13.087  0.00  0.00     0.035 H 
ATOM     51  H19 PRO d   1      60.320   7.389 -11.686  0.00  0.00     0.035 H 
ATOM     52  H16 PRO d   1      58.048   6.848 -13.613  0.00  0.00     0.036 H 
ATOM     53  H17 PRO d   1      59.072   5.687 -12.702  0.00  0.00     0.036 H 
ATOM     54  H15 PRO d   1      56.444   6.298 -12.005  0.00  0.00     0.087 H 
BRANCH  43  55
ATOM     55  CA  PRO d   1      56.639   9.679  -9.576  0.00  0.00     0.092 C 
ATOM     56  N   PRO d   1      55.429  10.085  -8.839  0.00  0.00    -0.337 N 
ATOM     57  C   ALA d   1      54.338  10.492  -9.439  0.00  0.00     0.250 C 
ATOM     58  CD  PRO d   1      55.556   9.990  -7.371  0.00  0.00    -0.001 C 
ATOM     59  O   ALA d   1      54.221  10.574 -10.645  0.00  0.00    -0.271 OA
ATOM     60  CG  PRO d   1      57.020   9.579  -7.142  0.00  0.00    -0.048 C 
ATOM     61  H13 PRO d   1      54.870   9.229  -6.969  0.00  0.00     0.064 H 
ATOM     62  H14 PRO d   1      55.345  10.960  -6.898  0.00  0.00     0.064 H 
ATOM     63  CB  PRO d   1      57.735   9.710  -8.507  0.00  0.00    -0.036 C 
ATOM     64  H11 PRO d   1      57.489  10.244  -6.402  0.00  0.00     0.035 H 
ATOM     65  H12 PRO d   1      57.071   8.540  -6.785  0.00  0.00     0.035 H 
ATOM     66  H9  PRO d   1      58.288  10.660  -8.557  0.00  0.00     0.036 H 
ATOM     67  H10 PRO d   1      58.432   8.872  -8.653  0.00  0.00     0.036 H 
ATOM     68  H8  PRO d   1      56.863  10.383 -10.391  0.00  0.00     0.087 H 
BRANCH  57  69
ATOM     69  CA  ALA d   1      53.173  10.870  -8.516  0.00  0.00     0.172 C 
ATOM     70  H4  ALA d   1      53.559  11.092  -7.510  0.00  0.00     0.098 H 
BRANCH  69  71
ATOM     71  N   ALA d   1      52.477  12.071  -9.058  0.00  0.00    -0.067 N 
ATOM     72  H1  ALA d   1      51.712  12.318  -8.451  0.00  0.00     0.275 HD
ATOM     73  H2  ALA d   1      52.122  11.867  -9.979  0.00  0.00     0.275 HD
ATOM     74  H3  ALA d   1      53.126  12.840  -9.111  0.00  0.00     0.275 HD
ENDBRANCH  69  71
BRANCH  69  75
ATOM     75  CB  ALA d   1      52.189   9.703  -8.439  0.00  0.00    -0.042 C 
ATOM     76  H5  ALA d   1      52.703   8.816  -8.039  0.00  0.00     0.030 H 
ATOM     77  H6  ALA d   1      51.804   9.481  -9.445  0.00  0.00     0.030 H 
ATOM     78  H7  ALA d   1      51.352   9.972  -7.777  0.00  0.00     0.030 H 
ENDBRANCH  69  75
ENDBRANCH  57  69
ENDBRANCH  43  55
ENDBRANCH  38  41
ENDBRANCH  35  37
BRANCH  35  79
ATOM     79  CB  LEU d   1      56.772   1.926 -10.078  0.00  0.00    -0.035 C 
ATOM     80  H24 LEU d   1      57.199   1.081  -9.517  0.00  0.00     0.037 H 
ATOM     81  H25 LEU d   1      56.961   1.786 -11.152  0.00  0.00     0.037 H 
BRANCH  79  82
ATOM     82  CG  LEU d   1      55.264   1.991  -9.831  0.00  0.00    -0.059 C 
ATOM     83  H26 LEU d   1      54.835   2.825 -10.406  0.00  0.00     0.038 H 
BRANCH  82  84
ATOM     84  CD1 LEU d   1      54.617   0.678 -10.276  0.00  0.00    -0.073 C 
ATOM     85  H27 LEU d   1      53.532   0.725 -10.098  0.00  0.00     0.028 H 
ATOM     86  H28 LEU d   1      55.047  -0.156  -9.702  0.00  0.00     0.028 H 
ATOM     87  H29 LEU d   1      54.806   0.521 -11.348  0.00  0.00     0.028 H 
ENDBRANCH  82  84
BRANCH  82  88
ATOM     88  CD2 LEU d   1      54.996   2.209  -8.339  0.00  0.00    -0.073 C 
ATOM     89  H30 LEU d   1      55.461   3.153  -8.017  0.00  0.00     0.028 H 
ATOM     90  H31 LEU d   1      55.424   1.375  -7.764  0.00  0.00     0.028 H 
ATOM     91  H32 LEU d   1      53.911   2.256  -8.164  0.00  0.00     0.028 H 
ENDBRANCH  82  88
ENDBRANCH  79  82
ENDBRANCH  35  79
ENDBRANCH  23  35
ENDBRANCH   9  21
ENDBRANCH   4   7
ENDBRANCH   1   3
BRANCH   1  92
ATOM     92  C   ARG d   1      63.385  -2.508  -4.266  0.00  0.00     0.241 C 
ATOM     93  O   ARG d   1      64.281  -3.241  -4.634  0.00  0.00    -0.271 OA
ATOM     94  N   ASN d   1      63.491  -1.756  -3.200  0.00  0.00    -0.346 N 
ATOM     95  H60 ASN d   1      62.723  -1.172  -2.937  0.00  0.00     0.163 HD
BRANCH  94  96
ATOM     96  CA  ASN d   1      64.735  -1.749  -2.365  0.00  0.00     0.097 C 
ATOM     97  H61 ASN d   1      64.863  -0.750  -1.922  0.00  0.00     0.088 H 
BRANCH  96  98
ATOM     98  C   ASN d   1      65.964  -2.077  -3.218  0.00  0.00     0.241 C 
ATOM     99  O   ASN d   1      66.579  -1.207  -3.801  0.00  0.00    -0.271 OA
ATOM    100  N   ARG d   1      66.325  -3.330  -3.291  0.00  0.00    -0.346 N 
ATOM    101  H66 ARG d   1      65.802  -4.029  -2.803  0.00  0.00     0.163 HD
BRANCH 100 102
ATOM    102  CA  ARG d   1      67.513  -3.722  -4.099  0.00  0.00     0.089 C 
ATOM    103  H67 ARG d   1      67.987  -2.822  -4.517  0.00  0.00     0.087 H 
BRANCH 102 104
ATOM    104  C   ARG d   1      67.070  -4.645  -5.238  0.00  0.00     0.243 C 
ATOM    105  O   ARG d   1      65.975  -5.171  -5.217  0.00  0.00    -0.271 OA
ATOM    106  N   PRO d   1      67.940  -4.814  -6.201  0.00  0.00    -0.337 N 
ATOM    107  CA  PRO d   1      67.673  -5.671  -7.369  0.00  0.00     0.091 C 
ATOM    108  CD  PRO d   1      69.269  -4.169  -6.214  0.00  0.00    -0.001 C 
ATOM    109  CB  PRO d   1      68.737  -5.239  -8.382  0.00  0.00    -0.036 C 
ATOM    110  H79 PRO d   1      66.661  -5.498  -7.764  0.00  0.00     0.087 H 
ATOM    111  CG  PRO d   1      69.879  -4.589  -7.565  0.00  0.00    -0.048 C 
ATOM    112  H80 PRO d   1      68.314  -4.512  -9.091  0.00  0.00     0.036 H 
ATOM    113  H81 PRO d   1      69.114  -6.113  -8.934  0.00  0.00     0.036 H 
ATOM    114  H82 PRO d   1      70.271  -3.708  -8.095  0.00  0.00     0.035 H 
ATOM    115  H83 PRO d   1      70.692  -5.313  -7.406  0.00  0.00     0.035 H 
ATOM    116  H84 PRO d   1      69.886  -4.530  -5.378  0.00  0.00     0.064 H 
ATOM    117  H85 PRO d   1      69.172  -3.075  -6.153  0.00  0.00     0.064 H 
BRANCH 107 118
ATOM    118  C   PRO d   1      67.834  -7.147  -6.996  0.00  0.00     0.241 C 
ATOM    119  O   PRO d   1      68.931  -7.656  -6.920  0.00  0.00    -0.271 OA
ATOM    120  N   ARG d   1      66.739  -7.826  -6.763  0.00  0.00    -0.346 N 
ATOM    121  H86 ARG d   1      65.853  -7.367  -6.836  0.00  0.00     0.163 HD
BRANCH 120 122
ATOM    122  CA  ARG d   1      66.785  -9.276  -6.389  0.00  0.00     0.089 C 
ATOM    123  H87 ARG d   1      65.866  -9.520  -5.836  0.00  0.00     0.087 H 
BRANCH 122 124
ATOM    124  C   ARG d   1      67.991  -9.559  -5.480  0.00  0.00     0.241 C 
ATOM    125  O   ARG d   1      67.880  -9.528  -4.271  0.00  0.00    -0.271 OA
ATOM    126  N   LEU d   1      69.141  -9.836  -6.039  0.00  0.00    -0.345 N 
ATOM    127  H99 LEU d   1      69.221  -9.858  -7.035  0.00  0.00     0.163 HD
BRANCH 126 128
ATOM    128  CA  LEU d   1      70.331 -10.118  -5.188  0.00  0.00     0.096 C 
ATOM    129 0H10 LEU d   1      70.012 -10.246  -4.143  0.00  0.00     0.089 H 
BRANCH 128 130
ATOM    130  C   LEU d   1      71.314  -8.949  -5.281  0.00  0.00     0.196 C 
ATOM    131  O   LEU d   1      71.422  -8.213  -4.314  0.00  0.00    -0.646 OA
ATOM    132  OXT LEU d   1      71.942  -8.810  -6.317  0.00  0.00    -0.646 OA
ENDBRANCH 128 130
BRANCH 128 133
ATOM    133  CB  LEU d   1      71.015 -11.399  -5.672  0.00  0.00    -0.034 C 
ATOM    134 1H10 LEU d   1      71.540 -11.875  -4.830  0.00  0.00     0.037 H 
ATOM    135 2H10 LEU d   1      71.739 -11.152  -6.463  0.00  0.00     0.037 H 
BRANCH 133 136
ATOM    136  CG  LEU d   1      69.964 -12.362  -6.227  0.00  0.00    -0.059 C 
ATOM    137 3H10 LEU d   1      69.380 -11.856  -7.010  0.00  0.00     0.038 H 
BRANCH 136 138
ATOM    138  CD1 LEU d   1      70.658 -13.589  -6.822  0.00  0.00    -0.073 C 
ATOM    139 4H10 LEU d   1      69.901 -14.281  -7.221  0.00  0.00     0.028 H 
ATOM    140 5H10 LEU d   1      71.242 -14.096  -6.039  0.00  0.00     0.028 H 
ATOM    141 6H10 LEU d   1      71.330 -13.273  -7.634  0.00  0.00     0.028 H 
ENDBRANCH 136 138
BRANCH 136 142
ATOM    142  CD2 LEU d   1      69.030 -12.803  -5.097  0.00  0.00    -0.073 C 
ATOM    143 7H10 LEU d   1      68.531 -11.921  -4.669  0.00  0.00     0.028 H 
ATOM    144 8H10 LEU d   1      69.615 -13.309  -4.315  0.00  0.00     0.028 H 
ATOM    145 9H10 LEU d   1      68.274 -13.495  -5.495  0.00  0.00     0.028 H 
ENDBRANCH 136 142
ENDBRANCH 133 136
ENDBRANCH 128 133
ENDBRANCH 126 128
ENDBRANCH 122 124
BRANCH 122 146
ATOM    146  CB  ARG d   1      66.849 -10.169  -7.646  0.00  0.00    -0.036 C 
ATOM    147  H88 ARG d   1      66.061 -10.934  -7.583  0.00  0.00     0.036 H 
ATOM    148  H89 ARG d   1      67.833 -10.658  -7.689  0.00  0.00     0.036 H 
BRANCH 146 149
ATOM    149  CG  ARG d   1      66.644  -9.344  -8.925  0.00  0.00    -0.048 C 
ATOM    150  H90 ARG d   1      66.104  -8.417  -8.681  0.00  0.00     0.035 H 
ATOM    151  H91 ARG d   1      66.058  -9.929  -9.649  0.00  0.00     0.035 H 
BRANCH 149 152
ATOM    152  CD  ARG d   1      68.005  -8.997  -9.532  0.00  0.00     0.009 C 
ATOM    153  H92 ARG d   1      68.577  -8.380  -8.823  0.00  0.00     0.064 H 
ATOM    154  H93 ARG d   1      67.858  -8.439 -10.468  0.00  0.00     0.064 H 
BRANCH 152 155
ATOM    155  NE  ARG d   1      68.753 -10.255  -9.814  0.00  0.00    -0.227 N 
ATOM    156  CZ  ARG d   1      70.046 -10.225  -9.994  0.00  0.00     0.665 C 
ATOM    157  NH1 ARG d   1      70.693  -9.092  -9.925  0.00  0.00    -0.235 N 
ATOM    158  NH2 ARG d   1      70.693 -11.331 -10.240  0.00  0.00    -0.235 N 
ATOM    159  H95 ARG d   1      71.713  -9.072 -10.068  0.00  0.00     0.174 HD
ATOM    160  H96 ARG d   1      70.183  -8.219  -9.728  0.00  0.00     0.174 HD
ATOM    161  H97 ARG d   1      70.183 -12.225 -10.294  0.00  0.00     0.174 HD
ATOM    162  H98 ARG d   1      71.713 -11.311 -10.380  0.00  0.00     0.174 HD
ATOM    163  H94 ARG d   1      68.248 -11.151  -9.867  0.00  0.00     0.177 HD
ENDBRANCH 152 155
ENDBRANCH 149 152
ENDBRANCH 146 149
ENDBRANCH 122 146
ENDBRANCH 120 122
ENDBRANCH 107 118
ENDBRANCH 102 104
BRANCH 102 164
ATOM    164  CB  ARG d   1      68.513  -4.461  -3.206  0.00  0.00    -0.036 C 
ATOM    165  H68 ARG d   1      69.168  -3.731  -2.708  0.00  0.00     0.036 H 
ATOM    166  H69 ARG d   1      69.121  -5.140  -3.821  0.00  0.00     0.036 H 
BRANCH 164 167
ATOM    167  CG  ARG d   1      67.757  -5.271  -2.149  0.00  0.00    -0.048 C 
ATOM    168  H70 ARG d   1      66.781  -5.580  -2.552  0.00  0.00     0.035 H 
ATOM    169  H71 ARG d   1      67.604  -4.652  -1.252  0.00  0.00     0.035 H 
BRANCH 167 170
ATOM    170  CD  ARG d   1      68.573  -6.511  -1.780  0.00  0.00     0.009 C 
ATOM    171  H72 ARG d   1      69.322  -6.244  -1.020  0.00  0.00     0.064 H 
ATOM    172  H73 ARG d   1      69.081  -6.896  -2.677  0.00  0.00     0.064 H 
BRANCH 170 173
ATOM    173  NE  ARG d   1      67.665  -7.561  -1.235  0.00  0.00    -0.227 N 
ATOM    174  CZ  ARG d   1      68.040  -8.814  -1.223  0.00  0.00     0.665 C 
ATOM    175  NH1 ARG d   1      69.215  -9.154  -1.681  0.00  0.00    -0.235 N 
ATOM    176  NH2 ARG d   1      67.239  -9.727  -0.747  0.00  0.00    -0.235 N 
ATOM    177  H75 ARG d   1      69.506 -10.142  -1.670  0.00  0.00     0.174 HD
ATOM    178  H76 ARG d   1      69.850  -8.434  -2.054  0.00  0.00     0.174 HD
ATOM    179  H77 ARG d   1      66.312  -9.461  -0.385  0.00  0.00     0.174 HD
ATOM    180  H78 ARG d   1      67.534 -10.714  -0.733  0.00  0.00     0.174 HD
ATOM    181  H74 ARG d   1      66.740  -7.299  -0.867  0.00  0.00     0.177 HD
ENDBRANCH 170 173
ENDBRANCH 167 170
ENDBRANCH 164 167
ENDBRANCH 102 164
ENDBRANCH 100 102
ENDBRANCH  96  98
BRANCH  96 182
ATOM    182  CB  ASN d   1      64.602  -2.784  -1.246  0.00  0.00     0.036 C 
ATOM    183  H62 ASN d   1      64.322  -3.756  -1.677  0.00  0.00     0.051 H 
ATOM    184  H63 ASN d   1      63.826  -2.460  -0.537  0.00  0.00     0.051 H 
BRANCH 182 185
ATOM    185  CG  ASN d   1      65.939  -2.917  -0.513  0.00  0.00     0.217 C 
ATOM    186  OD1 ASN d   1      66.194  -3.913   0.133  0.00  0.00    -0.274 OA
ATOM    187  ND2 ASN d   1      66.810  -1.946  -0.587  0.00  0.00    -0.370 N 
ATOM    188  H64 ASN d   1      67.686  -2.023  -0.112  0.00  0.00     0.159 HD
ATOM    189  H65 ASN d   1      66.600  -1.126  -1.119  0.00  0.00     0.159 HD
ENDBRANCH 182 185
ENDBRANCH  96 182
ENDBRANCH  94  96
ENDBRANCH   1  92
BRANCH   1 190
ATOM    190  CB  ARG d   1      61.482  -3.835  -5.169  0.00  0.00    -0.036 C 
ATOM    191  H49 ARG d   1      61.360  -4.283  -4.172  0.00  0.00     0.036 H 
ATOM    192  H50 ARG d   1      62.164  -4.455  -5.769  0.00  0.00     0.036 H 
BRANCH 190 193
ATOM    193  CG  ARG d   1      60.120  -3.759  -5.863  0.00  0.00    -0.048 C 
ATOM    194  H51 ARG d   1      60.034  -2.801  -6.397  0.00  0.00     0.035 H 
ATOM    195  H52 ARG d   1      59.321  -3.833  -5.111  0.00  0.00     0.035 H 
BRANCH 193 196
ATOM    196  CD  ARG d   1      59.989  -4.912  -6.861  0.00  0.00     0.009 C 
ATOM    197  H53 ARG d   1      60.949  -5.062  -7.376  0.00  0.00     0.064 H 
ATOM    198  H54 ARG d   1      59.211  -4.671  -7.600  0.00  0.00     0.064 H 
BRANCH 196 199
ATOM    199  NE  ARG d   1      59.615  -6.157  -6.133  0.00  0.00    -0.227 N 
ATOM    200  CZ  ARG d   1      58.389  -6.333  -5.719  0.00  0.00     0.665 C 
ATOM    201  NH1 ARG d   1      57.483  -5.419  -5.942  0.00  0.00    -0.235 N 
ATOM    202  NH2 ARG d   1      58.069  -7.425  -5.081  0.00  0.00    -0.235 N 
ATOM    203  H56 ARG d   1      56.517  -5.561  -5.614  0.00  0.00     0.174 HD
ATOM    204  H57 ARG d   1      57.735  -4.556  -6.446  0.00  0.00     0.174 HD
ATOM    205  H58 ARG d   1      58.783  -8.146  -4.905  0.00  0.00     0.174 HD
ATOM    206  H59 ARG d   1      57.103  -7.566  -4.754  0.00  0.00     0.174 HD
ATOM    207  H55 ARG d   1      60.326  -6.881  -5.956  0.00  0.00     0.177 HD
ENDBRANCH 196 199
ENDBRANCH 193 196
ENDBRANCH 190 193
ENDBRANCH   1 190
TORSDOF 42
