REMARK WARNING: 32 MAX_TORS EXCEEDED!!!
REMARK  46 active torsions:
REMARK  status: ('A' for Active; 'I' for Inactive)
REMARK    1  A    between atoms: N_1  and  CA_2 
REMARK    2  A    between atoms: CA_2  and  C_3 
REMARK    3  A    between atoms: CA_2  and  CB_5 
REMARK       I    between atoms: C_3  and  N_19 
REMARK    4  A    between atoms: CB_5  and  CG1_6 
REMARK    5  A    between atoms: CB_5  and  CG2_7 
REMARK    6  A    between atoms: N_19  and  CA_20 
REMARK    7  A    between atoms: CA_20  and  C_21 
REMARK    8  A    between atoms: CA_20  and  CB_23 
REMARK       I    between atoms: C_21  and  N_30 
REMARK    9  A    between atoms: CB_23  and  OG_24 
REMARK   10  A    between atoms: N_30  and  CA_31 
REMARK   11  A    between atoms: CA_31  and  C_32 
REMARK   12  A    between atoms: CA_31  and  CB_34 
REMARK       I    between atoms: C_32  and  N_49 
REMARK   13  A    between atoms: CB_34  and  CG_35 
REMARK   14  A    between atoms: CG_35  and  CD1_36 
REMARK   15  A    between atoms: CG_35  and  CD2_37 
REMARK   16  A    between atoms: N_49  and  CA_50 
REMARK   17  A    between atoms: CA_50  and  C_51 
REMARK   18  A    between atoms: CA_50  and  CB_53 
REMARK       I    between atoms: C_51  and  N_59 
REMARK   19  A    between atoms: N_59  and  CA_60 
REMARK   20  A    between atoms: CA_60  and  C_61 
REMARK   21  A    between atoms: CA_60  and  CB_63 
REMARK       I    between atoms: C_61  and  N_83 
REMARK   22  A    between atoms: CB_63  and  CG_64 
REMARK   23  A    between atoms: CG_64  and  CD_65 
REMARK   24  A    between atoms: CD_65  and  NE_66 
REMARK       I    between atoms: NE_66  and  CZ_67 
REMARK       I    between atoms: CZ_67  and  NH1_68 
REMARK       I    between atoms: CZ_67  and  NH2_69 
REMARK   25  A    between atoms: N_83  and  CA_84 
REMARK   26  A    between atoms: CA_84  and  C_85 
REMARK   27  A    between atoms: CA_84  and  CB_87 
REMARK       I    between atoms: C_85  and  N_107 
REMARK   28  A    between atoms: CB_87  and  CG_88 
REMARK   29  A    between atoms: CG_88  and  CD_89 
REMARK   30  A    between atoms: CD_89  and  NE_90 
REMARK       I    between atoms: NE_90  and  CZ_91 
REMARK       I    between atoms: CZ_91  and  NH1_92 
REMARK   31  A    between atoms: CA_108  and  C_109 
REMARK       I    between atoms: C_109  and  N_121 
REMARK   32  A    between atoms: N_121  and  CA_122 
REMARK   33  A    between atoms: CA_122  and  C_123 
REMARK   34  A    between atoms: CA_122  and  CB_125 
REMARK       I    between atoms: C_123  and  N_140 
REMARK   35  A    between atoms: CB_125  and  CG_126 
REMARK   36  A    between atoms: CG_126  and  CD1_127 
REMARK   37  A    between atoms: CG_126  and  CD2_128 
REMARK   38  A    between atoms: CA_141  and  C_142 
REMARK       I    between atoms: C_142  and  N_154 
REMARK   39  A    between atoms: CA_155  and  C_156 
REMARK       I    between atoms: C_156  and  N_168 
REMARK   40  A    between atoms: N_168  and  CA_169 
REMARK   41  A    between atoms: CA_169  and  C_170 
REMARK   42  A    between atoms: CA_169  and  CB_172 
REMARK       I    between atoms: C_170  and  N_187 
REMARK   43  A    between atoms: CB_172  and  CG_173 
REMARK   44  A    between atoms: CG_173  and  CD1_174 
REMARK   45  A    between atoms: CG_173  and  CD2_175 
REMARK   46  A    between atoms: CA_188  and  C_189 
ROOT
ATOM      1  CA  ARG d   1      65.247   0.288  -0.928  0.00  0.00     0.089 C 
ATOM      2  H47 ARG d   1      66.236  -0.194  -0.909  0.00  0.00     0.087 H 
ENDROOT
BRANCH   1   3
ATOM      3  N   ARG d   1      65.122   1.215   0.229  0.00  0.00    -0.346 N 
ATOM      4  C   ARG d   1      65.894   1.072   1.270  0.00  0.00     0.241 C 
ATOM      5  O   ARG d   1      66.727   0.189   1.323  0.00  0.00    -0.271 OA
ATOM      6  H46 ARG d   1      64.444   1.950   0.208  0.00  0.00     0.163 HD
BRANCH   4   7
ATOM      7  CA  ARG d   1      65.714   2.066   2.416  0.00  0.00     0.089 C 
ATOM      8  H34 ARG d   1      65.350   3.022   2.012  0.00  0.00     0.087 H 
BRANCH   7   9
ATOM      9  N   ARG d   1      64.723   1.536   3.392  0.00  0.00    -0.346 N 
ATOM     10  C   ALA d   1      63.483   1.933   3.337  0.00  0.00     0.240 C 
ATOM     11  O   ALA d   1      63.116   2.734   2.500  0.00  0.00    -0.271 OA
ATOM     12  H33 ARG d   1      65.008   0.877   4.088  0.00  0.00     0.163 HD
BRANCH  10  13
ATOM     13  CA  ALA d   1      62.513   1.369   4.375  0.00  0.00     0.086 C 
ATOM     14  H29 ALA d   1      61.597   1.017   3.878  0.00  0.00     0.086 H 
BRANCH  13  15
ATOM     15  N   ALA d   1      63.162   0.233   5.094  0.00  0.00    -0.346 N 
ATOM     16  C   LEU d   1      63.035  -0.983   4.639  0.00  0.00     0.241 C 
ATOM     17  O   LEU d   1      62.394  -1.214   3.633  0.00  0.00    -0.271 OA
ATOM     18  H28 ALA d   1      63.694   0.404   5.924  0.00  0.00     0.163 HD
BRANCH  16  19
ATOM     19  CA  LEU d   1      63.728  -2.109   5.413  0.00  0.00     0.089 C 
ATOM     20  H18 LEU d   1      64.535  -2.526   4.793  0.00  0.00     0.087 H 
BRANCH  19  21
ATOM     21  N   LEU d   1      64.322  -1.569   6.673  0.00  0.00    -0.346 N 
ATOM     22  C   SER d   1      65.549  -1.124   6.674  0.00  0.00     0.243 C 
ATOM     23  O   SER d   1      66.223  -1.140   5.663  0.00  0.00    -0.271 OA
ATOM     24  H17 LEU d   1      63.781  -1.548   7.514  0.00  0.00     0.163 HD
BRANCH  22  25
ATOM     25  CA  SER d   1      66.116  -0.592   7.994  0.00  0.00     0.109 C 
ATOM     26  H13 SER d   1      66.893   0.156   7.778  0.00  0.00     0.090 H 
BRANCH  25  27
ATOM     27  N   SER d   1      65.037   0.043   8.806  0.00  0.00    -0.344 N 
ATOM     28  C   VAL d   1      65.350   0.875   9.761  0.00  0.00     0.249 C 
ATOM     29  O   VAL d   1      66.509   1.145  10.005  0.00  0.00    -0.271 OA
ATOM     30  H12 SER d   1      64.078  -0.168   8.619  0.00  0.00     0.163 HD
BRANCH  28  31
ATOM     31  CA  VAL d   1      64.206   1.496  10.565  0.00  0.00     0.178 C 
ATOM     32  H4  VAL d   1      63.538   2.049   9.888  0.00  0.00     0.099 H 
BRANCH  31  33
ATOM     33  N   VAL d   1      63.438   0.418  11.251  0.00  0.00    -0.066 N 
ATOM     34  H1  VAL d   1      63.058  -0.213  10.563  0.00  0.00     0.275 HD
ATOM     35  H2  VAL d   1      62.686   0.828  11.783  0.00  0.00     0.275 HD
ATOM     36  H3  VAL d   1      64.051  -0.089  11.870  0.00  0.00     0.275 HD
ENDBRANCH  31  33
BRANCH  31  37
ATOM     37  CB  VAL d   1      64.782   2.453  11.610  0.00  0.00    -0.025 C 
ATOM     38  H5  VAL d   1      65.314   1.876  12.381  0.00  0.00     0.042 H 
BRANCH  37  39
ATOM     39  CG1 VAL d   1      65.755   3.421  10.935  0.00  0.00    -0.071 C 
ATOM     40  H6  VAL d   1      66.169   4.109  11.687  0.00  0.00     0.028 H 
ATOM     41  H7  VAL d   1      65.223   3.998  10.164  0.00  0.00     0.028 H 
ATOM     42  H8  VAL d   1      66.573   2.853  10.468  0.00  0.00     0.028 H 
ENDBRANCH  37  39
BRANCH  37  43
ATOM     43  CG2 VAL d   1      63.645   3.245  12.260  0.00  0.00    -0.071 C 
ATOM     44  H9  VAL d   1      62.945   2.550  12.746  0.00  0.00     0.028 H 
ATOM     45  H10 VAL d   1      63.113   3.822  11.489  0.00  0.00     0.028 H 
ATOM     46  H11 VAL d   1      64.060   3.932  13.012  0.00  0.00     0.028 H 
ENDBRANCH  37  43
ENDBRANCH  31  37
ENDBRANCH  28  31
ENDBRANCH  25  27
BRANCH  25  47
ATOM     47  CB  SER d   1      66.730  -1.749   8.783  0.00  0.00     0.044 C 
ATOM     48  H14 SER d   1      65.929  -2.394   9.173  0.00  0.00     0.077 H 
ATOM     49  H15 SER d   1      67.320  -1.350   9.621  0.00  0.00     0.077 H 
BRANCH  47  50
ATOM     50  OG  SER d   1      67.574  -2.507   7.926  0.00  0.00    -0.398 OA
ATOM     51  H16 SER d   1      67.063  -2.851   7.203  0.00  0.00     0.209 HD
ENDBRANCH  47  50
ENDBRANCH  25  47
ENDBRANCH  22  25
ENDBRANCH  19  21
BRANCH  19  52
ATOM     52  CB  LEU d   1      62.710  -3.223   5.718  0.00  0.00    -0.035 C 
ATOM     53  H19 LEU d   1      62.958  -4.111   5.118  0.00  0.00     0.037 H 
ATOM     54  H20 LEU d   1      61.702  -2.872   5.454  0.00  0.00     0.037 H 
BRANCH  52  55
ATOM     55  CG  LEU d   1      62.737  -3.598   7.204  0.00  0.00    -0.059 C 
ATOM     56  H21 LEU d   1      62.463  -2.721   7.809  0.00  0.00     0.038 H 
BRANCH  55  57
ATOM     57  CD1 LEU d   1      61.741  -4.728   7.464  0.00  0.00    -0.073 C 
ATOM     58  H22 LEU d   1      61.761  -4.996   8.531  0.00  0.00     0.028 H 
ATOM     59  H23 LEU d   1      62.016  -5.605   6.860  0.00  0.00     0.028 H 
ATOM     60  H24 LEU d   1      60.729  -4.396   7.189  0.00  0.00     0.028 H 
ENDBRANCH  55  57
BRANCH  55  61
ATOM     61  CD2 LEU d   1      64.144  -4.063   7.587  0.00  0.00    -0.073 C 
ATOM     62  H25 LEU d   1      64.862  -3.251   7.401  0.00  0.00     0.028 H 
ATOM     63  H26 LEU d   1      64.418  -4.940   6.982  0.00  0.00     0.028 H 
ATOM     64  H27 LEU d   1      64.164  -4.332   8.653  0.00  0.00     0.028 H 
ENDBRANCH  55  61
ENDBRANCH  52  55
ENDBRANCH  19  52
ENDBRANCH  16  19
ENDBRANCH  13  15
BRANCH  13  65
ATOM     65  CB  ALA d   1      62.169   2.477   5.372  0.00  0.00    -0.049 C 
ATOM     66  H30 ALA d   1      61.691   3.313   4.840  0.00  0.00     0.030 H 
ATOM     67  H31 ALA d   1      63.090   2.831   5.859  0.00  0.00     0.030 H 
ATOM     68  H32 ALA d   1      61.479   2.084   6.133  0.00  0.00     0.030 H 
ENDBRANCH  13  65
ENDBRANCH  10  13
ENDBRANCH   7   9
BRANCH   7  69
ATOM     69  CB  ARG d   1      67.053   2.291   3.119  0.00  0.00    -0.036 C 
ATOM     70  H35 ARG d   1      67.875   2.069   2.423  0.00  0.00     0.036 H 
ATOM     71  H36 ARG d   1      67.124   1.628   3.994  0.00  0.00     0.036 H 
BRANCH  69  72
ATOM     72  CG  ARG d   1      67.147   3.749   3.573  0.00  0.00    -0.048 C 
ATOM     73  H37 ARG d   1      66.151   4.103   3.875  0.00  0.00     0.035 H 
ATOM     74  H38 ARG d   1      67.520   4.368   2.744  0.00  0.00     0.035 H 
BRANCH  72  75
ATOM     75  CD  ARG d   1      68.106   3.855   4.758  0.00  0.00     0.009 C 
ATOM     76  H39 ARG d   1      67.990   2.972   5.404  0.00  0.00     0.064 H 
ATOM     77  H40 ARG d   1      67.878   4.764   5.335  0.00  0.00     0.064 H 
BRANCH  75  78
ATOM     78  NE  ARG d   1      69.507   3.923   4.255  0.00  0.00    -0.227 N 
ATOM     79  CZ  ARG d   1      70.460   4.384   5.021  0.00  0.00     0.665 C 
ATOM     80  NH1 ARG d   1      70.193   4.785   6.235  0.00  0.00    -0.235 N 
ATOM     81  NH2 ARG d   1      71.684   4.442   4.571  0.00  0.00    -0.235 N 
ATOM     82  H42 ARG d   1      70.947   5.148   6.835  0.00  0.00     0.174 HD
ATOM     83  H43 ARG d   1      69.228   4.739   6.592  0.00  0.00     0.174 HD
ATOM     84  H44 ARG d   1      71.896   4.126   3.614  0.00  0.00     0.174 HD
ATOM     85  H45 ARG d   1      72.438   4.804   5.173  0.00  0.00     0.174 HD
ATOM     86  H41 ARG d   1      69.725   3.605   3.300  0.00  0.00     0.177 HD
ENDBRANCH  75  78
ENDBRANCH  72  75
ENDBRANCH  69  72
ENDBRANCH   7  69
ENDBRANCH   4   7
ENDBRANCH   1   3
BRANCH   1  87
ATOM     87  C   ARG d   1      65.091   1.085  -2.225  0.00  0.00     0.243 C 
ATOM     88  O   ARG d   1      64.590   2.192  -2.213  0.00  0.00    -0.271 OA
ATOM     89  N   PRO d   1      65.526   0.497  -3.308  0.00  0.00    -0.337 N 
ATOM     90  CA  PRO d   1      65.453   1.133  -4.633  0.00  0.00     0.091 C 
ATOM     91  CD  PRO d   1      66.121  -0.855  -3.315  0.00  0.00    -0.001 C 
ATOM     92  CB  PRO d   1      66.390   0.282  -5.494  0.00  0.00    -0.036 C 
ATOM     93  H59 PRO d   1      65.799   2.176  -4.591  0.00  0.00     0.087 H 
ATOM     94  CG  PRO d   1      66.505  -1.089  -4.788  0.00  0.00    -0.048 C 
ATOM     95  H60 PRO d   1      67.379   0.758  -5.565  0.00  0.00     0.036 H 
ATOM     96  H61 PRO d   1      65.971   0.156  -6.503  0.00  0.00     0.036 H 
ATOM     97  H62 PRO d   1      67.536  -1.467  -4.857  0.00  0.00     0.035 H 
ATOM     98  H63 PRO d   1      65.818  -1.813  -5.250  0.00  0.00     0.035 H 
ATOM     99  H64 PRO d   1      65.390  -1.605  -2.978  0.00  0.00     0.064 H 
ATOM    100  H65 PRO d   1      67.010  -0.894  -2.669  0.00  0.00     0.064 H 
BRANCH  90 101
ATOM    101  C   PRO d   1      64.019   1.091  -5.164  0.00  0.00     0.241 C 
ATOM    102  O   PRO d   1      63.550   0.073  -5.631  0.00  0.00    -0.271 OA
ATOM    103  N   LEU d   1      63.323   2.194  -5.091  0.00  0.00    -0.346 N 
ATOM    104  H66 LEU d   1      63.733   3.018  -4.701  0.00  0.00     0.163 HD
BRANCH 103 105
ATOM    105  CA  LEU d   1      61.919   2.225  -5.588  0.00  0.00     0.090 C 
ATOM    106  H67 LEU d   1      61.257   1.748  -4.851  0.00  0.00     0.087 H 
BRANCH 105 107
ATOM    107  C   LEU d   1      61.835   1.469  -6.915  0.00  0.00     0.243 C 
ATOM    108  O   LEU d   1      62.776   1.465  -7.683  0.00  0.00    -0.271 OA
ATOM    109  N   PRO d   1      60.710   0.845  -7.140  0.00  0.00    -0.337 N 
ATOM    110  CA  PRO d   1      60.469   0.067  -8.362  0.00  0.00     0.092 C 
ATOM    111  CD  PRO d   1      59.571   0.859  -6.198  0.00  0.00    -0.001 C 
ATOM    112  CB  PRO d   1      59.288  -0.831  -7.984  0.00  0.00    -0.036 C 
ATOM    113  H77 PRO d   1      61.350  -0.533  -8.634  0.00  0.00     0.087 H 
ATOM    114  CG  PRO d   1      58.566  -0.135  -6.807  0.00  0.00    -0.048 C 
ATOM    115  H78 PRO d   1      59.649  -1.823  -7.675  0.00  0.00     0.036 H 
ATOM    116  H79 PRO d   1      58.604  -0.939  -8.839  0.00  0.00     0.036 H 
ATOM    117  H80 PRO d   1      58.264  -0.878  -6.054  0.00  0.00     0.035 H 
ATOM    118  H81 PRO d   1      57.676   0.400  -7.171  0.00  0.00     0.035 H 
ATOM    119  H82 PRO d   1      59.132   1.865  -6.131  0.00  0.00     0.064 H 
ATOM    120  H83 PRO d   1      59.888   0.530  -5.197  0.00  0.00     0.064 H 
BRANCH 110 121
ATOM    121  C   PRO d   1      60.105   1.007  -9.517  0.00  0.00     0.243 C 
ATOM    122  O   PRO d   1      59.933   2.193  -9.316  0.00  0.00    -0.271 OA
ATOM    123  N   PRO d   1      59.998   0.446 -10.691  0.00  0.00    -0.337 N 
ATOM    124  CA  PRO d   1      59.652   1.208 -11.904  0.00  0.00     0.091 C 
ATOM    125  CD  PRO d   1      60.204  -0.999 -10.918  0.00  0.00    -0.001 C 
ATOM    126  CB  PRO d   1      59.992   0.245 -13.044  0.00  0.00    -0.036 C 
ATOM    127  H84 PRO d   1      60.248   2.130 -11.978  0.00  0.00     0.087 H 
ATOM    128  CG  PRO d   1      59.977  -1.176 -12.431  0.00  0.00    -0.048 C 
ATOM    129  H85 PRO d   1      60.988   0.473 -13.451  0.00  0.00     0.036 H 
ATOM    130  H86 PRO d   1      59.242   0.322 -13.845  0.00  0.00     0.036 H 
ATOM    131  H87 PRO d   1      60.781  -1.787 -12.867  0.00  0.00     0.035 H 
ATOM    132  H88 PRO d   1      59.007  -1.660 -12.616  0.00  0.00     0.035 H 
ATOM    133  H89 PRO d   1      59.479  -1.592 -10.342  0.00  0.00     0.064 H 
ATOM    134  H90 PRO d   1      61.225  -1.297 -10.639  0.00  0.00     0.064 H 
BRANCH 124 135
ATOM    135  C   PRO d   1      58.162   1.557 -11.897  0.00  0.00     0.241 C 
ATOM    136  O   PRO d   1      57.313   0.689 -11.874  0.00  0.00    -0.271 OA
ATOM    137  N   LEU d   1      57.836   2.822 -11.903  0.00  0.00    -0.346 N 
ATOM    138  H91 LEU d   1      58.548   3.524 -11.922  0.00  0.00     0.163 HD
BRANCH 137 139
ATOM    139  CA  LEU d   1      56.401   3.215 -11.882  0.00  0.00     0.090 C 
ATOM    140  H92 LEU d   1      55.902   2.703 -11.046  0.00  0.00     0.087 H 
BRANCH 139 141
ATOM    141  C   LEU d   1      55.723   2.819 -13.197  0.00  0.00     0.243 C 
ATOM    142  O   LEU d   1      56.369   2.678 -14.216  0.00  0.00    -0.271 OA
ATOM    143  N   PRO d   1      54.426   2.667 -13.119  0.00  0.00    -0.336 N 
ATOM    144  CA  PRO d   1      53.583   2.304 -14.269  0.00  0.00     0.098 C 
ATOM    145  CD  PRO d   1      53.679   2.843 -11.859  0.00  0.00    -0.001 C 
ATOM    146  CB  PRO d   1      52.293   1.794 -13.616  0.00  0.00    -0.035 C 
ATOM    147 2H10 PRO d   1      54.056   1.519 -14.878  0.00  0.00     0.089 H 
ATOM    148  CG  PRO d   1      52.249   2.395 -12.198  0.00  0.00    -0.048 C 
ATOM    149 3H10 PRO d   1      52.304   0.695 -13.562  0.00  0.00     0.036 H 
ATOM    150 4H10 PRO d   1      51.418   2.124 -14.195  0.00  0.00     0.036 H 
ATOM    151 5H10 PRO d   1      51.909   1.638 -11.476  0.00  0.00     0.035 H 
ATOM    152 6H10 PRO d   1      51.567   3.257 -12.174  0.00  0.00     0.035 H 
ATOM    153 7H10 PRO d   1      53.692   3.896 -11.542  0.00  0.00     0.064 H 
ATOM    154 8H10 PRO d   1      54.105   2.215 -11.063  0.00  0.00     0.064 H 
BRANCH 144 155
ATOM    155  C   PRO d   1      53.305   3.535 -15.137  0.00  0.00     0.196 C 
ATOM    156  O   PRO d   1      53.245   3.381 -16.346  0.00  0.00    -0.646 OA
ATOM    157  OXT PRO d   1      53.157   4.609 -14.578  0.00  0.00    -0.646 OA
ENDBRANCH 144 155
ENDBRANCH 139 141
BRANCH 139 158
ATOM    158  CB  LEU d   1      56.267   4.734 -11.699  0.00  0.00    -0.035 C 
ATOM    159  H93 LEU d   1      55.234   5.031 -11.932  0.00  0.00     0.037 H 
ATOM    160  H94 LEU d   1      56.959   5.239 -12.389  0.00  0.00     0.037 H 
BRANCH 158 161
ATOM    161  CG  LEU d   1      56.597   5.165 -10.259  0.00  0.00    -0.059 C 
ATOM    162  H95 LEU d   1      57.668   5.407 -10.192  0.00  0.00     0.038 H 
BRANCH 161 163
ATOM    163  CD1 LEU d   1      55.768   6.390  -9.901  0.00  0.00    -0.073 C 
ATOM    164  H96 LEU d   1      56.000   6.702  -8.872  0.00  0.00     0.028 H 
ATOM    165  H97 LEU d   1      54.699   6.144  -9.977  0.00  0.00     0.028 H 
ATOM    166  H98 LEU d   1      56.006   7.209 -10.595  0.00  0.00     0.028 H 
ENDBRANCH 161 163
BRANCH 161 167
ATOM    167  CD2 LEU d   1      56.265   4.061  -9.258  0.00  0.00    -0.073 C 
ATOM    168  H99 LEU d   1      56.853   3.162  -9.495  0.00  0.00     0.028 H 
ATOM    169 0H10 LEU d   1      55.193   3.824  -9.316  0.00  0.00     0.028 H 
ATOM    170 1H10 LEU d   1      56.511   4.402  -8.241  0.00  0.00     0.028 H 
ENDBRANCH 161 167
ENDBRANCH 158 161
ENDBRANCH 139 158
ENDBRANCH 137 139
ENDBRANCH 124 135
ENDBRANCH 110 121
ENDBRANCH 105 107
BRANCH 105 171
ATOM    171  CB  LEU d   1      61.486   3.677  -5.798  0.00  0.00    -0.035 C 
ATOM    172  H68 LEU d   1      60.590   3.704  -6.436  0.00  0.00     0.037 H 
ATOM    173  H69 LEU d   1      62.300   4.236  -6.284  0.00  0.00     0.037 H 
BRANCH 171 174
ATOM    174  CG  LEU d   1      61.167   4.315  -4.445  0.00  0.00    -0.059 C 
ATOM    175  H70 LEU d   1      61.646   3.734  -3.643  0.00  0.00     0.038 H 
BRANCH 174 176
ATOM    176  CD1 LEU d   1      61.693   5.751  -4.420  0.00  0.00    -0.073 C 
ATOM    177  H71 LEU d   1      61.463   6.209  -3.447  0.00  0.00     0.028 H 
ATOM    178  H72 LEU d   1      61.212   6.332  -5.221  0.00  0.00     0.028 H 
ATOM    179  H73 LEU d   1      62.782   5.745  -4.574  0.00  0.00     0.028 H 
ENDBRANCH 174 176
BRANCH 174 180
ATOM    180  CD2 LEU d   1      59.652   4.325  -4.235  0.00  0.00    -0.073 C 
ATOM    181  H74 LEU d   1      59.273   3.293  -4.253  0.00  0.00     0.028 H 
ATOM    182  H75 LEU d   1      59.174   4.905  -5.038  0.00  0.00     0.028 H 
ATOM    183  H76 LEU d   1      59.420   4.784  -3.263  0.00  0.00     0.028 H 
ENDBRANCH 174 180
ENDBRANCH 171 174
ENDBRANCH 105 171
ENDBRANCH 103 105
ENDBRANCH  90 101
ENDBRANCH   1  87
BRANCH   1 184
ATOM    184  CB  ARG d   1      64.157  -0.783  -0.846  0.00  0.00    -0.036 C 
ATOM    185  H48 ARG d   1      63.878  -1.101  -1.861  0.00  0.00     0.036 H 
ATOM    186  H49 ARG d   1      63.274  -0.370  -0.336  0.00  0.00     0.036 H 
BRANCH 184 187
ATOM    187  CG  ARG d   1      64.684  -1.985  -0.061  0.00  0.00    -0.048 C 
ATOM    188  H50 ARG d   1      65.415  -1.642   0.686  0.00  0.00     0.035 H 
ATOM    189  H51 ARG d   1      65.169  -2.690  -0.752  0.00  0.00     0.035 H 
BRANCH 187 190
ATOM    190  CD  ARG d   1      63.523  -2.684   0.646  0.00  0.00     0.009 C 
ATOM    191  H52 ARG d   1      62.699  -1.970   0.793  0.00  0.00     0.064 H 
ATOM    192  H53 ARG d   1      63.861  -3.059   1.623  0.00  0.00     0.064 H 
BRANCH 190 193
ATOM    193  NE  ARG d   1      63.049  -3.825  -0.188  0.00  0.00    -0.227 N 
ATOM    194  CZ  ARG d   1      62.342  -4.784   0.350  0.00  0.00     0.665 C 
ATOM    195  NH1 ARG d   1      62.039  -4.744   1.620  0.00  0.00    -0.235 N 
ATOM    196  NH2 ARG d   1      61.937  -5.783  -0.385  0.00  0.00    -0.235 N 
ATOM    197  H55 ARG d   1      61.482  -5.501   2.041  0.00  0.00     0.174 HD
ATOM    198  H56 ARG d   1      62.357  -3.955   2.201  0.00  0.00     0.174 HD
ATOM    199  H57 ARG d   1      62.175  -5.815  -1.387  0.00  0.00     0.174 HD
ATOM    200  H58 ARG d   1      61.379  -6.539   0.036  0.00  0.00     0.174 HD
ATOM    201  H54 ARG d   1      63.279  -3.858  -1.191  0.00  0.00     0.177 HD
ENDBRANCH 190 193
ENDBRANCH 187 190
ENDBRANCH 184 187
ENDBRANCH   1 184
TORSDOF 46
