REMARK  5 active torsions:
REMARK  status: ('A' for Active; 'I' for Inactive)
REMARK    1  A    between atoms: C5_1  and  C6_9 
REMARK    2  A    between atoms: C2_2  and  O2_4 
REMARK    3  A    between atoms: C3_5  and  O3_6 
REMARK    4  A    between atoms: C4_7  and  O4_8 
REMARK    5  A    between atoms: C6_9  and  O6_10 
ROOT
ATOM      1  C5  GUL d   1      30.362  66.077   6.652  0.00  0.00     0.254 C 
ATOM      2  C2  GUL d   1      32.477  65.776   8.807  0.00  0.00     0.083 C 
ATOM      3  F1  GUL d   1      29.686  65.550   5.777  0.00  0.00    -0.206 F 
ATOM      4  C3  GUL d   1      32.845  66.491   7.447  0.00  0.00     0.092 C 
ATOM      5  C4  GUL d   1      31.871  66.573   6.138  0.00  0.00     0.123 C 
ATOM      6  O   GUL d   1      30.351  65.005   7.757  0.00  0.00    -0.345 OA
ATOM      7  C1  GUL d   1      31.572  64.548   8.326  0.00  0.00     0.050 C 
ATOM      8  H1  GUL d   1      31.863  66.460   9.411  0.00  0.00     0.090 H 
ATOM      9  H3  GUL d   1      32.929  67.543   7.756  0.00  0.00     0.091 H 
ATOM     10  H5  GUL d   1      32.279  65.814   5.455  0.00  0.00     0.096 H 
ATOM     11  H10 GUL d   1      31.348  63.906   9.191  0.00  0.00     0.078 H 
ATOM     12  H11 GUL d   1      32.125  63.968   7.572  0.00  0.00     0.078 H 
ENDROOT
BRANCH   1  13
ATOM     13  C6  GUL d   1      29.422  67.142   7.300  0.00  0.00     0.075 C 
ATOM     14  H7  GUL d   1      28.982  67.695   6.457  0.00  0.00     0.082 H 
ATOM     15  H8  GUL d   1      30.085  67.809   7.870  0.00  0.00     0.082 H 
BRANCH  13  16
ATOM     16  O6  GUL d   1      28.553  66.911   7.997  0.00  0.00    -0.395 OA
ATOM     17  H9  GUL d   1      28.878  66.458   8.767  0.00  0.00     0.209 HD
ENDBRANCH  13  16
ENDBRANCH   1  13
BRANCH   5  18
ATOM     18  O4  GUL d   1      31.641  67.595   5.377  0.00  0.00    -0.387 OA
ATOM     19  H6  GUL d   1      32.456  67.887   4.986  0.00  0.00     0.210 HD
ENDBRANCH   5  18
BRANCH   4  20
ATOM     20  O3  GUL d   1      34.124  66.129   6.993  0.00  0.00    -0.390 OA
ATOM     21  H4  GUL d   1      34.771  66.375   7.643  0.00  0.00     0.210 HD
ENDBRANCH   4  20
BRANCH   2  22
ATOM     22  O2  GUL d   1      33.498  65.424   9.560  0.00  0.00    -0.391 OA
ATOM     23  H2  GUL d   1      34.001  66.196   9.791  0.00  0.00     0.210 HD
ENDBRANCH   2  22
TORSDOF 5
