REMARK  4 active torsions:
REMARK  status: ('A' for Active; 'I' for Inactive)
REMARK    1  A    between atoms: C5_1  and  C6_8 
REMARK    2  A    between atoms: C3_4  and  O3_5 
REMARK    3  A    between atoms: C4_6  and  O4_7 
REMARK    4  A    between atoms: C6_8  and  O6_9 
ROOT
ATOM      1  C5  FMF d   1      30.387  66.462   7.234  0.00  0.00     0.086 C 
ATOM      2  C2  FMF d   1      32.291  65.904   9.036  0.00  0.00     0.126 C 
ATOM      3  F2  FMF d   1      33.352  65.369   9.652  0.00  0.00    -0.244 F 
ATOM      4  C3  FMF d   1      32.701  66.633   7.663  0.00  0.00     0.094 C 
ATOM      5  C4  FMF d   1      31.679  66.665   6.476  0.00  0.00     0.090 C 
ATOM      6  O   FMF d   1      30.367  65.195   7.850  0.00  0.00    -0.378 OA
ATOM      7  C1  FMF d   1      31.196  64.882   8.897  0.00  0.00     0.051 C 
ATOM      8  H1  FMF d   1      30.241  67.258   7.979  0.00  0.00     0.090 H 
ATOM      9  H2  FMF d   1      31.900  66.692   9.696  0.00  0.00     0.099 H 
ATOM     10  H3  FMF d   1      32.901  67.685   7.915  0.00  0.00     0.091 H 
ATOM     11  H5  FMF d   1      31.845  65.846   5.761  0.00  0.00     0.091 H 
ATOM     12  H10 FMF d   1      31.645  63.894   8.718  0.00  0.00     0.078 H 
ATOM     13  H11 FMF d   1      30.608  64.855   9.826  0.00  0.00     0.078 H 
ENDROOT
BRANCH   1  14
ATOM     14  C6  FMF d   1      29.322  66.462   6.229  0.00  0.00     0.043 C 
ATOM     15  H7  FMF d   1      29.343  65.522   5.658  0.00  0.00     0.078 H 
ATOM     16  H8  FMF d   1      29.452  67.311   5.542  0.00  0.00     0.078 H 
BRANCH  14  17
ATOM     17  O6  FMF d   1      28.057  66.586   6.941  0.00  0.00    -0.398 OA
ATOM     18  H9  FMF d   1      27.956  65.852   7.535  0.00  0.00     0.209 HD
ENDBRANCH  14  17
ENDBRANCH   1  14
BRANCH   5  19
ATOM     19  O4  FMF d   1      31.796  67.842   5.833  0.00  0.00    -0.390 OA
ATOM     20  H6  FMF d   1      32.681  67.932   5.499  0.00  0.00     0.210 HD
ENDBRANCH   5  19
BRANCH   4  21
ATOM     21  O3  FMF d   1      33.965  66.010   7.223  0.00  0.00    -0.390 OA
ATOM     22  H4  FMF d   1      34.248  66.411   6.410  0.00  0.00     0.210 HD
ENDBRANCH   4  21
TORSDOF 4
