REMARK  11 active torsions:
REMARK  status: ('A' for Active; 'I' for Inactive)
REMARK    1  A    between atoms: N10_8  and  C11_3 
REMARK    2  A    between atoms: C2_5  and  N3_4 
REMARK    3  A    between atoms: C1_6  and  C2_5 
REMARK    4  A    between atoms: C2_5  and  C4_11 
REMARK    5  A    between atoms: C9_7  and  C1_6 
REMARK    6  A    between atoms: C1_6  and  O8_9 
REMARK    7  A    between atoms: C1_6  and  O14_10 
REMARK    8  A    between atoms: C9_7  and  N10_8 
REMARK    9  A    between atoms: C4_11  and  C5_12 
REMARK   10  A    between atoms: C5_12  and  C6_13 
REMARK   11  A    between atoms: C6_13  and  C7_14 
ROOT
ATOM      1  C2  M1C d   1       3.763   3.508  -2.516  0.00  0.00     0.154 C 
ATOM      2  H9  M1C d   1       3.931   2.685  -3.226  0.00  0.00     0.092 H 
ENDROOT
BRANCH   1   3
ATOM      3  N3  M1C d   1       3.410   2.955  -1.211  0.00  0.00    -0.070 N 
ATOM      4  H6  M1C d   1       2.552   2.431  -1.289  0.00  0.00     0.274 HD
ATOM      5  H7  M1C d   1       3.286   3.706  -0.550  0.00  0.00     0.274 HD
ATOM      6  H8  M1C d   1       4.148   2.346  -0.893  0.00  0.00     0.274 HD
ENDBRANCH   1   3
BRANCH   1   7
ATOM      7  C1  M1C d   1       5.063   4.287  -2.339  0.00  0.00     0.212 C 
BRANCH   7   8
ATOM      8  C9  M1C d   1       5.604   4.885  -3.638  0.00  0.00     0.135 C 
ATOM      9  H10 M1C d   1       6.637   5.220  -3.461  0.00  0.00     0.084 H 
ATOM     10  H11 M1C d   1       4.979   5.750  -3.907  0.00  0.00     0.084 H 
BRANCH   8  11
ATOM     11  N10 M1C d   1       5.609   3.961  -4.754  0.00  0.00    -0.066 N 
ATOM     12  H12 M1C d   1       6.145   3.152  -4.482  0.00  0.00     0.277 HD
ATOM     13  H13 M1C d   1       4.655   3.688  -4.933  0.00  0.00     0.277 HD
BRANCH  11  14
ATOM     14  C11 M1C d   1       6.169   4.468  -6.000  0.00  0.00     0.102 A 
ATOM     15  C13 M1C d   1       6.816   3.348  -6.815  0.00  0.00    -0.036 A 
ATOM     16  C12 M1C d   1       7.685   4.300  -6.007  0.00  0.00    -0.036 A 
ATOM     17  H1  M1C d   1       6.704   2.301  -6.497  0.00  0.00     0.036 H 
ATOM     18  H2  M1C d   1       6.819   3.399  -7.914  0.00  0.00     0.036 H 
ATOM     19  H3  M1C d   1       8.317   5.038  -6.522  0.00  0.00     0.036 H 
ATOM     20  H4  M1C d   1       8.202   3.940  -5.105  0.00  0.00     0.036 H 
ATOM     21  H5  M1C d   1       5.632   5.323  -6.437  0.00  0.00     0.084 H 
ENDBRANCH  11  14
ENDBRANCH   8  11
ENDBRANCH   7   8
BRANCH   7  22
ATOM     22  O8  M1C d   1       6.048   3.436  -1.720  0.00  0.00    -0.362 OA
ATOM     23  H14 M1C d   1       6.849   3.928  -1.583  0.00  0.00     0.213 HD
ENDBRANCH   7  22
BRANCH   7  24
ATOM     24  O14 M1C d   1       4.817   5.388  -1.475  0.00  0.00    -0.362 OA
ATOM     25  H15 M1C d   1       4.494   5.068  -0.641  0.00  0.00     0.213 HD
ENDBRANCH   7  24
ENDBRANCH   1   7
BRANCH   1  26
ATOM     26  C4  M1C d   1       2.631   4.392  -3.059  0.00  0.00    -0.033 C 
ATOM     27  H16 M1C d   1       2.981   4.886  -3.977  0.00  0.00     0.036 H 
ATOM     28  H17 M1C d   1       2.387   5.153  -2.303  0.00  0.00     0.036 H 
BRANCH  26  29
ATOM     29  C5  M1C d   1       1.367   3.604  -3.382  0.00  0.00    -0.063 C 
ATOM     30  H18 M1C d   1       0.968   3.173  -2.452  0.00  0.00     0.033 H 
ATOM     31  H19 M1C d   1       1.621   2.794  -4.082  0.00  0.00     0.033 H 
BRANCH  29  32
ATOM     32  C6  M1C d   1       0.293   4.493  -4.019  0.00  0.00    -0.068 C 
ATOM     33  H20 M1C d   1       0.747   5.069  -4.839  0.00  0.00     0.032 H 
ATOM     34  H21 M1C d   1      -0.095   5.184  -3.257  0.00  0.00     0.032 H 
BRANCH  32  35
ATOM     35  C7  M1C d   1      -0.856   3.676  -4.571  0.00  0.00    -0.077 C 
ATOM     36  H22 M1C d   1      -1.603   4.349  -5.018  0.00  0.00     0.027 H 
ATOM     37  H23 M1C d   1      -1.321   3.101  -3.757  0.00  0.00     0.027 H 
ATOM     38  H24 M1C d   1      -0.479   2.985  -5.339  0.00  0.00     0.027 H 
ENDBRANCH  32  35
ENDBRANCH  29  32
ENDBRANCH  26  29
ENDBRANCH   1  26
TORSDOF 11
