REMARK  9 active torsions:
REMARK  status: ('A' for Active; 'I' for Inactive)
REMARK    1  A    between atoms: OA_1  and  C7_2 
REMARK    2  A    between atoms: C7_2  and  O8_3 
REMARK    3  A    between atoms: C7_2  and  C9_4 
REMARK    4  A    between atoms: C7_2  and  C1_10 
REMARK    5  A    between atoms: C9_4  and  C11_5 
REMARK    6  A    between atoms: C9_4  and  N10_9 
REMARK    7  A    between atoms: C11_5  and  C12_6 
REMARK    8  A    between atoms: C12_6  and  S13_7 
REMARK    9  A    between atoms: S13_7  and  C14_8 
ROOT
ATOM      1  C9  M2C d   1       4.023   3.267  -2.381  0.00  0.00     0.159 C 
ATOM      2  H3  M2C d   1       4.046   2.380  -3.031  0.00  0.00     0.093 H 
ENDROOT
BRANCH   1   3
ATOM      3  C7  M2C d   1       5.430   3.877  -2.480  0.00  0.00     0.235 C 
BRANCH   3   4
ATOM      4  OA  M2C d   1       6.287   3.191  -1.616  0.00  0.00    -0.359 OA
ATOM      5  H1  M2C d   1       7.161   3.558  -1.681  0.00  0.00     0.213 HD
ENDBRANCH   3   4
BRANCH   3   6
ATOM      6  O8  M2C d   1       5.475   5.240  -2.025  0.00  0.00    -0.359 OA
ATOM      7  H2  M2C d   1       5.178   5.282  -1.124  0.00  0.00     0.213 HD
ENDBRANCH   3   6
BRANCH   3   8
ATOM      8  C1  M2C d   1       5.993   3.721  -3.850  0.00  0.00     0.098 A 
ATOM      9  C2  M2C d   1       6.129   2.499  -4.435  0.00  0.00    -0.054 A 
ATOM     10  C3  M2C d   1       6.654   2.400  -5.701  0.00  0.00    -0.080 A 
ATOM     11  H14 M2C d   1       5.824   1.605  -3.903  0.00  0.00     0.086 H 
ATOM     12  C4  M2C d   1       7.135   3.520  -6.297  0.00  0.00    -0.066 A 
ATOM     13  H15 M2C d   1       6.683   1.445  -6.214  0.00  0.00     0.083 H 
ATOM     14  C5  M2C d   1       7.016   4.726  -5.648  0.00  0.00     0.003 A 
ATOM     15  H16 M2C d   1       7.607   3.465  -7.271  0.00  0.00     0.085 H 
ATOM     16  N6  M2C d   1       6.453   4.816  -4.434  0.00  0.00    -0.260 NA
ATOM     17  H17 M2C d   1       7.386   5.625  -6.128  0.00  0.00     0.114 H 
ENDBRANCH   3   8
ENDBRANCH   1   3
BRANCH   1  18
ATOM     18  C11 M2C d   1       2.909   4.136  -2.956  0.00  0.00    -0.025 C 
ATOM     19  H4  M2C d   1       3.088   4.256  -4.035  0.00  0.00     0.037 H 
ATOM     20  H5  M2C d   1       2.951   5.120  -2.465  0.00  0.00     0.037 H 
BRANCH  18  21
ATOM     21  C12 M2C d   1       1.498   3.562  -2.763  0.00  0.00    -0.022 C 
ATOM     22  H6  M2C d   1       1.299   3.486  -1.684  0.00  0.00     0.049 H 
ATOM     23  H7  M2C d   1       1.468   2.558  -3.213  0.00  0.00     0.049 H 
BRANCH  21  24
ATOM     24  S13 M2C d   1       0.204   4.553  -3.507  0.00  0.00    -0.173 SA
BRANCH  24  25
ATOM     25  C14 M2C d   1      -0.715   5.196  -2.162  0.00  0.00    -0.035 C 
ATOM     26  H8  M2C d   1      -1.535   5.821  -2.544  0.00  0.00     0.041 H 
ATOM     27  H9  M2C d   1      -0.056   5.804  -1.525  0.00  0.00     0.041 H 
ATOM     28  H10 M2C d   1      -1.131   4.366  -1.572  0.00  0.00     0.041 H 
ENDBRANCH  24  25
ENDBRANCH  21  24
ENDBRANCH  18  21
ENDBRANCH   1  18
BRANCH   1  29
ATOM     29  N10 M2C d   1       3.766   2.762  -1.059  0.00  0.00    -0.069 N 
ATOM     30  H11 M2C d   1       4.547   2.201  -0.756  0.00  0.00     0.275 HD
ATOM     31  H12 M2C d   1       2.931   2.197  -1.071  0.00  0.00     0.275 HD
ATOM     32  H13 M2C d   1       3.640   3.534  -0.423  0.00  0.00     0.275 HD
ENDBRANCH   1  29
TORSDOF 9
