REMARK  9 active torsions:
REMARK  status: ('A' for Active; 'I' for Inactive)
REMARK    1  A    between atoms: N1_1  and  C2_2 
REMARK    2  A    between atoms: C2_2  and  C10_3 
REMARK    3  A    between atoms: C2_2  and  C3_7 
REMARK    4  A    between atoms: C10_3  and  C11_4 
REMARK    5  A    between atoms: C11_4  and  S12_5 
REMARK    6  A    between atoms: S12_5  and  C13_6 
REMARK    7  A    between atoms: C3_7  and  O4_8 
REMARK    8  A    between atoms: C3_7  and  O15_9 
REMARK    9  A    between atoms: C3_7  and  C5_10 
ROOT
ATOM      1  C2  M3C d   1      16.305   3.269   2.554  0.00  0.00     0.160 C 
ATOM      2  H4  M3C d   1      16.298   2.344   3.149  0.00  0.00     0.093 H 
ENDROOT
BRANCH   1   3
ATOM      3  N1  M3C d   1      16.696   2.984   1.179  0.00  0.00    -0.069 N 
ATOM      4  H1  M3C d   1      17.630   2.604   1.167  0.00  0.00     0.275 HD
ATOM      5  H2  M3C d   1      16.672   3.835   0.640  0.00  0.00     0.275 HD
ATOM      6  H3  M3C d   1      16.056   2.315   0.779  0.00  0.00     0.275 HD
ENDBRANCH   1   3
BRANCH   1   7
ATOM      7  C10 M3C d   1      17.403   4.188   3.083  0.00  0.00    -0.025 C 
ATOM      8  H5  M3C d   1      17.145   4.496   4.107  0.00  0.00     0.037 H 
ATOM      9  H6  M3C d   1      17.463   5.077   2.437  0.00  0.00     0.037 H 
BRANCH   7  10
ATOM     10  C11 M3C d   1      18.768   3.501   3.104  0.00  0.00    -0.022 C 
ATOM     11  H7  M3C d   1      18.980   3.123   2.093  0.00  0.00     0.049 H 
ATOM     12  H8  M3C d   1      18.719   2.657   3.808  0.00  0.00     0.049 H 
BRANCH  10  13
ATOM     13  S12 M3C d   1      20.142   4.588   3.608  0.00  0.00    -0.173 SA
BRANCH  13  14
ATOM     14  C13 M3C d   1      20.009   4.101   5.238  0.00  0.00    -0.035 C 
ATOM     15  H9  M3C d   1      20.765   4.625   5.840  0.00  0.00     0.041 H 
ATOM     16  H10 M3C d   1      20.171   3.015   5.311  0.00  0.00     0.041 H 
ATOM     17  H11 M3C d   1      19.005   4.348   5.614  0.00  0.00     0.041 H 
ENDBRANCH  13  14
ENDBRANCH  10  13
ENDBRANCH   7  10
ENDBRANCH   1   7
BRANCH   1  18
ATOM     18  C3  M3C d   1      14.882   3.846   2.557  0.00  0.00     0.242 C 
BRANCH  18  19
ATOM     19  O4  M3C d   1      14.072   3.051   1.693  0.00  0.00    -0.358 OA
ATOM     20  H12 M3C d   1      13.186   3.394   1.687  0.00  0.00     0.213 HD
ENDBRANCH  18  19
BRANCH  18  21
ATOM     21  O15 M3C d   1      14.881   5.182   2.073  0.00  0.00    -0.358 OA
ATOM     22  H13 M3C d   1      15.234   5.198   1.191  0.00  0.00     0.213 HD
ENDBRANCH  18  21
BRANCH  18  23
ATOM     23  C5  M3C d   1      14.267   3.753   3.939  0.00  0.00     0.138 A 
ATOM     24  N6  M3C d   1      13.681   4.822   4.488  0.00  0.00    -0.252 NA
ATOM     25  C7  M3C d   1      13.183   4.497   5.720  0.00  0.00     0.010 A 
ATOM     26  C8  M3C d   1      13.401   3.163   6.004  0.00  0.00    -0.026 A 
ATOM     27  H14 M3C d   1      12.682   5.196   6.388  0.00  0.00     0.115 H 
ATOM     28  S9  M3C d   1      14.201   2.293   4.793  0.00  0.00    -0.080 SA
ATOM     29  H15 M3C d   1      13.082   2.705   6.939  0.00  0.00     0.097 H 
ENDBRANCH  18  23
ENDBRANCH   1  18
TORSDOF 9
