REMARK  11 active torsions:
REMARK  status: ('A' for Active; 'I' for Inactive)
REMARK    1  A    between atoms: O3B_8  and  PG_1 
REMARK    2  A    between atoms: PB_5  and  O3B_8 
REMARK    3  A    between atoms: O3A_12  and  PB_5 
REMARK    4  A    between atoms: PA_9  and  O3A_12 
REMARK    5  A    between atoms: PA_9  and  O5_13 
REMARK    6  A    between atoms: O5_13  and  C5_14 
REMARK    7  A    between atoms: C5_14  and  C4_15 
REMARK    8  A    between atoms: C3_17  and  O3_18 
REMARK    9  A    between atoms: C2_19  and  O2_20 
REMARK   10  A    between atoms: C1_21  and  N9_22 
REMARK   11  A    between atoms: C6_26  and  N6_27 
ROOT
ATOM      1  C4  ATP d   1     162.888  13.644  33.470  0.00  0.00     0.089 C 
ATOM      2  O4  ATP d   1     162.739  13.107  34.771  0.00  0.00    -0.353 OA
ATOM      3  C3  ATP d   1     164.262  13.198  33.011  0.00  0.00     0.091 C 
ATOM      4  C2  ATP d   1     165.022  12.972  34.304  0.00  0.00     0.105 C 
ATOM      5  C1  ATP d   1     163.968  12.682  35.341  0.00  0.00     0.139 C 
ATOM      6  H3  ATP d   1     162.856  14.743  33.508  0.00  0.00     0.090 H 
ATOM      7  H4  ATP d   1     164.212  12.273  32.417  0.00  0.00     0.091 H 
ATOM      8  H6  ATP d   1     165.771  12.173  34.201  0.00  0.00     0.093 H 
ATOM      9  H8  ATP d   1     164.177  13.310  36.219  0.00  0.00     0.122 H 
ENDROOT
BRANCH   1  10
ATOM     10  C5  ATP d   1     161.753  13.160  32.572  0.00  0.00     0.058 C 
ATOM     11  H1  ATP d   1     160.834  13.729  32.779  0.00  0.00     0.079 H 
ATOM     12  H2  ATP d   1     162.027  13.279  31.513  0.00  0.00     0.079 H 
BRANCH  10  13
ATOM     13  O5  ATP d   1     161.564  11.798  32.878  0.00  0.00    -0.287 OA
BRANCH  13  14
ATOM     14  PA  ATP d   1     160.312  10.888  32.357  0.00  0.00     0.417 P 
ATOM     15  O1A ATP d   1     160.339   9.703  33.257  0.00  0.00    -0.624 OA
ATOM     16  O2A ATP d   1     158.949  11.638  32.404  0.00  0.00    -0.624 OA
BRANCH  14  17
ATOM     17  O3A ATP d   1     160.709  10.628  30.811  0.00  0.00    -0.180 OA
BRANCH  17  18
ATOM     18  PB  ATP d   1     160.386   9.266  30.000  0.00  0.00     0.428 P 
ATOM     19  O1B ATP d   1     160.294   9.763  28.620  0.00  0.00    -0.624 OA
ATOM     20  O2B ATP d   1     159.127   8.606  30.545  0.00  0.00    -0.624 OA
BRANCH  18  21
ATOM     21  O3B ATP d   1     161.661   8.319  30.217  0.00  0.00    -0.173 OA
BRANCH  21  22
ATOM     22  PG  ATP d   1     161.765   6.774  29.786  0.00  0.00     0.431 P 
ATOM     23  O1G ATP d   1     162.143   6.774  28.367  0.00  0.00    -0.616 OA
ATOM     24  O2G ATP d   1     160.459   5.999  30.111  0.00  0.00    -0.616 OA
ATOM     25  O3G ATP d   1     162.842   6.020  30.577  0.00  0.00    -0.616 OA
ENDBRANCH  21  22
ENDBRANCH  18  21
ENDBRANCH  17  18
ENDBRANCH  14  17
ENDBRANCH  13  14
ENDBRANCH  10  13
ENDBRANCH   1  10
BRANCH   3  26
ATOM     26  O3  ATP d   1     164.827  14.230  32.248  0.00  0.00    -0.390 OA
ATOM     27  H5  ATP d   1     164.899  15.013  32.781  0.00  0.00     0.210 HD
ENDBRANCH   3  26
BRANCH   5  28
ATOM     28  N9  ATP d   1     163.931  11.285  35.824  0.00  0.00    -0.294 N 
ATOM     29  C8  ATP d   1     162.866  10.429  35.692  0.00  0.00     0.071 A 
ATOM     30  N7  ATP d   1     163.156   9.245  36.265  0.00  0.00    -0.236 NA
ATOM     31  H9  ATP d   1     161.926  10.671  35.198  0.00  0.00     0.144 H 
ATOM     32  C5  ATP d   1     164.409   9.319  36.776  0.00  0.00     0.149 A 
ATOM     33  C6  ATP d   1     165.177   8.379  37.478  0.00  0.00     0.155 A 
ATOM     34  C4  ATP d   1     164.913  10.599  36.511  0.00  0.00     0.167 A 
ATOM     35  N1  ATP d   1     166.451   8.733  37.884  0.00  0.00    -0.222 NA
ATOM     36  C2  ATP d   1     166.936  10.002  37.611  0.00  0.00     0.091 A 
ATOM     37  N3  ATP d   1     166.167  10.930  36.929  0.00  0.00    -0.222 NA
ATOM     38  H12 ATP d   1     167.934  10.273  37.937  0.00  0.00     0.146 H 
BRANCH  33  39
ATOM     39  N6  ATP d   1     164.665   7.172  37.720  0.00  0.00    -0.382 N 
ATOM     40  H10 ATP d   1     165.218   6.472  38.234  0.00  0.00     0.157 HD
ATOM     41  H11 ATP d   1     163.716   6.940  37.392  0.00  0.00     0.157 HD
ENDBRANCH  33  39
ENDBRANCH   5  28
BRANCH   4  42
ATOM     42  O2  ATP d   1     165.584  14.178  34.789  0.00  0.00    -0.388 OA
ATOM     43  H7  ATP d   1     166.185  14.529  34.142  0.00  0.00     0.210 HD
ENDBRANCH   4  42
TORSDOF 11
