REMARK  10 active torsions:
REMARK  status: ('A' for Active; 'I' for Inactive)
REMARK    1  A    between atoms: O3B_8  and  PG_1 
REMARK    2  A    between atoms: PB_5  and  O3B_8 
REMARK    3  A    between atoms: O3A_12  and  PB_5 
REMARK    4  A    between atoms: PA_9  and  O3A_12 
REMARK    5  A    between atoms: PA_9  and  O5_13 
REMARK    6  A    between atoms: O5_13  and  C5_14 
REMARK    7  A    between atoms: C5_14  and  C4_15 
REMARK    8  A    between atoms: C3_17  and  O3_18 
REMARK    9  A    between atoms: C2_19  and  O2_20 
REMARK   10  A    between atoms: C1_21  and  N9_22 
ROOT
ATOM      1  C4  ATP d   1     155.005  10.495 257.223  0.00  0.00     0.089 A 
ATOM      2  O4  ATP d   1     154.641  10.427 258.643  0.00  0.00    -0.353 OA
ATOM      3  C3  ATP d   1     154.718   9.256 256.490  0.00  0.00     0.091 A 
ATOM      4  C2  ATP d   1     154.032   8.322 257.556  0.00  0.00     0.105 A 
ATOM      5  C1  ATP d   1     154.038   9.098 258.930  0.00  0.00     0.139 A 
ATOM      6  H3  ATP d   1     155.989  10.943 257.022  0.00  0.00     0.090 H 
ATOM      7  H4  ATP d   1     153.982   9.486 255.705  0.00  0.00     0.091 H 
ATOM      8  H6  ATP d   1     153.008   8.054 257.256  0.00  0.00     0.093 H 
ATOM      9  H8  ATP d   1     154.672   8.544 259.639  0.00  0.00     0.122 H 
ENDROOT
BRANCH   1  10
ATOM     10  C5  ATP d   1     153.803  11.184 256.745  0.00  0.00     0.058 C 
ATOM     11  H1  ATP d   1     153.996  11.102 255.665  0.00  0.00     0.079 H 
ATOM     12  H2  ATP d   1     153.062  10.428 257.044  0.00  0.00     0.079 H 
BRANCH  10  13
ATOM     13  O5  ATP d   1     153.032  12.188 256.713  0.00  0.00    -0.287 OA
BRANCH  13  14
ATOM     14  PA  ATP d   1     152.333  13.414 256.248  0.00  0.00     0.417 P 
ATOM     15  O1A ATP d   1     151.678  13.281 257.565  0.00  0.00    -0.624 OA
ATOM     16  O2A ATP d   1     153.532  14.278 256.009  0.00  0.00    -0.624 OA
BRANCH  14  17
ATOM     17  O3A ATP d   1     151.628  12.728 254.986  0.00  0.00    -0.180 OA
BRANCH  17  18
ATOM     18  PB  ATP d   1     150.618  13.495 253.842  0.00  0.00     0.428 P 
ATOM     19  O1B ATP d   1     151.749  13.662 252.974  0.00  0.00    -0.624 OA
ATOM     20  O2B ATP d   1     150.091  14.625 254.627  0.00  0.00    -0.624 OA
BRANCH  18  21
ATOM     21  O3B ATP d   1     149.766  12.149 253.670  0.00  0.00    -0.173 OA
BRANCH  21  22
ATOM     22  PG  ATP d   1     148.272  11.715 254.163  0.00  0.00     0.431 P 
ATOM     23  O1G ATP d   1     147.434  11.443 252.929  0.00  0.00    -0.616 OA
ATOM     24  O2G ATP d   1     147.803  12.889 254.996  0.00  0.00    -0.616 OA
ATOM     25  O3G ATP d   1     148.442  10.476 255.015  0.00  0.00    -0.616 OA
ENDBRANCH  21  22
ENDBRANCH  18  21
ENDBRANCH  17  18
ENDBRANCH  14  17
ENDBRANCH  13  14
ENDBRANCH  10  13
ENDBRANCH   1  10
BRANCH   3  26
ATOM     26  O3  ATP d   1     155.827   8.665 255.834  0.00  0.00    -0.390 OA
ATOM     27  H5  ATP d   1     156.495   8.450 256.475  0.00  0.00     0.210 HD
ENDBRANCH   3  26
BRANCH   5  28
ATOM     28  N9  ATP d   1     152.672   9.311 259.589  0.00  0.00    -0.294 N 
ATOM     29  C8  ATP d   1     151.741  10.393 259.478  0.00  0.00     0.071 A 
ATOM     30  N7  ATP d   1     150.652  10.273 260.191  0.00  0.00    -0.236 NA
ATOM     31  H9  ATP d   1     151.928  11.258 258.843  0.00  0.00     0.144 H 
ATOM     32  C5  ATP d   1     150.844   9.027 260.833  0.00  0.00     0.149 A 
ATOM     33  C6  ATP d   1     150.029   8.261 261.789  0.00  0.00     0.155 A 
ATOM     34  C4  ATP d   1     152.067   8.431 260.468  0.00  0.00     0.167 A 
ATOM     35  N6  ATP d   1     148.834   8.725 262.223  0.00  0.00    -0.382 N 
ATOM     36  N1  ATP d   1     150.527   7.014 262.251  0.00  0.00    -0.222 NA
ATOM     37  H10 ATP d   1     148.279   8.173 262.892  0.00  0.00     0.157 HD
ATOM     38  H11 ATP d   1     148.479   9.630 261.884  0.00  0.00     0.157 HD
ATOM     39  C2  ATP d   1     151.741   6.542 261.808  0.00  0.00     0.091 A 
ATOM     40  N3  ATP d   1     152.600   7.161 260.919  0.00  0.00    -0.222 NA
ATOM     41  H12 ATP d   1     152.058   5.582 262.198  0.00  0.00     0.146 H 
ENDBRANCH   5  28
BRANCH   4  42
ATOM     42  O2  ATP d   1     154.843   7.172 257.685  0.00  0.00    -0.388 OA
ATOM     43  H7  ATP d   1     154.904   6.733 256.845  0.00  0.00     0.210 HD
ENDBRANCH   4  42
TORSDOF 10
