REMARK WARNING: 32 MAX_TORS EXCEEDED!!!
REMARK  40 active torsions:
REMARK  status: ('A' for Active; 'I' for Inactive)
REMARK    1  A    between atoms: CA_2  and  N_1 
REMARK    2  A    between atoms: C_3  and  CA_2 
REMARK       I    between atoms: N_5  and  C_3 
REMARK    3  A    between atoms: CA_6  and  N_5 
REMARK    4  A    between atoms: CA_6  and  CB_9 
REMARK    5  A    between atoms: C_7  and  CA_6 
REMARK       I    between atoms: N_10  and  C_7 
REMARK    6  A    between atoms: CA_11  and  N_10 
REMARK    7  A    between atoms: CA_11  and  CB_14 
REMARK    8  A    between atoms: C_12  and  CA_11 
REMARK       I    between atoms: N_21  and  C_12 
REMARK    9  A    between atoms: CB_14  and  CG_15 
REMARK   10  A    between atoms: CA_22  and  N_21 
REMARK   11  A    between atoms: CA_22  and  CB_25 
REMARK   12  A    between atoms: C_23  and  CA_22 
REMARK       I    between atoms: N_32  and  C_23 
REMARK   13  A    between atoms: CB_25  and  CG_26 
REMARK   14  A    between atoms: CA_33  and  N_32 
REMARK   15  A    between atoms: CA_33  and  CB_36 
REMARK   16  A    between atoms: C_34  and  CA_33 
REMARK       I    between atoms: N_38  and  C_34 
REMARK   17  A    between atoms: CB_36  and  OG_37 
REMARK   18  A    between atoms: CA_39  and  N_38 
REMARK   19  A    between atoms: CA_39  and  CB_42 
REMARK   20  A    between atoms: C_40  and  CA_39 
REMARK       I    between atoms: N_43  and  C_40 
REMARK   21  A    between atoms: CA_44  and  N_43 
REMARK   22  A    between atoms: CA_44  and  CB_47 
REMARK   23  A    between atoms: C_45  and  CA_44 
REMARK       I    between atoms: N_54  and  C_45 
REMARK   24  A    between atoms: CB_47  and  CG_48 
REMARK   25  A    between atoms: CG_48  and  CD_49 
REMARK   26  A    between atoms: CD_49  and  NE_50 
REMARK       I    between atoms: NE_50  and  CZ_51 
REMARK       I    between atoms: CZ_51  and  NH2_53 
REMARK       I    between atoms: CZ_51  and  NH1_52 
REMARK   27  A    between atoms: CA_55  and  N_54 
REMARK   28  A    between atoms: C_56  and  CA_55 
REMARK       I    between atoms: N_58  and  C_56 
REMARK   29  A    between atoms: CA_59  and  N_58 
REMARK   30  A    between atoms: CA_59  and  CB_62 
REMARK   31  A    between atoms: C_60  and  CA_59 
REMARK       I    between atoms: N_68  and  C_60 
REMARK   32  A    between atoms: CB_62  and  CG_63 
REMARK   33  A    between atoms: CA_69  and  N_68 
REMARK   34  A    between atoms: CA_69  and  CB_72 
REMARK   35  A    between atoms: C_70  and  CA_69 
REMARK       I    between atoms: C_70  and  N_79 
REMARK   36  A    between atoms: CB_72  and  CG_73 
REMARK   37  A    between atoms: CG_73  and  CD_74 
REMARK   38  A    between atoms: CD_74  and  NE_75 
REMARK       I    between atoms: NE_75  and  CZ_76 
REMARK       I    between atoms: CZ_76  and  NH2_78 
REMARK       I    between atoms: CZ_76  and  NH1_77 
REMARK   39  A    between atoms: CA_80  and  C_81 
REMARK   40  A    between atoms: C_81  and  O1_86 
ROOT
ATOM      1  CA  ARG d   1      52.480  13.136  87.410  0.00  0.00     0.089 C 
ATOM      2  H40 ARG d   1      53.566  12.980  87.494  0.00  0.00     0.087 H 
ENDROOT
BRANCH   1   3
ATOM      3  N   ARG d   1      52.059  14.083  88.432  0.00  0.00    -0.346 N 
ATOM      4  C   ALA d   1      52.917  14.819  89.131  0.00  0.00     0.240 C 
ATOM      5  O   ALA d   1      54.141  14.772  88.978  0.00  0.00    -0.271 OA
ATOM      6  H39 ARG d   1      51.081  14.184  88.616  0.00  0.00     0.163 HD
BRANCH   4   7
ATOM      7  CA  ALA d   1      52.286  15.755  90.153  0.00  0.00     0.086 C 
ATOM      8  H35 ALA d   1      51.418  15.240  90.592  0.00  0.00     0.086 H 
BRANCH   7   9
ATOM      9  N   ALA d   1      53.196  16.105  91.237  0.00  0.00    -0.346 N 
ATOM     10  C   SER d   1      52.709  16.490  92.411  0.00  0.00     0.243 C 
ATOM     11  O   SER d   1      51.495  16.556  92.629  0.00  0.00    -0.271 OA
ATOM     12  H34 ALA d   1      54.185  16.055  91.097  0.00  0.00     0.163 HD
BRANCH  10  13
ATOM     13  CA  SER d   1      53.710  16.862  93.509  0.00  0.00     0.109 C 
ATOM     14  H30 SER d   1      54.141  17.855  93.314  0.00  0.00     0.090 H 
BRANCH  13  15
ATOM     15  N   SER d   1      52.918  16.892  94.734  0.00  0.00    -0.344 N 
ATOM     16  C   PHE d   1      53.246  17.583  95.824  0.00  0.00     0.241 C 
ATOM     17  O   PHE d   1      54.278  18.242  95.944  0.00  0.00    -0.271 OA
ATOM     18  H29 SER d   1      52.073  16.358  94.757  0.00  0.00     0.163 HD
BRANCH  16  19
ATOM     19  CA  PHE d   1      52.198  17.529  96.928  0.00  0.00     0.093 C 
ATOM     20  H21 PHE d   1      51.717  16.544  96.842  0.00  0.00     0.088 H 
BRANCH  19  21
ATOM     21  N   PHE d   1      52.578  17.660  98.328  0.00  0.00    -0.346 N 
ATOM     22  C   PHE d   1      52.711  16.627  99.153  0.00  0.00     0.241 C 
ATOM     23  O   PHE d   1      52.604  15.456  98.797  0.00  0.00    -0.271 OA
ATOM     24  H20 PHE d   1      52.748  18.577  98.688  0.00  0.00     0.163 HD
BRANCH  22  25
ATOM     25  CA  PHE d   1      53.001  16.986 100.612  0.00  0.00     0.093 C 
ATOM     26  H12 PHE d   1      52.989  18.080 100.727  0.00  0.00     0.088 H 
BRANCH  25  27
ATOM     27  N   PHE d   1      51.925  16.391 101.404  0.00  0.00    -0.346 N 
ATOM     28  C   PHE d   1      51.042  17.138 102.058  0.00  0.00     0.240 C 
ATOM     29  O   PHE d   1      51.085  18.369 102.068  0.00  0.00    -0.271 OA
ATOM     30  H11 PHE d   1      51.852  15.395 101.455  0.00  0.00     0.163 HD
BRANCH  28  31
ATOM     31  CA  PHE d   1      49.948  16.386 102.817  0.00  0.00     0.086 C 
ATOM     32  H7  PHE d   1      50.287  15.352 102.978  0.00  0.00     0.086 H 
BRANCH  31  33
ATOM     33  N   PHE d   1      49.680  16.989 104.116  0.00  0.00    -0.347 N 
ATOM     34  C   GLY d   1      49.988  16.358 105.244  0.00  0.00     0.243 C 
ATOM     35  O   GLY d   1      50.510  15.241 105.258  0.00  0.00    -0.272 OA
ATOM     36  H6  PHE d   1      49.257  17.894 104.159  0.00  0.00     0.163 HD
BRANCH  34  37
ATOM     37  CA  GLY d   1      49.660  17.084 106.535  0.00  0.00     0.152 C 
ATOM     38  H4  GLY d   1      49.481  16.341 107.326  0.00  0.00     0.090 H 
ATOM     39  H5  GLY d   1      50.514  17.719 106.814  0.00  0.00     0.090 H 
BRANCH  37  40
ATOM     40  N   GLY d   1      48.442  17.943 106.391  0.00  0.00    -0.071 N 
ATOM     41  H1  GLY d   1      48.254  18.409 107.265  0.00  0.00     0.274 HD
ATOM     42  H2  GLY d   1      47.653  17.368 106.140  0.00  0.00     0.274 HD
ATOM     43  H3  GLY d   1      48.599  18.631 105.671  0.00  0.00     0.274 HD
ENDBRANCH  37  40
ENDBRANCH  34  37
ENDBRANCH  31  33
BRANCH  31  44
ATOM     44  CB  PHE d   1      48.665  16.358 101.986  0.00  0.00    -0.049 C 
ATOM     45  H8  PHE d   1      48.872  15.902 101.007  0.00  0.00     0.030 H 
ATOM     46  H9  PHE d   1      48.299  17.385 101.842  0.00  0.00     0.030 H 
ATOM     47  H10 PHE d   1      47.901  15.767 102.511  0.00  0.00     0.030 H 
ENDBRANCH  31  44
ENDBRANCH  28  31
ENDBRANCH  25  27
BRANCH  25  48
ATOM     48  CB  PHE d   1      54.356  16.459 101.088  0.00  0.00    -0.014 C 
ATOM     49  H13 PHE d   1      55.150  16.971 100.524  0.00  0.00     0.043 H 
ATOM     50  H14 PHE d   1      54.403  15.379 100.887  0.00  0.00     0.043 H 
BRANCH  48  51
ATOM     51  CG  PHE d   1      54.589  16.684 102.557  0.00  0.00    -0.056 A 
ATOM     52  CD1 PHE d   1      54.032  15.823 103.498  0.00  0.00    -0.077 A 
ATOM     53  CE1 PHE d   1      54.171  16.065 104.863  0.00  0.00    -0.082 A 
ATOM     54  H15 PHE d   1      53.482  14.951 103.164  0.00  0.00     0.084 H 
ATOM     55  CZ  PHE d   1      54.878  17.182 105.297  0.00  0.00    -0.083 A 
ATOM     56  H17 PHE d   1      53.730  15.386 105.584  0.00  0.00     0.083 H 
ATOM     57  CE2 PHE d   1      55.445  18.051 104.360  0.00  0.00    -0.082 A 
ATOM     58  H19 PHE d   1      54.989  17.378 106.357  0.00  0.00     0.083 H 
ATOM     59  CD2 PHE d   1      55.298  17.796 103.002  0.00  0.00    -0.077 A 
ATOM     60  H18 PHE d   1      55.998  18.922 104.692  0.00  0.00     0.083 H 
ATOM     61  H16 PHE d   1      55.741  18.472 102.280  0.00  0.00     0.084 H 
ENDBRANCH  48  51
ENDBRANCH  25  48
ENDBRANCH  22  25
ENDBRANCH  19  21
BRANCH  19  62
ATOM     62  CB  PHE d   1      51.161  18.609  96.596  0.00  0.00    -0.014 C 
ATOM     63  H22 PHE d   1      50.907  18.528  95.529  0.00  0.00     0.043 H 
ATOM     64  H23 PHE d   1      51.612  19.593  96.792  0.00  0.00     0.043 H 
BRANCH  62  65
ATOM     65  CG  PHE d   1      49.895  18.505  97.390  0.00  0.00    -0.056 A 
ATOM     66  CD1 PHE d   1      48.903  17.605  97.019  0.00  0.00    -0.077 A 
ATOM     67  CE1 PHE d   1      47.724  17.500  97.754  0.00  0.00    -0.082 A 
ATOM     68  H24 PHE d   1      49.048  16.977  96.147  0.00  0.00     0.084 H 
ATOM     69  CZ  PHE d   1      47.531  18.304  98.870  0.00  0.00    -0.083 A 
ATOM     70  H26 PHE d   1      46.959  16.792  97.456  0.00  0.00     0.083 H 
ATOM     71  CE2 PHE d   1      48.513  19.208  99.254  0.00  0.00    -0.082 A 
ATOM     72  H28 PHE d   1      46.613  18.226  99.442  0.00  0.00     0.083 H 
ATOM     73  CD2 PHE d   1      49.692  19.308  98.509  0.00  0.00    -0.077 A 
ATOM     74  H27 PHE d   1      48.366  19.833 100.127  0.00  0.00     0.083 H 
ATOM     75  H25 PHE d   1      50.456  20.018  98.806  0.00  0.00     0.084 H 
ENDBRANCH  62  65
ENDBRANCH  19  62
ENDBRANCH  16  19
ENDBRANCH  13  15
BRANCH  13  76
ATOM     76  CB  SER d   1      54.841  15.839  93.577  0.00  0.00     0.044 C 
ATOM     77  H31 SER d   1      54.422  14.825  93.498  0.00  0.00     0.077 H 
ATOM     78  H32 SER d   1      55.370  15.943  94.536  0.00  0.00     0.077 H 
BRANCH  76  79
ATOM     79  OG  SER d   1      55.755  16.058  92.506  0.00  0.00    -0.398 OA
ATOM     80  H33 SER d   1      56.456  15.419  92.554  0.00  0.00     0.209 HD
ENDBRANCH  76  79
ENDBRANCH  13  76
ENDBRANCH  10  13
ENDBRANCH   7   9
BRANCH   7  81
ATOM     81  CB  ALA d   1      51.800  17.021  89.466  0.00  0.00    -0.049 C 
ATOM     82  H36 ALA d   1      51.114  16.754  88.649  0.00  0.00     0.030 H 
ATOM     83  H37 ALA d   1      52.661  17.570  89.057  0.00  0.00     0.030 H 
ATOM     84  H38 ALA d   1      51.273  17.655  90.195  0.00  0.00     0.030 H 
ENDBRANCH   7  81
ENDBRANCH   4   7
ENDBRANCH   1   3
BRANCH   1  85
ATOM     85  CB  ARG d   1      51.755  11.795  87.584  0.00  0.00    -0.036 C 
ATOM     86  H41 ARG d   1      52.017  11.160  86.725  0.00  0.00     0.036 H 
ATOM     87  H42 ARG d   1      50.674  11.997  87.575  0.00  0.00     0.036 H 
BRANCH  85  88
ATOM     88  CG  ARG d   1      52.066  11.015  88.842  0.00  0.00    -0.048 C 
ATOM     89  H43 ARG d   1      51.594  11.502  89.708  0.00  0.00     0.035 H 
ATOM     90  H44 ARG d   1      53.155  10.972  88.994  0.00  0.00     0.035 H 
BRANCH  88  91
ATOM     91  CD  ARG d   1      51.511   9.602  88.677  0.00  0.00     0.009 C 
ATOM     92  H45 ARG d   1      51.754   9.248  87.664  0.00  0.00     0.064 H 
ATOM     93  H46 ARG d   1      50.419   9.641  88.799  0.00  0.00     0.064 H 
BRANCH  91  94
ATOM     94  NE  ARG d   1      52.051   8.647  89.642  0.00  0.00    -0.227 N 
ATOM     95  CZ  ARG d   1      52.569   7.466  89.312  0.00  0.00     0.665 C 
ATOM     96  NH2 ARG d   1      53.019   6.651  90.253  0.00  0.00    -0.235 N 
ATOM     97  NH1 ARG d   1      52.623   7.091  88.039  0.00  0.00    -0.235 N 
ATOM     98  H50 ARG d   1      52.980   6.935  91.242  0.00  0.00     0.174 HD
ATOM     99  H51 ARG d   1      53.408   5.732  89.996  0.00  0.00     0.174 HD
ATOM    100  H48 ARG d   1      53.025   6.176  87.788  0.00  0.00     0.174 HD
ATOM    101  H49 ARG d   1      52.263   7.715  87.303  0.00  0.00     0.174 HD
ATOM    102  H47 ARG d   1      52.029   8.903  90.639  0.00  0.00     0.177 HD
ENDBRANCH  91  94
ENDBRANCH  88  91
ENDBRANCH  85  88
ENDBRANCH   1  85
BRANCH   1 103
ATOM    103  C   ARG d   1      52.146  13.663  86.016  0.00  0.00     0.240 C 
ATOM    104  O   ARG d   1      51.274  14.521  85.851  0.00  0.00    -0.271 OA
ATOM    105  N   GLY d   1      52.842  13.123  85.021  0.00  0.00    -0.351 N 
ATOM    106  H52 GLY d   1      53.548  12.447  85.232  0.00  0.00     0.163 HD
BRANCH 105 107
ATOM    107  CA  GLY d   1      52.605  13.487  83.637  0.00  0.00     0.069 C 
ATOM    108  H53 GLY d   1      53.502  13.963  83.213  0.00  0.00     0.078 H 
ATOM    109  H54 GLY d   1      51.755  14.182  83.570  0.00  0.00     0.078 H 
BRANCH 107 110
ATOM    110  C   GLY d   1      52.291  12.206  82.884  0.00  0.00     0.236 C 
ATOM    111  O   GLY d   1      52.806  11.141  83.234  0.00  0.00    -0.272 OA
ATOM    112  N   HIS d   1      51.439  12.300  81.870  0.00  0.00    -0.346 N 
ATOM    113  H55 HIS d   1      51.052  13.194  81.645  0.00  0.00     0.163 HD
BRANCH 112 114
ATOM    114  CA  HIS d   1      51.049  11.143  81.075  0.00  0.00     0.094 C 
ATOM    115  H56 HIS d   1      51.823  10.370  81.192  0.00  0.00     0.088 H 
BRANCH 114 116
ATOM    116  CB  HIS d   1      49.711  10.580  81.559  0.00  0.00     0.002 C 
ATOM    117  H57 HIS d   1      49.018  11.420  81.714  0.00  0.00     0.046 H 
ATOM    118  H58 HIS d   1      49.879  10.062  82.515  0.00  0.00     0.046 H 
BRANCH 116 119
ATOM    119  CG  HIS d   1      49.078   9.616  80.605  0.00  0.00     0.030 A 
ATOM    120  ND1 HIS d   1      49.608   8.360  80.357  0.00  0.00    -0.353 N 
ATOM    121  CE1 HIS d   1      48.850   7.738  79.460  0.00  0.00     0.063 A 
ATOM    122  H59 HIS d   1      50.454   7.971  80.797  0.00  0.00     0.166 HD
ATOM    123  NE2 HIS d   1      47.863   8.542  79.125  0.00  0.00    -0.254 NA
ATOM    124  H61 HIS d   1      49.017   6.735  79.069  0.00  0.00     0.143 H 
ATOM    125  CD2 HIS d   1      47.980   9.715  79.821  0.00  0.00     0.025 A 
ATOM    126  H60 HIS d   1      47.311  10.572  79.755  0.00  0.00     0.117 H 
ENDBRANCH 116 119
ENDBRANCH 114 116
BRANCH 114 127
ATOM    127  C   HIS d   1      50.925  11.484  79.604  0.00  0.00     0.241 C 
ATOM    128  O   HIS d   1      50.414  12.547  79.238  0.00  0.00    -0.271 OA
ATOM    129  N   ARG d   1      51.378  10.564  78.755  0.00  0.00    -0.346 N 
ATOM    130  H62 ARG d   1      51.771   9.717  79.115  0.00  0.00     0.163 HD
BRANCH 129 131
ATOM    131  CA  ARG d   1      51.313  10.767  77.292  0.00  0.00     0.089 C 
ATOM    132  H63 ARG d   1      50.919  11.778  77.110  0.00  0.00     0.087 H 
BRANCH 131 133
ATOM    133  CB  ARG d   1      52.709  10.666  76.689  0.00  0.00    -0.036 C 
ATOM    134  H64 ARG d   1      52.603  10.613  75.595  0.00  0.00     0.036 H 
ATOM    135  H65 ARG d   1      53.172   9.739  77.058  0.00  0.00     0.036 H 
BRANCH 133 136
ATOM    136  CG  ARG d   1      53.644  11.817  77.013  0.00  0.00    -0.048 C 
ATOM    137  H66 ARG d   1      53.865  11.803  78.091  0.00  0.00     0.035 H 
ATOM    138  H67 ARG d   1      53.146  12.763  76.753  0.00  0.00     0.035 H 
BRANCH 136 139
ATOM    139  CD  ARG d   1      54.960  11.723  76.238  0.00  0.00     0.009 C 
ATOM    140  H68 ARG d   1      55.442  12.712  76.237  0.00  0.00     0.064 H 
ATOM    141  H69 ARG d   1      54.741  11.421  75.203  0.00  0.00     0.064 H 
BRANCH 139 142
ATOM    142  NE  ARG d   1      55.877  10.754  76.826  0.00  0.00    -0.227 N 
ATOM    143  CZ  ARG d   1      56.960  10.286  76.210  0.00  0.00     0.665 C 
ATOM    144  NH2 ARG d   1      57.752   9.411  76.826  0.00  0.00    -0.235 N 
ATOM    145  NH1 ARG d   1      57.262  10.696  74.977  0.00  0.00    -0.235 N 
ATOM    146  H73 ARG d   1      57.524   9.091  77.778  0.00  0.00     0.174 HD
ATOM    147  H74 ARG d   1      58.593   9.054  76.351  0.00  0.00     0.174 HD
ATOM    148  H71 ARG d   1      58.101  10.331  74.504  0.00  0.00     0.174 HD
ATOM    149  H72 ARG d   1      56.656  11.377  74.498  0.00  0.00     0.174 HD
ATOM    150  H70 ARG d   1      55.674  10.411  77.776  0.00  0.00     0.177 HD
ENDBRANCH 139 142
ENDBRANCH 136 139
ENDBRANCH 133 136
ENDBRANCH 131 133
BRANCH 131 151
ATOM    151  C   ARG d   1      50.404   9.762  76.570  0.00  0.00     0.243 C 
ATOM    152  O   ARG d   1      50.770   8.608  76.407  0.00  0.00    -0.271 OA
ATOM    153  N   PRO d   1      49.214  10.212  76.104  0.00  0.00    -0.336 N 
ATOM    154  CA  PRO d   1      48.255   9.346  75.382  0.00  0.00     0.095 C 
ATOM    155  CD  PRO d   1      48.613  11.510  76.475  0.00  0.00    -0.001 C 
ATOM    156  CB  PRO d   1      46.898  10.114  75.512  0.00  0.00    -0.035 C 
ATOM    157  H75 PRO d   1      48.179   8.345  75.832  0.00  0.00     0.089 H 
ATOM    158  CG  PRO d   1      47.156  11.181  76.631  0.00  0.00    -0.048 C 
ATOM    159  H76 PRO d   1      46.090   9.428  75.808  0.00  0.00     0.036 H 
ATOM    160  H77 PRO d   1      46.635  10.603  74.562  0.00  0.00     0.036 H 
ATOM    161  H78 PRO d   1      46.533  12.074  76.474  0.00  0.00     0.035 H 
ATOM    162  H79 PRO d   1      46.952  10.762  77.628  0.00  0.00     0.035 H 
ATOM    163  H80 PRO d   1      48.766  12.257  75.682  0.00  0.00     0.064 H 
ATOM    164  H81 PRO d   1      49.036  11.885  77.419  0.00  0.00     0.064 H 
BRANCH 154 165
ATOM    165  C   PRO d   1      48.781   9.237  73.911  0.00  0.00     0.163 C 
ATOM    166  O   PRO d   1      49.837   9.831  73.679  0.00  0.00    -0.648 OA
BRANCH 165 167
ATOM    167  O1  PRO d   1      48.133   8.550  72.975  0.00  0.00    -0.775 OA
ATOM    168  H82 PRO d   1      48.695   7.859  72.644  0.00  0.00     0.167 HD
ENDBRANCH 165 167
ENDBRANCH 154 165
ENDBRANCH 131 151
ENDBRANCH 129 131
ENDBRANCH 114 127
ENDBRANCH 112 114
ENDBRANCH 107 110
ENDBRANCH 105 107
ENDBRANCH   1 103
TORSDOF 40
