REMARK  14 active torsions:
REMARK  status: ('A' for Active; 'I' for Inactive)
REMARK    1  A    between atoms: SG_1  and  CA1_2 
REMARK    2  A    between atoms: CA1_2  and  CB1_3 
REMARK    3  A    between atoms: CA1_2  and  C1_8 
REMARK    4  A    between atoms: CB1_3  and  CG1_4 
REMARK    5  A    between atoms: CG1_4  and  CD1_5 
REMARK    6  A    between atoms: CD1_5  and  CE1_6 
REMARK    7  A    between atoms: CE1_6  and  CF1_7 
REMARK       I    between atoms: C1_8  and  N2_10 
REMARK    8  A    between atoms: N2_10  and  CA2_11 
REMARK    9  A    between atoms: CA2_11  and  CB2_12 
REMARK   10  A    between atoms: CA2_11  and  C2_19 
REMARK   11  A    between atoms: CB2_12  and  CG2_13 
REMARK       I    between atoms: C2_19  and  N3_21 
REMARK   12  A    between atoms: N3_21  and  CA3_22 
REMARK   13  A    between atoms: CA3_22  and  CB3_23 
REMARK   14  A    between atoms: CA3_22  and  C3_24 
ROOT
ATOM      1  CA2 TI1 d   1      24.153  49.415  33.322  0.00  0.00     0.093 C 
ATOM      2  H15 TI1 d   1      23.157  49.224  32.897  0.00  0.00     0.088 H 
ENDROOT
BRANCH   1   3
ATOM      3  N2  TI1 d   1      25.004  49.948  32.284  0.00  0.00    -0.346 N 
ATOM      4  C1  TI1 d   1      24.395  50.759  31.446  0.00  0.00     0.232 C 
ATOM      5  O1  TI1 d   1      23.200  50.983  31.540  0.00  0.00    -0.272 OA
ATOM      6  H14 TI1 d   1      25.975  49.720  32.209  0.00  0.00     0.163 HD
BRANCH   4   7
ATOM      7  CA1 TI1 d   1      25.231  51.307  30.338  0.00  0.00     0.065 C 
ATOM      8  H2  TI1 d   1      25.127  52.401  30.285  0.00  0.00     0.071 H 
BRANCH   7   9
ATOM      9  SG  TI1 d   1      24.637  50.538  28.819  0.00  0.00    -0.168 SA
ATOM     10  H1  TI1 d   1      23.669  50.781  28.677  0.00  0.00     0.102 HD
ENDBRANCH   7   9
BRANCH   7  11
ATOM     11  CB1 TI1 d   1      26.705  50.932  30.545  0.00  0.00    -0.045 C 
ATOM     12  H3  TI1 d   1      27.040  50.319  29.695  0.00  0.00     0.035 H 
ATOM     13  H4  TI1 d   1      26.798  50.352  31.475  0.00  0.00     0.035 H 
BRANCH  11  14
ATOM     14  CG1 TI1 d   1      27.597  52.173  30.643  0.00  0.00    -0.064 C 
ATOM     15  H5  TI1 d   1      27.428  52.808  29.761  0.00  0.00     0.033 H 
ATOM     16  H6  TI1 d   1      28.650  51.857  30.671  0.00  0.00     0.033 H 
BRANCH  14  17
ATOM     17  CD1 TI1 d   1      27.282  52.979  31.907  0.00  0.00    -0.065 C 
ATOM     18  H7  TI1 d   1      27.399  52.328  32.786  0.00  0.00     0.033 H 
ATOM     19  H8  TI1 d   1      26.244  53.340  31.854  0.00  0.00     0.033 H 
BRANCH  17  20
ATOM     20  CE1 TI1 d   1      28.223  54.181  32.045  0.00  0.00    -0.069 C 
ATOM     21  H9  TI1 d   1      29.264  53.828  32.002  0.00  0.00     0.032 H 
ATOM     22  H10 TI1 d   1      28.041  54.669  33.014  0.00  0.00     0.032 H 
BRANCH  20  23
ATOM     23  CF1 TI1 d   1      27.992  55.198  30.921  0.00  0.00    -0.077 C 
ATOM     24  H11 TI1 d   1      28.680  56.047  31.047  0.00  0.00     0.027 H 
ATOM     25  H12 TI1 d   1      26.954  55.559  30.961  0.00  0.00     0.027 H 
ATOM     26  H13 TI1 d   1      28.176  54.718  29.949  0.00  0.00     0.027 H 
ENDBRANCH  20  23
ENDBRANCH  17  20
ENDBRANCH  14  17
ENDBRANCH  11  14
ENDBRANCH   7  11
ENDBRANCH   4   7
ENDBRANCH   1   3
BRANCH   1  27
ATOM     27  CB2 TI1 d   1      24.725  48.102  33.816  0.00  0.00    -0.014 C 
ATOM     28  H16 TI1 d   1      25.632  48.275  34.413  0.00  0.00     0.043 H 
ATOM     29  H17 TI1 d   1      24.964  47.441  32.970  0.00  0.00     0.043 H 
BRANCH  27  30
ATOM     30  CG2 TI1 d   1      23.637  47.503  34.666  0.00  0.00    -0.056 A 
ATOM     31  CD3 TI1 d   1      23.752  47.476  36.044  0.00  0.00    -0.077 A 
ATOM     32  CE3 TI1 d   1      22.735  46.934  36.816  0.00  0.00    -0.082 A 
ATOM     33  H18 TI1 d   1      24.638  47.879  36.521  0.00  0.00     0.084 H 
ATOM     34  CZ2 TI1 d   1      21.590  46.437  36.198  0.00  0.00    -0.083 A 
ATOM     35  H20 TI1 d   1      22.831  46.897  37.895  0.00  0.00     0.083 H 
ATOM     36  CE4 TI1 d   1      21.477  46.500  34.829  0.00  0.00    -0.082 A 
ATOM     37  H22 TI1 d   1      20.794  46.004  36.792  0.00  0.00     0.083 H 
ATOM     38  CD4 TI1 d   1      22.496  47.026  34.067  0.00  0.00    -0.077 A 
ATOM     39  H21 TI1 d   1      20.579  46.133  34.346  0.00  0.00     0.083 H 
ATOM     40  H19 TI1 d   1      22.398  47.064  32.988  0.00  0.00     0.084 H 
ENDBRANCH  27  30
ENDBRANCH   1  27
BRANCH   1  41
ATOM     41  C2  TI1 d   1      24.006  50.399  34.434  0.00  0.00     0.241 C 
ATOM     42  O2  TI1 d   1      22.905  50.651  34.823  0.00  0.00    -0.271 OA
ATOM     43  N3  TI1 d   1      25.083  50.994  34.935  0.00  0.00    -0.345 N 
ATOM     44  H23 TI1 d   1      25.995  50.783  34.582  0.00  0.00     0.163 HD
BRANCH  43  45
ATOM     45  CA3 TI1 d   1      24.907  51.953  36.002  0.00  0.00     0.093 C 
ATOM     46  H24 TI1 d   1      23.864  52.303  36.011  0.00  0.00     0.089 H 
BRANCH  45  47
ATOM     47  CB3 TI1 d   1      25.239  51.308  37.342  0.00  0.00    -0.048 C 
ATOM     48  H25 TI1 d   1      25.102  52.045  38.147  0.00  0.00     0.030 H 
ATOM     49  H26 TI1 d   1      26.283  50.963  37.334  0.00  0.00     0.030 H 
ATOM     50  H27 TI1 d   1      24.571  50.451  37.512  0.00  0.00     0.030 H 
ENDBRANCH  45  47
BRANCH  45  51
ATOM     51  C3  TI1 d   1      25.806  53.091  35.787  0.00  0.00     0.196 C 
ATOM     52  O3  TI1 d   1      26.766  52.884  35.107  0.00  0.00    -0.646 OA
ATOM     53  OXT TI1 d   1      25.594  54.291  36.313  0.00  0.00    -0.646 OA
ENDBRANCH  45  51
ENDBRANCH  43  45
ENDBRANCH   1  41
TORSDOF 14
