REMARK WARNING: 32 MAX_TORS EXCEEDED!!!
REMARK  85 active torsions:
REMARK  status: ('A' for Active; 'I' for Inactive)
REMARK    1  A    between atoms: N_1  and  CA_2 
REMARK    2  A    between atoms: CA_2  and  C_3 
REMARK       I    between atoms: C_3  and  N_5 
REMARK    3  A    between atoms: N_5  and  CA_6 
REMARK    4  A    between atoms: CA_6  and  C_7 
REMARK    5  A    between atoms: CA_6  and  CB_9 
REMARK       I    between atoms: C_7  and  N_11 
REMARK    6  A    between atoms: CB_9  and  OG_10 
REMARK    7  A    between atoms: N_11  and  CA_12 
REMARK    8  A    between atoms: CA_12  and  C_13 
REMARK    9  A    between atoms: CA_12  and  CB_15 
REMARK       I    between atoms: C_13  and  N_19 
REMARK   10  A    between atoms: CB_15  and  CG_16 
REMARK   11  A    between atoms: CG_16  and  CD1_17 
REMARK   12  A    between atoms: CG_16  and  CD2_18 
REMARK   13  A    between atoms: N_19  and  CA_20 
REMARK   14  A    between atoms: CA_20  and  C_21 
REMARK   15  A    between atoms: CA_20  and  CB_23 
REMARK       I    between atoms: C_21  and  N_26 
REMARK   16  A    between atoms: CB_23  and  CG1_24 
REMARK   17  A    between atoms: CB_23  and  CG2_25 
REMARK   18  A    between atoms: N_26  and  CA_27 
REMARK   19  A    between atoms: CA_27  and  C_28 
REMARK   20  A    between atoms: CA_27  and  CB_30 
REMARK       I    between atoms: C_28  and  N_31 
REMARK   21  A    between atoms: N_31  and  CA_32 
REMARK   22  A    between atoms: CA_32  and  C_33 
REMARK   23  A    between atoms: CA_32  and  CB_35 
REMARK       I    between atoms: C_33  and  N_38 
REMARK   24  A    between atoms: CB_35  and  OG1_36 
REMARK   25  A    between atoms: CB_35  and  CG2_37 
REMARK   26  A    between atoms: N_38  and  CA_39 
REMARK   27  A    between atoms: CA_39  and  C_40 
REMARK   28  A    between atoms: CA_39  and  CB_42 
REMARK       I    between atoms: C_40  and  N_45 
REMARK   29  A    between atoms: CB_42  and  CG1_43 
REMARK   30  A    between atoms: CB_42  and  CG2_44 
REMARK   31  A    between atoms: N_45  and  CA_46 
REMARK   32  A    between atoms: CA_46  and  C_47 
REMARK   33  A    between atoms: CA_46  and  CB_49 
REMARK       I    between atoms: C_47  and  N_54 
REMARK   34  A    between atoms: CB_49  and  CG_50 
REMARK   35  A    between atoms: CG_50  and  CD_51 
REMARK   36  A    between atoms: CD_51  and  CE_52 
REMARK   37  A    between atoms: CE_52  and  NZ_53 
REMARK   38  A    between atoms: N_54  and  CA_55 
REMARK   39  A    between atoms: CA_55  and  C_56 
REMARK   40  A    between atoms: CA_55  and  CB_58 
REMARK       I    between atoms: C_56  and  N_63 
REMARK   41  A    between atoms: CB_58  and  CG_59 
REMARK   42  A    between atoms: CG_59  and  CD_60 
REMARK   43  A    between atoms: N_63  and  CA_64 
REMARK   44  A    between atoms: CA_64  and  C_65 
REMARK   45  A    between atoms: CA_64  and  CB_67 
REMARK       I    between atoms: C_65  and  N_68 
REMARK   46  A    between atoms: N_68  and  CA_69 
REMARK   47  A    between atoms: CA_69  and  C_70 
REMARK       I    between atoms: C_70  and  N_72 
REMARK   48  A    between atoms: N_72  and  CA_73 
REMARK   49  A    between atoms: CA_73  and  C_74 
REMARK   50  A    between atoms: CA_73  and  CB_76 
REMARK       I    between atoms: C_74  and  N_83 
REMARK   51  A    between atoms: CB_76  and  CG_77 
REMARK   52  A    between atoms: CG_77  and  CD_78 
REMARK   53  A    between atoms: CD_78  and  NE_79 
REMARK       I    between atoms: NE_79  and  CZ_80 
REMARK       I    between atoms: CZ_80  and  NH1_81 
REMARK       I    between atoms: CZ_80  and  NH2_82 
REMARK   54  A    between atoms: N_83  and  CA_84 
REMARK   55  A    between atoms: CA_84  and  C_85 
REMARK   56  A    between atoms: CA_84  and  CB_87 
REMARK       I    between atoms: C_85  and  N_89 
REMARK   57  A    between atoms: CB_87  and  OG_88 
REMARK   58  A    between atoms: N_89  and  CA_90 
REMARK   59  A    between atoms: CA_90  and  C_91 
REMARK   60  A    between atoms: CA_90  and  CB_93 
REMARK       I    between atoms: C_91  and  N_97 
REMARK   61  A    between atoms: CB_93  and  CG1_94 
REMARK   62  A    between atoms: CB_93  and  CG2_95 
REMARK   63  A    between atoms: CG1_94  and  CD1_96 
REMARK   64  A    between atoms: N_97  and  CA_98 
REMARK   65  A    between atoms: CA_98  and  C_99 
REMARK   66  A    between atoms: CA_98  and  CB_101 
REMARK       I    between atoms: C_99  and  N_107 
REMARK   67  A    between atoms: CB_101  and  CG_102 
REMARK   68  A    between atoms: N_107  and  CA_108 
REMARK   69  A    between atoms: CA_108  and  C_109 
REMARK   70  A    between atoms: CA_108  and  CB_111 
REMARK       I    between atoms: C_109  and  N_116 
REMARK   71  A    between atoms: CB_111  and  CG_112 
REMARK   72  A    between atoms: CG_112  and  CD_113 
REMARK   73  A    between atoms: N_116  and  CA_117 
REMARK   74  A    between atoms: CA_117  and  C_118 
REMARK   75  A    between atoms: CA_117  and  CB_120 
REMARK       I    between atoms: C_118  and  N_124 
REMARK   76  A    between atoms: CB_120  and  CG1_121 
REMARK   77  A    between atoms: CB_120  and  CG2_122 
REMARK   78  A    between atoms: CG1_121  and  CD1_123 
REMARK   79  A    between atoms: CA_125  and  C_126 
REMARK       I    between atoms: C_126  and  N_131 
REMARK   80  A    between atoms: N_131  and  CA_132 
REMARK   81  A    between atoms: CA_132  and  C_133 
REMARK   82  A    between atoms: CA_132  and  CB_135 
REMARK   83  A    between atoms: CB_135  and  CG_136 
REMARK   84  A    between atoms: CG_136  and  CD_137 
REMARK   85  A    between atoms: CD_137  and  NE_138 
REMARK       I    between atoms: NE_138  and  CZ_139 
REMARK       I    between atoms: CZ_139  and  NH1_140 
REMARK       I    between atoms: CZ_139  and  NH2_141 
ROOT
ATOM      1  CA  GLY d   1      20.119 -24.114  43.722  0.00  0.00     0.069 C 
ATOM      2  H77 GLY d   1      21.172 -24.422  43.794  0.00  0.00     0.078 H 
ATOM      3  H78 GLY d   1      19.519 -24.949  43.331  0.00  0.00     0.078 H 
ENDROOT
BRANCH   1   4
ATOM      4  N   GLY d   1      20.036 -23.019  42.774  0.00  0.00    -0.351 N 
ATOM      5  C   ALA d   1      18.859 -22.699  42.261  0.00  0.00     0.240 C 
ATOM      6  O   ALA d   1      17.836 -23.293  42.555  0.00  0.00    -0.271 OA
ATOM      7  H76 GLY d   1      20.858 -22.513  42.512  0.00  0.00     0.163 HD
BRANCH   5   8
ATOM      8  CA  ALA d   1      18.815 -21.563  41.262  0.00  0.00     0.086 C 
ATOM      9  H72 ALA d   1      17.982 -20.908  41.558  0.00  0.00     0.086 H 
BRANCH   8  10
ATOM     10  N   ALA d   1      20.005 -20.733  41.215  0.00  0.00    -0.346 N 
ATOM     11  C   GLU d   1      20.087 -19.611  41.923  0.00  0.00     0.241 C 
ATOM     12  O   GLU d   1      19.192 -19.227  42.691  0.00  0.00    -0.271 OA
ATOM     13  H71 ALA d   1      20.776 -21.010  40.641  0.00  0.00     0.163 HD
BRANCH  11  14
ATOM     14  CA  GLU d   1      21.368 -18.798  41.757  0.00  0.00     0.090 C 
ATOM     15  H66 GLU d   1      22.042 -19.281  41.034  0.00  0.00     0.087 H 
BRANCH  14  16
ATOM     16  N   GLU d   1      20.922 -17.514  41.243  0.00  0.00    -0.346 N 
ATOM     17  C   LYS d   1      21.303 -17.056  40.054  0.00  0.00     0.241 C 
ATOM     18  O   LYS d   1      22.128 -17.620  39.333  0.00  0.00    -0.271 OA
ATOM     19  H65 GLU d   1      20.308 -16.956  41.802  0.00  0.00     0.163 HD
BRANCH  17  20
ATOM     20  CA  LYS d   1      20.667 -15.753  39.635  0.00  0.00     0.089 C 
ATOM     21  H53 LYS d   1      20.456 -15.182  40.551  0.00  0.00     0.087 H 
BRANCH  20  22
ATOM     22  N   LYS d   1      21.497 -14.910  38.790  0.00  0.00    -0.346 N 
ATOM     23  C   VAL d   1      22.081 -13.837  39.320  0.00  0.00     0.241 C 
ATOM     24  O   VAL d   1      21.945 -13.526  40.503  0.00  0.00    -0.271 OA
ATOM     25  H52 LYS d   1      21.628 -15.133  37.824  0.00  0.00     0.163 HD
BRANCH  23  26
ATOM     26  CA  VAL d   1      22.925 -12.972  38.404  0.00  0.00     0.092 C 
ATOM     27  H44 VAL d   1      22.493 -12.951  37.393  0.00  0.00     0.088 H 
BRANCH  26  28
ATOM     28  N   VAL d   1      22.849 -11.668  39.013  0.00  0.00    -0.346 N 
ATOM     29  C   THR d   1      22.891 -10.560  38.291  0.00  0.00     0.243 C 
ATOM     30  O   THR d   1      23.055 -10.563  37.074  0.00  0.00    -0.271 OA
ATOM     31  H43 VAL d   1      22.762 -11.599  40.007  0.00  0.00     0.163 HD
BRANCH  29  32
ATOM     32  CA  THR d   1      22.740  -9.264  39.074  0.00  0.00     0.113 C 
ATOM     33  H37 THR d   1      23.180  -9.380  40.075  0.00  0.00     0.091 H 
BRANCH  32  34
ATOM     34  N   THR d   1      23.454  -8.212  38.368  0.00  0.00    -0.344 N 
ATOM     35  C   ALA d   1      24.445  -7.589  38.982  0.00  0.00     0.240 C 
ATOM     36  O   ALA d   1      24.736  -7.835  40.155  0.00  0.00    -0.271 OA
ATOM     37  H36 THR d   1      23.199  -7.964  37.433  0.00  0.00     0.163 HD
BRANCH  35  38
ATOM     38  CA  ALA d   1      25.210  -6.513  38.197  0.00  0.00     0.086 C 
ATOM     39  H32 ALA d   1      24.649  -6.223  37.296  0.00  0.00     0.086 H 
BRANCH  38  40
ATOM     40  N   ALA d   1      25.339  -5.378  39.104  0.00  0.00    -0.346 N 
ATOM     41  C   VAL d   1      24.323  -4.535  39.265  0.00  0.00     0.241 C 
ATOM     42  O   VAL d   1      23.260  -4.611  38.621  0.00  0.00    -0.271 OA
ATOM     43  H31 ALA d   1      26.192  -5.234  39.605  0.00  0.00     0.163 HD
BRANCH  41  44
ATOM     44  CA  VAL d   1      24.568  -3.434  40.284  0.00  0.00     0.092 C 
ATOM     45  H23 VAL d   1      25.627  -3.509  40.572  0.00  0.00     0.088 H 
BRANCH  44  46
ATOM     46  N   VAL d   1      24.375  -2.078  39.834  0.00  0.00    -0.346 N 
ATOM     47  C   LEU d   1      25.114  -1.544  38.873  0.00  0.00     0.241 C 
ATOM     48  O   LEU d   1      25.976  -2.171  38.247  0.00  0.00    -0.271 OA
ATOM     49  H22 VAL d   1      23.661  -1.523  40.261  0.00  0.00     0.163 HD
BRANCH  47  50
ATOM     50  CA  LEU d   1      24.825  -0.086  38.570  0.00  0.00     0.089 C 
ATOM     51  H12 LEU d   1      23.989   0.273  39.189  0.00  0.00     0.087 H 
BRANCH  50  52
ATOM     52  N   LEU d   1      26.047   0.630  38.907  0.00  0.00    -0.346 N 
ATOM     53  C   SER d   1      26.306   1.029  40.150  0.00  0.00     0.243 C 
ATOM     54  O   SER d   1      25.513   0.860  41.096  0.00  0.00    -0.271 OA
ATOM     55  H11 LEU d   1      26.710   0.827  38.185  0.00  0.00     0.163 HD
BRANCH  53  56
ATOM     56  CA  SER d   1      27.656   1.734  40.331  0.00  0.00     0.109 C 
ATOM     57  H7  SER d   1      27.790   2.391  39.459  0.00  0.00     0.090 H 
BRANCH  56  58
ATOM     58  N   SER d   1      27.803   2.564  41.513  0.00  0.00    -0.344 N 
ATOM     59  C   GLY d   1      28.586   3.646  41.511  0.00  0.00     0.243 C 
ATOM     60  O   GLY d   1      29.190   4.058  40.507  0.00  0.00    -0.272 OA
ATOM     61  H6  SER d   1      27.307   2.320  42.347  0.00  0.00     0.163 HD
BRANCH  59  62
ATOM     62  CA  GLY d   1      28.695   4.409  42.812  0.00  0.00     0.152 C 
ATOM     63  H4  GLY d   1      27.690   4.707  43.145  0.00  0.00     0.090 H 
ATOM     64  H5  GLY d   1      29.158   3.765  43.574  0.00  0.00     0.090 H 
BRANCH  62  65
ATOM     65  N   GLY d   1      29.531   5.624  42.619  0.00  0.00    -0.071 N 
ATOM     66  H1  GLY d   1      29.599   6.127  43.490  0.00  0.00     0.274 HD
ATOM     67  H2  GLY d   1      29.108   6.216  41.921  0.00  0.00     0.274 HD
ATOM     68  H3  GLY d   1      30.453   5.353  42.315  0.00  0.00     0.274 HD
ENDBRANCH  62  65
ENDBRANCH  59  62
ENDBRANCH  56  58
BRANCH  56  69
ATOM     69  CB  SER d   1      28.777   0.695  40.327  0.00  0.00     0.044 C 
ATOM     70  H8  SER d   1      29.748   1.212  40.329  0.00  0.00     0.077 H 
ATOM     71  H9  SER d   1      28.693   0.076  39.421  0.00  0.00     0.077 H 
BRANCH  69  72
ATOM     72  OG  SER d   1      28.692  -0.135  41.464  0.00  0.00    -0.398 OA
ATOM     73  H10 SER d   1      29.396  -0.772  41.443  0.00  0.00     0.209 HD
ENDBRANCH  69  72
ENDBRANCH  56  69
ENDBRANCH  53  56
ENDBRANCH  50  52
BRANCH  50  74
ATOM     74  CB  LEU d   1      24.478   0.104  37.102  0.00  0.00    -0.035 C 
ATOM     75  H13 LEU d   1      23.577  -0.485  36.875  0.00  0.00     0.037 H 
ATOM     76  H14 LEU d   1      25.318  -0.261  36.492  0.00  0.00     0.037 H 
BRANCH  74  77
ATOM     77  CG  LEU d   1      24.209   1.573  36.737  0.00  0.00    -0.059 C 
ATOM     78  H15 LEU d   1      25.088   2.174  37.014  0.00  0.00     0.038 H 
BRANCH  77  79
ATOM     79  CD1 LEU d   1      23.995   1.683  35.226  0.00  0.00    -0.073 C 
ATOM     80  H16 LEU d   1      23.802   2.732  34.959  0.00  0.00     0.028 H 
ATOM     81  H17 LEU d   1      23.134   1.065  34.932  0.00  0.00     0.028 H 
ATOM     82  H18 LEU d   1      24.895   1.331  34.702  0.00  0.00     0.028 H 
ENDBRANCH  77  79
BRANCH  77  83
ATOM     83  CD2 LEU d   1      22.982   2.113  37.514  0.00  0.00    -0.073 C 
ATOM     84  H19 LEU d   1      23.163   2.022  38.595  0.00  0.00     0.028 H 
ATOM     85  H20 LEU d   1      22.090   1.530  37.241  0.00  0.00     0.028 H 
ATOM     86  H21 LEU d   1      22.822   3.171  37.257  0.00  0.00     0.028 H 
ENDBRANCH  77  83
ENDBRANCH  74  77
ENDBRANCH  50  74
ENDBRANCH  47  50
ENDBRANCH  44  46
BRANCH  44  87
ATOM     87  CB  VAL d   1      23.721  -3.723  41.547  0.00  0.00    -0.033 C 
ATOM     88  H24 VAL d   1      22.660  -3.780  41.261  0.00  0.00     0.042 H 
BRANCH  87  89
ATOM     89  CG1 VAL d   1      24.142  -5.064  42.153  0.00  0.00    -0.071 C 
ATOM     90  H25 VAL d   1      23.538  -5.266  43.050  0.00  0.00     0.028 H 
ATOM     91  H26 VAL d   1      25.206  -5.024  42.428  0.00  0.00     0.028 H 
ATOM     92  H27 VAL d   1      23.984  -5.865  41.416  0.00  0.00     0.028 H 
ENDBRANCH  87  89
BRANCH  87  93
ATOM     93  CG2 VAL d   1      23.898  -2.585  42.564  0.00  0.00    -0.071 C 
ATOM     94  H28 VAL d   1      23.590  -1.633  42.107  0.00  0.00     0.028 H 
ATOM     95  H29 VAL d   1      24.954  -2.522  42.864  0.00  0.00     0.028 H 
ATOM     96  H30 VAL d   1      23.277  -2.784  43.449  0.00  0.00     0.028 H 
ENDBRANCH  87  93
ENDBRANCH  44  87
ENDBRANCH  41  44
ENDBRANCH  38  40
BRANCH  38  97
ATOM     97  CB  ALA d   1      26.610  -7.041  37.789  0.00  0.00    -0.049 C 
ATOM     98  H33 ALA d   1      26.495  -7.896  37.106  0.00  0.00     0.030 H 
ATOM     99  H34 ALA d   1      27.157  -7.361  38.688  0.00  0.00     0.030 H 
ATOM    100  H35 ALA d   1      27.171  -6.241  37.284  0.00  0.00     0.030 H 
ENDBRANCH  38  97
ENDBRANCH  35  38
ENDBRANCH  32  34
BRANCH  32 101
ATOM    101  CB  THR d   1      21.218  -8.970  39.222  0.00  0.00     0.060 C 
ATOM    102  H38 THR d   1      20.759  -9.763  39.830  0.00  0.00     0.086 H 
BRANCH 101 103
ATOM    103  OG1 THR d   1      20.615  -8.952  37.925  0.00  0.00    -0.393 OA
ATOM    104  H39 THR d   1      21.022  -8.275  37.397  0.00  0.00     0.210 HD
ENDBRANCH 101 103
BRANCH 101 105
ATOM    105  CG2 THR d   1      20.968  -7.609  39.898  0.00  0.00    -0.050 C 
ATOM    106  H40 THR d   1      19.885  -7.436  39.985  0.00  0.00     0.031 H 
ATOM    107  H41 THR d   1      21.419  -6.810  39.291  0.00  0.00     0.031 H 
ATOM    108  H42 THR d   1      21.421  -7.609  40.900  0.00  0.00     0.031 H 
ENDBRANCH 101 105
ENDBRANCH  32 101
ENDBRANCH  29  32
ENDBRANCH  26  28
BRANCH  26 109
ATOM    109  CB  VAL d   1      24.390 -13.470  38.309  0.00  0.00    -0.033 C 
ATOM    110  H45 VAL d   1      24.965 -12.738  37.723  0.00  0.00     0.042 H 
BRANCH 109 111
ATOM    111  CG1 VAL d   1      25.032 -13.562  39.714  0.00  0.00    -0.071 C 
ATOM    112  H46 VAL d   1      26.069 -13.917  39.621  0.00  0.00     0.028 H 
ATOM    113  H47 VAL d   1      24.458 -14.266  40.334  0.00  0.00     0.028 H 
ATOM    114  H48 VAL d   1      25.026 -12.568  40.186  0.00  0.00     0.028 H 
ENDBRANCH 109 111
BRANCH 109 115
ATOM    115  CG2 VAL d   1      24.437 -14.805  37.572  0.00  0.00    -0.071 C 
ATOM    116  H49 VAL d   1      23.971 -14.694  36.582  0.00  0.00     0.028 H 
ATOM    117  H50 VAL d   1      23.890 -15.563  38.151  0.00  0.00     0.028 H 
ATOM    118  H51 VAL d   1      25.484 -15.121  37.452  0.00  0.00     0.028 H 
ENDBRANCH 109 115
ENDBRANCH  26 109
ENDBRANCH  23  26
ENDBRANCH  20  22
BRANCH  20 119
ATOM    119  CB  LYS d   1      19.333 -16.057  38.942  0.00  0.00    -0.038 C 
ATOM    120  H54 LYS d   1      18.801 -16.814  39.537  0.00  0.00     0.036 H 
ATOM    121  H55 LYS d   1      19.549 -16.462  37.942  0.00  0.00     0.036 H 
BRANCH 119 122
ATOM    122  CG  LYS d   1      18.423 -14.856  38.780  0.00  0.00    -0.061 C 
ATOM    123  H56 LYS d   1      18.978 -14.051  38.277  0.00  0.00     0.033 H 
ATOM    124  H57 LYS d   1      18.101 -14.513  39.775  0.00  0.00     0.033 H 
BRANCH 122 125
ATOM    125  CD  LYS d   1      17.195 -15.202  37.954  0.00  0.00    -0.043 C 
ATOM    126  H58 LYS d   1      16.620 -15.983  38.473  0.00  0.00     0.035 H 
ATOM    127  H59 LYS d   1      17.516 -15.576  36.970  0.00  0.00     0.035 H 
BRANCH 125 128
ATOM    128  CE  LYS d   1      16.308 -13.973  37.758  0.00  0.00     0.080 C 
ATOM    129  H60 LYS d   1      16.853 -13.241  37.143  0.00  0.00     0.075 H 
ATOM    130  H61 LYS d   1      16.092 -13.535  38.744  0.00  0.00     0.075 H 
BRANCH 128 131
ATOM    131  NZ  LYS d   1      15.010 -14.293  37.082  0.00  0.00    -0.079 N 
ATOM    132  H62 LYS d   1      14.468 -13.450  36.979  0.00  0.00     0.274 HD
ATOM    133  H63 LYS d   1      14.496 -14.957  37.639  0.00  0.00     0.274 HD
ATOM    134  H64 LYS d   1      15.193 -14.688  36.173  0.00  0.00     0.274 HD
ENDBRANCH 128 131
ENDBRANCH 125 128
ENDBRANCH 122 125
ENDBRANCH 119 122
ENDBRANCH  20 119
ENDBRANCH  17  20
ENDBRANCH  14  16
BRANCH  14 135
ATOM    135  CB  GLU d   1      22.089 -18.670  43.104  0.00  0.00    -0.029 C 
ATOM    136  H67 GLU d   1      21.451 -18.096  43.792  0.00  0.00     0.037 H 
ATOM    137  H68 GLU d   1      23.036 -18.133  42.947  0.00  0.00     0.037 H 
BRANCH 135 138
ATOM    138  CG  GLU d   1      22.401 -20.055  43.750  0.00  0.00     0.018 C 
ATOM    139  H69 GLU d   1      21.449 -20.521  44.043  0.00  0.00     0.049 H 
ATOM    140  H70 GLU d   1      23.017 -19.887  44.645  0.00  0.00     0.049 H 
BRANCH 138 141
ATOM    141  CD  GLU d   1      23.156 -21.037  42.819  0.00  0.00     0.172 C 
ATOM    142  OE1 GLU d   1      24.329 -20.806  42.477  0.00  0.00    -0.648 OA
ATOM    143  OE2 GLU d   1      22.580 -22.058  42.420  0.00  0.00    -0.648 OA
ENDBRANCH 138 141
ENDBRANCH 135 138
ENDBRANCH  14 135
ENDBRANCH  11  14
ENDBRANCH   8  10
BRANCH   8 144
ATOM    144  CB  ALA d   1      18.500 -22.130  39.854  0.00  0.00    -0.049 C 
ATOM    145  H73 ALA d   1      17.597 -22.756  39.904  0.00  0.00     0.030 H 
ATOM    146  H74 ALA d   1      19.348 -22.737  39.505  0.00  0.00     0.030 H 
ATOM    147  H75 ALA d   1      18.331 -21.299  39.153  0.00  0.00     0.030 H 
ENDBRANCH   8 144
ENDBRANCH   5   8
ENDBRANCH   1   4
BRANCH   1 148
ATOM    148  C   GLY d   1      19.625 -23.798  45.126  0.00  0.00     0.236 C 
ATOM    149  O   GLY d   1      19.258 -22.664  45.421  0.00  0.00    -0.272 OA
ATOM    150  N   ARG d   1      19.615 -24.825  45.978  0.00  0.00    -0.346 N 
ATOM    151  H79 ARG d   1      19.892 -25.724  45.640  0.00  0.00     0.163 HD
BRANCH 150 152
ATOM    152  CA  ARG d   1      19.222 -24.704  47.373  0.00  0.00     0.089 C 
ATOM    153  H80 ARG d   1      18.172 -24.383  47.444  0.00  0.00     0.087 H 
BRANCH 152 154
ATOM    154  C   ARG d   1      20.135 -23.645  47.994  0.00  0.00     0.241 C 
ATOM    155  O   ARG d   1      21.363 -23.660  47.799  0.00  0.00    -0.271 OA
ATOM    156  N   SER d   1      19.528 -22.729  48.741  0.00  0.00    -0.344 N 
ATOM    157  H92 SER d   1      18.542 -22.799  48.893  0.00  0.00     0.163 HD
BRANCH 156 158
ATOM    158  CA  SER d   1      20.265 -21.624  49.345  0.00  0.00     0.109 C 
ATOM    159  H93 SER d   1      21.154 -21.446  48.721  0.00  0.00     0.090 H 
BRANCH 158 160
ATOM    160  C   SER d   1      20.746 -21.841  50.771  0.00  0.00     0.243 C 
ATOM    161  O   SER d   1      21.635 -21.137  51.247  0.00  0.00    -0.271 OA
ATOM    162  N   ILE d   1      20.173 -22.812  51.455  0.00  0.00    -0.346 N 
ATOM    163  H97 ILE d   1      19.497 -23.403  51.015  0.00  0.00     0.163 HD
BRANCH 162 164
ATOM    164  CA  ILE d   1      20.525 -23.022  52.851  0.00  0.00     0.092 C 
ATOM    165  H98 ILE d   1      21.555 -22.680  53.028  0.00  0.00     0.088 H 
BRANCH 164 166
ATOM    166  C   ILE d   1      20.401 -24.488  53.171  0.00  0.00     0.241 C 
ATOM    167  O   ILE d   1      19.924 -25.261  52.353  0.00  0.00    -0.271 OA
ATOM    168  N   HIS d   1      20.813 -24.869  54.370  0.00  0.00    -0.346 N 
ATOM    169 8H10 HIS d   1      21.195 -24.202  55.009  0.00  0.00     0.163 HD
BRANCH 168 170
ATOM    170  CA  HIS d   1      20.704 -26.262  54.745  0.00  0.00     0.094 C 
ATOM    171 9H10 HIS d   1      21.219 -26.873  53.990  0.00  0.00     0.088 H 
BRANCH 170 172
ATOM    172  C   HIS d   1      19.236 -26.680  54.803  0.00  0.00     0.241 C 
ATOM    173  O   HIS d   1      18.327 -25.847  54.940  0.00  0.00    -0.271 OA
ATOM    174  N   GLU d   1      19.002 -27.977  54.670  0.00  0.00    -0.346 N 
ATOM    175 5H11 GLU d   1      19.762 -28.602  54.492  0.00  0.00     0.163 HD
BRANCH 174 176
ATOM    176  CA  GLU d   1      17.653 -28.498  54.781  0.00  0.00     0.090 C 
ATOM    177 6H11 GLU d   1      16.928 -27.681  54.650  0.00  0.00     0.087 H 
BRANCH 176 178
ATOM    178  C   GLU d   1      17.519 -29.108  56.180  0.00  0.00     0.241 C 
ATOM    179  O   GLU d   1      18.234 -30.053  56.524  0.00  0.00    -0.271 OA
ATOM    180  N   ILE d   1      16.621 -28.545  56.982  0.00  0.00    -0.346 N 
ATOM    181 1H12 ILE d   1      16.108 -27.756  56.645  0.00  0.00     0.163 HD
BRANCH 180 182
ATOM    182  CA  ILE d   1      16.351 -29.027  58.330  0.00  0.00     0.092 C 
ATOM    183 2H12 ILE d   1      17.299 -29.216  58.854  0.00  0.00     0.088 H 
BRANCH 182 184
ATOM    184  C   ILE d   1      15.562 -30.321  58.187  0.00  0.00     0.243 C 
ATOM    185  O   ILE d   1      14.507 -30.347  57.568  0.00  0.00    -0.271 OA
ATOM    186  N   PRO d   1      16.056 -31.413  58.784  0.00  0.00    -0.337 N 
ATOM    187  CA  PRO d   1      15.387 -32.714  58.698  0.00  0.00     0.091 C 
ATOM    188  CD  PRO d   1      17.290 -31.513  59.579  0.00  0.00    -0.001 C 
ATOM    189  CB  PRO d   1      16.453 -33.666  59.222  0.00  0.00    -0.036 C 
ATOM    190 2H13 PRO d   1      15.188 -32.935  57.639  0.00  0.00     0.087 H 
ATOM    191  CG  PRO d   1      17.132 -32.854  60.252  0.00  0.00    -0.048 C 
ATOM    192 3H13 PRO d   1      17.151 -33.959  58.424  0.00  0.00     0.036 H 
ATOM    193 4H13 PRO d   1      16.000 -34.567  59.662  0.00  0.00     0.036 H 
ATOM    194 5H13 PRO d   1      18.111 -33.283  60.512  0.00  0.00     0.035 H 
ATOM    195 6H13 PRO d   1      16.516 -32.771  61.159  0.00  0.00     0.035 H 
ATOM    196 7H13 PRO d   1      17.354 -30.701  60.319  0.00  0.00     0.064 H 
ATOM    197 8H13 PRO d   1      18.181 -31.493  58.935  0.00  0.00     0.064 H 
BRANCH 187 198
ATOM    198  C   PRO d   1      14.056 -32.859  59.429  0.00  0.00     0.241 C 
ATOM    199  O   PRO d   1      13.771 -32.124  60.382  0.00  0.00    -0.271 OA
ATOM    200  N   ARG d   1      13.238 -33.804  58.962  0.00  0.00    -0.345 N 
ATOM    201 9H13 ARG d   1      13.512 -34.343  58.166  0.00  0.00     0.163 HD
BRANCH 200 202
ATOM    202  CA  ARG d   1      11.943 -34.063  59.599  0.00  0.00     0.096 C 
ATOM    203 0H14 ARG d   1      11.388 -33.117  59.682  0.00  0.00     0.089 H 
BRANCH 202 204
ATOM    204  C   ARG d   1      12.183 -34.642  60.998  0.00  0.00     0.196 C 
ATOM    205  O   ARG d   1      13.291 -35.178  61.232  0.00  0.00    -0.646 OA
ATOM    206  OXT ARG d   1      11.255 -34.561  61.838  0.00  0.00    -0.646 OA
ENDBRANCH 202 204
BRANCH 202 207
ATOM    207  CB  ARG d   1      11.113 -35.061  58.785  0.00  0.00    -0.035 C 
ATOM    208 1H14 ARG d   1      10.159 -35.224  59.308  0.00  0.00     0.036 H 
ATOM    209 2H14 ARG d   1      11.669 -36.009  58.731  0.00  0.00     0.036 H 
BRANCH 207 210
ATOM    210  CG  ARG d   1      10.812 -34.612  57.388  0.00  0.00    -0.047 C 
ATOM    211 3H14 ARG d   1      11.757 -34.504  56.836  0.00  0.00     0.035 H 
ATOM    212 4H14 ARG d   1      10.297 -33.641  57.428  0.00  0.00     0.035 H 
BRANCH 210 213
ATOM    213  CD  ARG d   1       9.933 -35.603  56.664  0.00  0.00     0.009 C 
ATOM    214 5H14 ARG d   1       8.921 -35.561  57.094  0.00  0.00     0.064 H 
ATOM    215 6H14 ARG d   1      10.348 -36.612  56.801  0.00  0.00     0.064 H 
BRANCH 213 216
ATOM    216  NE  ARG d   1       9.850 -35.318  55.235  0.00  0.00    -0.227 N 
ATOM    217  CZ  ARG d   1      10.899 -35.302  54.415  0.00  0.00     0.665 C 
ATOM    218  NH1 ARG d   1      12.115 -35.550  54.884  0.00  0.00    -0.235 N 
ATOM    219  NH2 ARG d   1      10.736 -35.054  53.119  0.00  0.00    -0.235 N 
ATOM    220 8H14 ARG d   1      12.925 -35.537  54.248  0.00  0.00     0.174 HD
ATOM    221 9H14 ARG d   1      12.249 -35.755  55.884  0.00  0.00     0.174 HD
ATOM    222 0H15 ARG d   1       9.796 -34.860  52.746  0.00  0.00     0.174 HD
ATOM    223 1H15 ARG d   1      11.550 -35.056  52.488  0.00  0.00     0.174 HD
ATOM    224 7H14 ARG d   1       8.922 -35.117  54.836  0.00  0.00     0.177 HD
ENDBRANCH 213 216
ENDBRANCH 210 213
ENDBRANCH 207 210
ENDBRANCH 202 207
ENDBRANCH 200 202
ENDBRANCH 187 198
ENDBRANCH 182 184
BRANCH 182 225
ATOM    225  CB  ILE d   1      15.516 -28.012  59.136  0.00  0.00    -0.030 C 
ATOM    226 3H12 ILE d   1      14.687 -27.661  58.504  0.00  0.00     0.043 H 
BRANCH 225 227
ATOM    227  CG1 ILE d   1      16.387 -26.803  59.496  0.00  0.00    -0.063 C 
ATOM    228 4H12 ILE d   1      16.810 -26.397  58.566  0.00  0.00     0.033 H 
ATOM    229 5H12 ILE d   1      17.202 -27.150  60.148  0.00  0.00     0.033 H 
BRANCH 227 230
ATOM    230  CD1 ILE d   1      15.653 -25.680  60.212  0.00  0.00    -0.076 C 
ATOM    231 9H12 ILE d   1      16.356 -24.862  60.428  0.00  0.00     0.027 H 
ATOM    232 0H13 ILE d   1      15.232 -26.060  61.155  0.00  0.00     0.027 H 
ATOM    233 1H13 ILE d   1      14.841 -25.306  59.572  0.00  0.00     0.027 H 
ENDBRANCH 227 230
ENDBRANCH 225 227
BRANCH 225 234
ATOM    234  CG2 ILE d   1      14.916 -28.683  60.376  0.00  0.00    -0.071 C 
ATOM    235 6H12 ILE d   1      14.302 -29.542  60.067  0.00  0.00     0.028 H 
ATOM    236 7H12 ILE d   1      14.289 -27.959  60.917  0.00  0.00     0.028 H 
ATOM    237 8H12 ILE d   1      15.727 -29.030  61.034  0.00  0.00     0.028 H 
ENDBRANCH 225 234
ENDBRANCH 182 225
ENDBRANCH 180 182
ENDBRANCH 176 178
BRANCH 176 238
ATOM    238  CB  GLU d   1      17.382 -29.583  53.748  0.00  0.00    -0.029 C 
ATOM    239 7H11 GLU d   1      18.002 -30.462  53.978  0.00  0.00     0.037 H 
ATOM    240 8H11 GLU d   1      17.641 -29.202  52.749  0.00  0.00     0.037 H 
BRANCH 238 241
ATOM    241  CG  GLU d   1      15.917 -29.990  53.761  0.00  0.00     0.018 C 
ATOM    242 9H11 GLU d   1      15.320 -29.145  53.387  0.00  0.00     0.049 H 
ATOM    243 0H12 GLU d   1      15.629 -30.211  54.799  0.00  0.00     0.049 H 
BRANCH 241 244
ATOM    244  CD  GLU d   1      15.605 -31.204  52.913  0.00  0.00     0.172 C 
ATOM    245  OE1 GLU d   1      16.235 -31.384  51.850  0.00  0.00    -0.648 OA
ATOM    246  OE2 GLU d   1      14.697 -31.970  53.307  0.00  0.00    -0.648 OA
ENDBRANCH 241 244
ENDBRANCH 238 241
ENDBRANCH 176 238
ENDBRANCH 174 176
ENDBRANCH 170 172
BRANCH 170 247
ATOM    247  CB  HIS d   1      21.362 -26.499  56.108  0.00  0.00     0.004 C 
ATOM    248 0H11 HIS d   1      22.397 -26.130  56.061  0.00  0.00     0.046 H 
ATOM    249 1H11 HIS d   1      21.367 -27.581  56.306  0.00  0.00     0.046 H 
BRANCH 247 250
ATOM    250  CG  HIS d   1      20.672 -25.817  57.247  0.00  0.00     0.053 A 
ATOM    251  ND1 HIS d   1      20.662 -26.336  58.524  0.00  0.00    -0.247 NA
ATOM    252  CE1 HIS d   1      19.987 -25.525  59.323  0.00  0.00     0.064 A 
ATOM    253  NE2 HIS d   1      19.560 -24.498  58.610  0.00  0.00    -0.359 N 
ATOM    254 3H11 HIS d   1      19.813 -25.678  60.387  0.00  0.00     0.143 H 
ATOM    255  CD2 HIS d   1      19.975 -24.655  57.309  0.00  0.00     0.002 A 
ATOM    256 4H11 HIS d   1      19.006 -23.708  58.971  0.00  0.00     0.166 HD
ATOM    257 2H11 HIS d   1      19.780 -23.974  56.482  0.00  0.00     0.114 H 
ENDBRANCH 247 250
ENDBRANCH 170 247
ENDBRANCH 168 170
ENDBRANCH 164 166
BRANCH 164 258
ATOM    258  CB  ILE d   1      19.542 -22.251  53.787  0.00  0.00    -0.030 C 
ATOM    259  H99 ILE d   1      19.745 -22.542  54.828  0.00  0.00     0.043 H 
BRANCH 258 260
ATOM    260  CG1 ILE d   1      18.092 -22.680  53.444  0.00  0.00    -0.063 C 
ATOM    261 0H10 ILE d   1      17.980 -23.734  53.737  0.00  0.00     0.033 H 
ATOM    262 1H10 ILE d   1      17.968 -22.587  52.355  0.00  0.00     0.033 H 
BRANCH 260 263
ATOM    263  CD1 ILE d   1      16.939 -21.880  54.118  0.00  0.00    -0.076 C 
ATOM    264 5H10 ILE d   1      15.971 -22.286  53.790  0.00  0.00     0.027 H 
ATOM    265 6H10 ILE d   1      17.010 -20.821  53.829  0.00  0.00     0.027 H 
ATOM    266 7H10 ILE d   1      17.022 -21.968  55.211  0.00  0.00     0.027 H 
ENDBRANCH 260 263
ENDBRANCH 258 260
BRANCH 258 267
ATOM    267  CG2 ILE d   1      19.782 -20.733  53.669  0.00  0.00    -0.071 C 
ATOM    268 2H10 ILE d   1      20.827 -20.506  53.926  0.00  0.00     0.028 H 
ATOM    269 3H10 ILE d   1      19.111 -20.201  54.359  0.00  0.00     0.028 H 
ATOM    270 4H10 ILE d   1      19.579 -20.409  52.638  0.00  0.00     0.028 H 
ENDBRANCH 258 267
ENDBRANCH 164 258
ENDBRANCH 162 164
ENDBRANCH 158 160
BRANCH 158 271
ATOM    271  CB  SER d   1      19.391 -20.371  49.326  0.00  0.00     0.044 C 
ATOM    272  H94 SER d   1      18.995 -20.219  48.311  0.00  0.00     0.077 H 
ATOM    273  H95 SER d   1      19.997 -19.500  49.618  0.00  0.00     0.077 H 
BRANCH 271 274
ATOM    274  OG  SER d   1      18.312 -20.516  50.233  0.00  0.00    -0.398 OA
ATOM    275  H96 SER d   1      17.776 -19.732  50.213  0.00  0.00     0.209 HD
ENDBRANCH 271 274
ENDBRANCH 158 271
ENDBRANCH 156 158
ENDBRANCH 152 154
BRANCH 152 276
ATOM    276  CB  ARG d   1      19.387 -26.057  48.081  0.00  0.00    -0.036 C 
ATOM    277  H81 ARG d   1      20.337 -26.500  47.748  0.00  0.00     0.036 H 
ATOM    278  H82 ARG d   1      18.552 -26.704  47.774  0.00  0.00     0.036 H 
BRANCH 276 279
ATOM    279  CG  ARG d   1      19.403 -26.001  49.613  0.00  0.00    -0.048 C 
ATOM    280  H83 ARG d   1      18.622 -25.305  49.954  0.00  0.00     0.035 H 
ATOM    281  H84 ARG d   1      20.387 -25.640  49.947  0.00  0.00     0.035 H 
BRANCH 279 282
ATOM    282  CD  ARG d   1      19.141 -27.395  50.233  0.00  0.00     0.009 C 
ATOM    283  H85 ARG d   1      19.478 -27.386  51.280  0.00  0.00     0.064 H 
ATOM    284  H86 ARG d   1      19.714 -28.146  49.670  0.00  0.00     0.064 H 
BRANCH 282 285
ATOM    285  NE  ARG d   1      17.718 -27.763  50.198  0.00  0.00    -0.227 N 
ATOM    286  CZ  ARG d   1      16.791 -27.237  50.998  0.00  0.00     0.665 C 
ATOM    287  NH1 ARG d   1      17.130 -26.321  51.916  0.00  0.00    -0.235 N 
ATOM    288  NH2 ARG d   1      15.515 -27.603  50.870  0.00  0.00    -0.235 N 
ATOM    289  H88 ARG d   1      16.409 -25.918  52.532  0.00  0.00     0.174 HD
ATOM    290  H89 ARG d   1      18.111 -26.020  52.006  0.00  0.00     0.174 HD
ATOM    291  H90 ARG d   1      15.249 -28.306  50.166  0.00  0.00     0.174 HD
ATOM    292  H91 ARG d   1      14.795 -27.182  51.475  0.00  0.00     0.174 HD
ATOM    293  H87 ARG d   1      17.419 -28.471  49.513  0.00  0.00     0.177 HD
ENDBRANCH 282 285
ENDBRANCH 279 282
ENDBRANCH 276 279
ENDBRANCH 152 276
ENDBRANCH 150 152
ENDBRANCH   1 148
TORSDOF 85
