REMARK  11 active torsions:
REMARK  status: ('A' for Active; 'I' for Inactive)
REMARK    1  A    between atoms: N1_1  and  CA1_2 
REMARK    2  A    between atoms: CA1_2  and  C1_3 
REMARK    3  A    between atoms: CA1_2  and  CB1_6 
REMARK    4  A    between atoms: CB1_6  and  CG1_7 
REMARK    5  A    between atoms: CG1_7  and  CD1_8 
REMARK       I    between atoms: CD1_8  and  N2_10 
REMARK    6  A    between atoms: N2_10  and  CA2_11 
REMARK    7  A    between atoms: CA2_11  and  C2_12 
REMARK    8  A    between atoms: CA2_11  and  CB2_14 
REMARK       I    between atoms: C2_12  and  N3_16 
REMARK    9  A    between atoms: CB2_14  and  SG2_15 
REMARK   10  A    between atoms: N3_16  and  CA3_17 
REMARK   11  A    between atoms: CA3_17  and  C3_18 
ROOT
ATOM      1  CD1 GSH d   1     -43.180  -5.634  -5.135  0.00  0.00     0.218 C 
ATOM      2  OE1 GSH d   1     -43.849  -4.575  -4.960  0.00  0.00    -0.274 OA
ATOM      3  N2  GSH d   1     -43.653  -6.713  -5.809  0.00  0.00    -0.347 N 
ATOM      4  H9  GSH d   1     -43.077  -7.522  -5.921  0.00  0.00     0.163 HD
ENDROOT
BRANCH   3   5
ATOM      5  CA2 GSH d   1     -45.018  -6.696  -6.378  0.00  0.00     0.097 C 
ATOM      6  H10 GSH d   1     -45.407  -5.670  -6.458  0.00  0.00     0.088 H 
BRANCH   5   7
ATOM      7  C2  GSH d   1     -45.767  -7.533  -5.323  0.00  0.00     0.241 C 
ATOM      8  O2  GSH d   1     -45.794  -8.763  -5.404  0.00  0.00    -0.271 OA
ATOM      9  N3  GSH d   1     -46.341  -6.833  -4.290  0.00  0.00    -0.349 N 
ATOM     10  H14 GSH d   1     -46.257  -5.837  -4.314  0.00  0.00     0.163 HD
BRANCH   9  11
ATOM     11  CA3 GSH d   1     -47.090  -7.435  -3.117  0.00  0.00     0.075 C 
ATOM     12  H15 GSH d   1     -46.584  -8.360  -2.804  0.00  0.00     0.080 H 
ATOM     13  H16 GSH d   1     -48.119  -7.668  -3.429  0.00  0.00     0.080 H 
BRANCH  11  14
ATOM     14  C3  GSH d   1     -47.136  -6.442  -1.904  0.00  0.00     0.191 C 
ATOM     15  O31 GSH d   1     -47.728  -6.843  -0.874  0.00  0.00    -0.647 OA
ATOM     16  O32 GSH d   1     -46.576  -5.274  -1.995  0.00  0.00    -0.647 OA
ENDBRANCH  11  14
ENDBRANCH   9  11
ENDBRANCH   5   7
BRANCH   5  17
ATOM     17  CB2 GSH d   1     -45.139  -7.427  -7.776  0.00  0.00     0.001 C 
ATOM     18  H11 GSH d   1     -46.176  -7.332  -8.132  0.00  0.00     0.052 H 
ATOM     19  H12 GSH d   1     -44.895  -8.490  -7.637  0.00  0.00     0.052 H 
BRANCH  17  20
ATOM     20  SG2 GSH d   1     -44.000  -6.721  -9.073  0.00  0.00    -0.180 SA
ATOM     21  H13 GSH d   1     -43.045  -6.809  -8.764  0.00  0.00     0.101 HD
ENDBRANCH  17  20
ENDBRANCH   5  17
ENDBRANCH   3   5
BRANCH   1  22
ATOM     22  CG1 GSH d   1     -41.723  -5.825  -4.512  0.00  0.00     0.012 C 
ATOM     23  H7  GSH d   1     -41.725  -6.683  -3.824  0.00  0.00     0.047 H 
ATOM     24  H8  GSH d   1     -40.996  -6.003  -5.318  0.00  0.00     0.047 H 
BRANCH  22  25
ATOM     25  CB1 GSH d   1     -41.341  -4.547  -3.745  0.00  0.00    -0.021 C 
ATOM     26  H5  GSH d   1     -41.238  -3.721  -4.464  0.00  0.00     0.037 H 
ATOM     27  H6  GSH d   1     -42.142  -4.312  -3.029  0.00  0.00     0.037 H 
BRANCH  25  28
ATOM     28  CA1 GSH d   1     -40.016  -4.701  -2.974  0.00  0.00     0.183 C 
ATOM     29  H4  GSH d   1     -40.002  -5.691  -2.494  0.00  0.00     0.101 H 
BRANCH  28  30
ATOM     30  N1  GSH d   1     -40.048  -3.656  -1.950  0.00  0.00    -0.065 N 
ATOM     31  H1  GSH d   1     -40.889  -3.748  -1.402  0.00  0.00     0.275 HD
ATOM     32  H2  GSH d   1     -40.034  -2.751  -2.393  0.00  0.00     0.275 HD
ATOM     33  H3  GSH d   1     -39.244  -3.749  -1.350  0.00  0.00     0.275 HD
ENDBRANCH  28  30
BRANCH  28  34
ATOM     34  C1  GSH d   1     -38.755  -4.576  -3.809  0.00  0.00     0.204 C 
ATOM     35  O11 GSH d   1     -38.452  -5.492  -4.616  0.00  0.00    -0.646 OA
ATOM     36  O12 GSH d   1     -38.020  -3.481  -3.574  0.00  0.00    -0.646 OA
ENDBRANCH  28  34
ENDBRANCH  25  28
ENDBRANCH  22  25
ENDBRANCH   1  22
TORSDOF 11
