REMARK  12 active torsions:
REMARK  status: ('A' for Active; 'I' for Inactive)
REMARK    1  A    between atoms: C1_1  and  C2_2 
REMARK    2  A    between atoms: C1_1  and  C3_3 
REMARK    3  A    between atoms: C1_1  and  S4_4 
REMARK    4  A    between atoms: S4_4  and  C5_5 
REMARK    5  A    between atoms: C5_5  and  C6_6 
REMARK    6  A    between atoms: C6_6  and  C7_7 
REMARK    7  A    between atoms: C7_7  and  N8_8 
REMARK    8  A    between atoms: C7_7  and  C9_9 
REMARK    9  A    between atoms: C9_9  and  O10_10 
REMARK   10  A    between atoms: C9_9  and  C11_11 
REMARK       I    between atoms: C11_11  and  N13_13 
REMARK   11  A    between atoms: N13_13  and  N14_14 
REMARK       I    between atoms: N14_14  and  C15_15 
REMARK   12  A    between atoms: C15_15  and  C17_17 
ROOT
ATOM      1  C7  AO5 d   1      20.612  28.546  16.217  0.00  0.00     0.133 C 
ATOM      2  H12 AO5 d   1      19.877  28.420  15.408  0.00  0.00     0.088 H 
ENDROOT
BRANCH   1   3
ATOM      3  C6  AO5 d   1      21.056  29.995  16.375  0.00  0.00    -0.028 C 
ATOM      4  H10 AO5 d   1      20.486  30.463  17.191  0.00  0.00     0.037 H 
ATOM      5  H11 AO5 d   1      22.129  30.022  16.615  0.00  0.00     0.037 H 
BRANCH   3   6
ATOM      6  C5  AO5 d   1      20.810  30.763  15.085  0.00  0.00    -0.021 C 
ATOM      7  H8  AO5 d   1      21.505  30.392  14.317  0.00  0.00     0.049 H 
ATOM      8  H9  AO5 d   1      19.775  30.582  14.760  0.00  0.00     0.049 H 
BRANCH   6   9
ATOM      9  S4  AO5 d   1      21.051  32.529  15.271  0.00  0.00    -0.165 SA
BRANCH   9  10
ATOM     10  C1  AO5 d   1      19.571  33.036  16.100  0.00  0.00    -0.016 C 
ATOM     11  H1  AO5 d   1      18.928  32.153  16.232  0.00  0.00     0.055 H 
BRANCH  10  12
ATOM     12  C2  AO5 d   1      18.793  34.079  15.297  0.00  0.00    -0.065 C 
ATOM     13  H2  AO5 d   1      17.885  34.364  15.848  0.00  0.00     0.028 H 
ATOM     14  H3  AO5 d   1      18.512  33.656  14.321  0.00  0.00     0.028 H 
ATOM     15  H4  AO5 d   1      19.422  34.968  15.144  0.00  0.00     0.028 H 
ENDBRANCH  10  12
BRANCH  10  16
ATOM     16  C3  AO5 d   1      19.923  33.593  17.471  0.00  0.00    -0.065 C 
ATOM     17  H5  AO5 d   1      20.482  32.837  18.041  0.00  0.00     0.028 H 
ATOM     18  H6  AO5 d   1      19.000  33.850  18.010  0.00  0.00     0.028 H 
ATOM     19  H7  AO5 d   1      20.542  34.495  17.353  0.00  0.00     0.028 H 
ENDBRANCH  10  16
ENDBRANCH   9  10
ENDBRANCH   6   9
ENDBRANCH   3   6
ENDBRANCH   1   3
BRANCH   1  20
ATOM     20  N8  AO5 d   1      21.922  27.962  15.874  0.00  0.00    -0.072 N 
ATOM     21  H13 AO5 d   1      21.820  26.970  15.728  0.00  0.00     0.274 HD
ATOM     22  H14 AO5 d   1      22.571  28.125  16.628  0.00  0.00     0.274 HD
ATOM     23  H15 AO5 d   1      22.271  28.391  15.031  0.00  0.00     0.274 HD
ENDBRANCH   1  20
BRANCH   1  24
ATOM     24  C9  AO5 d   1      20.022  27.964  17.561  0.00  0.00     0.141 C 
ATOM     25  H16 AO5 d   1      20.631  28.330  18.401  0.00  0.00     0.101 H 
BRANCH  24  26
ATOM     26  O10 AO5 d   1      20.038  26.541  17.562  0.00  0.00    -0.384 OA
ATOM     27  H17 AO5 d   1      19.678  26.222  18.381  0.00  0.00     0.210 HD
ENDBRANCH  24  26
BRANCH  24  28
ATOM     28  C11 AO5 d   1      18.592  28.424  17.742  0.00  0.00     0.267 C 
ATOM     29  O12 AO5 d   1      17.639  27.859  17.239  0.00  0.00    -0.269 OA
ATOM     30  N13 AO5 d   1      18.498  29.657  18.561  0.00  0.00    -0.265 N 
ATOM     31  H18 AO5 d   1      19.333  30.050  18.947  0.00  0.00     0.190 HD
BRANCH  30  32
ATOM     32  N14 AO5 d   1      17.215  30.315  18.820  0.00  0.00    -0.263 N 
ATOM     33  C15 AO5 d   1      16.560  31.046  17.858  0.00  0.00     0.270 C 
ATOM     34  O16 AO5 d   1      17.076  31.140  16.725  0.00  0.00    -0.266 OA
ATOM     35  H19 AO5 d   1      16.802  30.229  19.727  0.00  0.00     0.190 HD
BRANCH  33  36
ATOM     36  C17 AO5 d   1      15.250  31.707  18.167  0.00  0.00     0.035 A 
ATOM     37  C18 AO5 d   1      14.571  31.731  19.506  0.00  0.00    -0.068 A 
ATOM     38  C19 AO5 d   1      13.261  32.435  19.649  0.00  0.00    -0.080 A 
ATOM     39  H20 AO5 d   1      15.027  31.243  20.360  0.00  0.00     0.085 H 
ATOM     40  C20 AO5 d   1      12.626  33.107  18.477  0.00  0.00    -0.062 A 
ATOM     41  H21 AO5 d   1      12.767  32.458  20.613  0.00  0.00     0.083 H 
ATOM     42  C21 AO5 d   1      13.316  33.065  17.175  0.00  0.00     0.035 A 
ATOM     43  H22 AO5 d   1      11.675  33.617  18.581  0.00  0.00     0.086 H 
ATOM     44  C22 AO5 d   1      14.589  32.390  17.011  0.00  0.00    -0.047 A 
ATOM     45 CL23 AO5 d   1      12.648  33.809  15.787  0.00  0.00    -0.084 Cl
ATOM     46  H23 AO5 d   1      15.068  32.380  16.039  0.00  0.00     0.087 H 
ENDBRANCH  33  36
ENDBRANCH  30  32
ENDBRANCH  24  28
ENDBRANCH   1  24
TORSDOF 12
