REMARK  12 active torsions:
REMARK  status: ('A' for Active; 'I' for Inactive)
REMARK    1  A    between atoms: C1_1  and  C2_2 
REMARK    2  A    between atoms: C2_2  and  S3_3 
REMARK    3  A    between atoms: S3_3  and  C4_4 
REMARK    4  A    between atoms: C4_4  and  C5_5 
REMARK    5  A    between atoms: C5_5  and  C6_6 
REMARK    6  A    between atoms: C6_6  and  C8_7 
REMARK    7  A    between atoms: C6_6  and  N7_24 
REMARK    8  A    between atoms: C8_7  and  C9_8 
REMARK    9  A    between atoms: C8_7  and  O24_23 
REMARK       I    between atoms: C9_8  and  N10_9 
REMARK   10  A    between atoms: N10_9  and  C11_10 
REMARK   11  A    between atoms: C11_10  and  C12_11 
REMARK   12  A    between atoms: C11_10  and  C14_13 
ROOT
ATOM      1  C9  AO1 d   1      17.977  27.574  18.083  0.00  0.00     0.249 C 
ATOM      2  N10 AO1 d   1      18.136  27.995  19.336  0.00  0.00    -0.351 N 
ATOM      3  O13 AO1 d   1      17.706  27.489  16.906  0.00  0.00    -0.271 OA
ATOM      4  H12 AO1 d   1      19.006  28.221  19.774  0.00  0.00     0.163 HD
ENDROOT
BRANCH   1   5
ATOM      5  C8  AO1 d   1      19.396  27.505  17.783  0.00  0.00     0.139 C 
ATOM      6  H11 AO1 d   1      20.002  27.912  18.606  0.00  0.00     0.101 H 
BRANCH   5   7
ATOM      7  C6  AO1 d   1      19.575  28.378  16.456  0.00  0.00     0.133 C 
ATOM      8  H10 AO1 d   1      18.689  28.165  15.840  0.00  0.00     0.088 H 
BRANCH   7   9
ATOM      9  C5  AO1 d   1      19.507  29.866  16.739  0.00  0.00    -0.028 C 
ATOM     10  H8  AO1 d   1      18.867  30.058  17.613  0.00  0.00     0.037 H 
ATOM     11  H9  AO1 d   1      20.515  30.264  16.928  0.00  0.00     0.037 H 
BRANCH   9  12
ATOM     12  C4  AO1 d   1      18.911  30.510  15.498  0.00  0.00    -0.021 C 
ATOM     13  H6  AO1 d   1      18.832  29.786  14.674  0.00  0.00     0.049 H 
ATOM     14  H7  AO1 d   1      17.918  30.934  15.709  0.00  0.00     0.049 H 
BRANCH  12  15
ATOM     15  S3  AO1 d   1      20.034  31.729  15.137  0.00  0.00    -0.169 SA
BRANCH  15  16
ATOM     16  C2  AO1 d   1      18.969  33.155  15.447  0.00  0.00    -0.027 C 
ATOM     17  H4  AO1 d   1      19.162  33.924  14.684  0.00  0.00     0.048 H 
ATOM     18  H5  AO1 d   1      17.916  32.840  15.393  0.00  0.00     0.048 H 
BRANCH  16  19
ATOM     19  C1  AO1 d   1      19.248  33.734  16.823  0.00  0.00    -0.068 C 
ATOM     20  H1  AO1 d   1      18.592  34.600  16.996  0.00  0.00     0.028 H 
ATOM     21  H2  AO1 d   1      20.299  34.053  16.881  0.00  0.00     0.028 H 
ATOM     22  H3  AO1 d   1      19.054  32.969  17.589  0.00  0.00     0.028 H 
ENDBRANCH  16  19
ENDBRANCH  15  16
ENDBRANCH  12  15
ENDBRANCH   9  12
ENDBRANCH   7   9
BRANCH   7  23
ATOM     23  N7  AO1 d   1      20.705  27.938  15.650  0.00  0.00    -0.072 N 
ATOM     24  H25 AO1 d   1      20.777  28.516  14.828  0.00  0.00     0.274 HD
ATOM     25  H26 AO1 d   1      20.568  26.978  15.375  0.00  0.00     0.274 HD
ATOM     26  H27 AO1 d   1      21.553  28.015  16.190  0.00  0.00     0.274 HD
ENDBRANCH   7  23
ENDBRANCH   5   7
BRANCH   5  27
ATOM     27  O24 AO1 d   1      19.745  26.125  17.542  0.00  0.00    -0.384 OA
ATOM     28  H24 AO1 d   1      19.551  25.610  18.317  0.00  0.00     0.210 HD
ENDBRANCH   5  27
ENDBRANCH   1   5
BRANCH   2  29
ATOM     29  C11 AO1 d   1      16.855  28.066  19.940  0.00  0.00     0.035 C 
ATOM     30  H13 AO1 d   1      16.272  27.212  19.565  0.00  0.00     0.079 H 
BRANCH  29  31
ATOM     31  C12 AO1 d   1      16.061  29.404  19.546  0.00  0.00    -0.025 A 
ATOM     32  C15 AO1 d   1      16.773  30.770  19.466  0.00  0.00    -0.074 A 
ATOM     33  C16 AO1 d   1      16.038  32.018  19.128  0.00  0.00    -0.082 A 
ATOM     34  H17 AO1 d   1      17.838  30.822  19.661  0.00  0.00     0.084 H 
ATOM     35  C17 AO1 d   1      14.597  32.010  18.864  0.00  0.00    -0.072 A 
ATOM     36  H18 AO1 d   1      16.581  32.955  19.076  0.00  0.00     0.083 H 
ATOM     37  C18 AO1 d   1      13.853  30.756  18.913  0.00  0.00    -0.025 A 
ATOM     38  H19 AO1 d   1      14.083  32.936  18.632  0.00  0.00     0.084 H 
ATOM     39  C19 AO1 d   1      14.561  29.395  19.260  0.00  0.00    -0.018 A 
ATOM     40  C20 AO1 d   1      12.415  30.780  18.634  0.00  0.00    -0.072 A 
ATOM     41  C23 AO1 d   1      13.705  28.149  19.289  0.00  0.00    -0.072 A 
ATOM     42  C22 AO1 d   1      12.255  28.231  18.999  0.00  0.00    -0.082 A 
ATOM     43  H23 AO1 d   1      14.155  27.191  19.523  0.00  0.00     0.084 H 
ATOM     44  C21 AO1 d   1      11.611  29.533  18.674  0.00  0.00    -0.082 A 
ATOM     45  H22 AO1 d   1      11.654  27.329  19.024  0.00  0.00     0.083 H 
ATOM     46  H21 AO1 d   1      10.548  29.571  18.465  0.00  0.00     0.083 H 
ATOM     47  H20 AO1 d   1      11.932  31.721  18.395  0.00  0.00     0.084 H 
ENDBRANCH  29  31
BRANCH  29  48
ATOM     48  C14 AO1 d   1      16.937  27.940  21.461  0.00  0.00    -0.053 C 
ATOM     49  H14 AO1 d   1      15.925  28.000  21.889  0.00  0.00     0.030 H 
ATOM     50  H15 AO1 d   1      17.554  28.756  21.864  0.00  0.00     0.030 H 
ATOM     51  H16 AO1 d   1      17.390  26.973  21.725  0.00  0.00     0.030 H 
ENDBRANCH  29  48
ENDBRANCH   2  29
TORSDOF 12
