REMARK  9 active torsions:
REMARK  status: ('A' for Active; 'I' for Inactive)
REMARK    1  A    between atoms: C6_6  and  C7_7 
REMARK    2  A    between atoms: C7_7  and  C8_8 
REMARK    3  A    between atoms: C8_8  and  N9_9 
REMARK    4  A    between atoms: C8_8  and  C10_10 
REMARK    5  A    between atoms: C10_10  and  O11_11 
REMARK    6  A    between atoms: C10_10  and  C12_12 
REMARK       I    between atoms: C12_12  and  N14_14 
REMARK    7  A    between atoms: N14_14  and  N15_15 
REMARK    8  A    between atoms: N15_15  and  C16_16 
REMARK    9  A    between atoms: C19_19  and  C22_22 
ROOT
ATOM      1  C8  AO2 d   1      20.443  28.439  16.331  0.00  0.00     0.133 C 
ATOM      2  H14 AO2 d   1      19.532  28.559  15.726  0.00  0.00     0.088 H 
ENDROOT
BRANCH   1   3
ATOM      3  C7  AO2 d   1      21.126  29.795  16.569  0.00  0.00    -0.032 C 
ATOM      4  H12 AO2 d   1      21.138  29.980  17.653  0.00  0.00     0.036 H 
ATOM      5  H13 AO2 d   1      22.159  29.721  16.198  0.00  0.00     0.036 H 
BRANCH   3   6
ATOM      6  C6  AO2 d   1      20.466  31.017  15.889  0.00  0.00    -0.052 C 
ATOM      7  C1  AO2 d   1      20.901  32.340  16.572  0.00  0.00    -0.062 C 
ATOM      8  C2  AO2 d   1      20.215  33.596  16.002  0.00  0.00    -0.065 C 
ATOM      9  H1  AO2 d   1      20.661  32.271  17.643  0.00  0.00     0.033 H 
ATOM     10  H2  AO2 d   1      21.988  32.453  16.446  0.00  0.00     0.033 H 
ATOM     11  C3  AO2 d   1      18.684  33.457  15.895  0.00  0.00    -0.065 C 
ATOM     12  H3  AO2 d   1      20.619  33.789  14.998  0.00  0.00     0.033 H 
ATOM     13  H4  AO2 d   1      20.443  34.448  16.660  0.00  0.00     0.033 H 
ATOM     14  C4  AO2 d   1      18.257  32.184  15.141  0.00  0.00    -0.065 C 
ATOM     15  H5  AO2 d   1      18.287  34.333  15.361  0.00  0.00     0.033 H 
ATOM     16  H6  AO2 d   1      18.261  33.424  16.910  0.00  0.00     0.033 H 
ATOM     17  C5  AO2 d   1      18.923  30.900  15.674  0.00  0.00    -0.062 C 
ATOM     18  H7  AO2 d   1      18.526  32.301  14.081  0.00  0.00     0.033 H 
ATOM     19  H8  AO2 d   1      17.166  32.074  15.233  0.00  0.00     0.033 H 
ATOM     20  H9  AO2 d   1      18.736  30.090  14.953  0.00  0.00     0.033 H 
ATOM     21  H10 AO2 d   1      18.459  30.646  16.639  0.00  0.00     0.033 H 
ATOM     22  H11 AO2 d   1      20.891  31.052  14.875  0.00  0.00     0.040 H 
ENDBRANCH   3   6
ENDBRANCH   1   3
BRANCH   1  23
ATOM     23  N9  AO2 d   1      21.447  27.775  15.621  0.00  0.00    -0.072 N 
ATOM     24  H15 AO2 d   1      21.135  26.845  15.388  0.00  0.00     0.274 HD
ATOM     25  H16 AO2 d   1      22.278  27.718  16.188  0.00  0.00     0.274 HD
ATOM     26  H17 AO2 d   1      21.652  28.282  14.774  0.00  0.00     0.274 HD
ENDBRANCH   1  23
BRANCH   1  27
ATOM     27  C10 AO2 d   1      20.064  27.631  17.704  0.00  0.00     0.141 C 
ATOM     28  H18 AO2 d   1      20.808  27.890  18.472  0.00  0.00     0.101 H 
BRANCH  27  29
ATOM     29  O11 AO2 d   1      20.068  26.176  17.601  0.00  0.00    -0.384 OA
ATOM     30  H19 AO2 d   1      19.838  25.799  18.442  0.00  0.00     0.210 HD
ENDBRANCH  27  29
BRANCH  27  31
ATOM     31  C12 AO2 d   1      18.711  28.214  18.119  0.00  0.00     0.267 C 
ATOM     32  O13 AO2 d   1      18.540  29.363  18.461  0.00  0.00    -0.269 OA
ATOM     33  N14 AO2 d   1      17.632  27.268  18.074  0.00  0.00    -0.267 N 
ATOM     34  H20 AO2 d   1      17.848  26.335  17.784  0.00  0.00     0.190 HD
BRANCH  33  35
ATOM     35  N15 AO2 d   1      16.247  27.562  18.418  0.00  0.00    -0.298 N 
ATOM     36  H21 AO2 d   1      15.584  27.400  17.647  0.00  0.00     0.187 HD
BRANCH  35  37
ATOM     37  C16 AO2 d   1      15.651  28.017  19.580  0.00  0.00     0.048 A 
ATOM     38  C17 AO2 d   1      14.377  28.712  19.613  0.00  0.00    -0.055 A 
ATOM     39  C18 AO2 d   1      13.822  29.153  20.844  0.00  0.00    -0.075 A 
ATOM     40  H22 AO2 d   1      13.843  28.897  18.688  0.00  0.00     0.087 H 
ATOM     41  C19 AO2 d   1      14.521  28.916  22.085  0.00  0.00    -0.062 A 
ATOM     42  H23 AO2 d   1      12.869  29.670  20.852  0.00  0.00     0.084 H 
ATOM     43  C20 AO2 d   1      15.786  28.224  22.056  0.00  0.00    -0.075 A 
ATOM     44  C21 AO2 d   1      16.345  27.782  20.832  0.00  0.00    -0.055 A 
ATOM     45  H24 AO2 d   1      16.316  28.040  22.983  0.00  0.00     0.084 H 
ATOM     46  H25 AO2 d   1      17.298  27.265  20.831  0.00  0.00     0.087 H 
BRANCH  41  47
ATOM     47  C22 AO2 d   1      13.918  29.391  23.384  0.00  0.00    -0.051 C 
ATOM     48  H26 AO2 d   1      12.959  29.890  23.182  0.00  0.00     0.033 H 
ATOM     49  H27 AO2 d   1      14.605  30.099  23.870  0.00  0.00     0.033 H 
ATOM     50  H28 AO2 d   1      13.750  28.529  24.047  0.00  0.00     0.033 H 
ENDBRANCH  41  47
ENDBRANCH  35  37
ENDBRANCH  33  35
ENDBRANCH  27  31
ENDBRANCH   1  27
TORSDOF 9
