REMARK  8 active torsions:
REMARK  status: ('A' for Active; 'I' for Inactive)
REMARK    1  A    between atoms: PB_1  and  O3A_5 
REMARK    2  A    between atoms: O3A_5  and  PA_6 
REMARK    3  A    between atoms: PA_6  and  O5_9 
REMARK    4  A    between atoms: O5_9  and  C5_10 
REMARK    5  A    between atoms: C5_10  and  C4_11 
REMARK    6  A    between atoms: C3_13  and  O3_14 
REMARK    7  A    between atoms: C2_15  and  O2_16 
REMARK    8  A    between atoms: C1_17  and  N9_18 
ROOT
ATOM      1  C4  GDP d   1     103.269  10.281  58.473  0.00  0.00     0.089 C 
ATOM      2  O4  GDP d   1     102.719   8.989  58.326  0.00  0.00    -0.353 OA
ATOM      3  C3  GDP d   1     103.100  10.971  57.134  0.00  0.00     0.091 C 
ATOM      4  C2  GDP d   1     101.978  10.224  56.456  0.00  0.00     0.105 C 
ATOM      5  C1  GDP d   1     102.054   8.850  57.083  0.00  0.00     0.139 C 
ATOM      6  H3  GDP d   1     104.343  10.214  58.703  0.00  0.00     0.090 H 
ATOM      7  H4  GDP d   1     102.852  12.036  57.257  0.00  0.00     0.091 H 
ATOM      8  H6  GDP d   1     101.014  10.704  56.678  0.00  0.00     0.093 H 
ATOM      9  H8  GDP d   1     102.645   8.182  56.439  0.00  0.00     0.122 H 
ENDROOT
BRANCH   5  10
ATOM     10  N9  GDP d   1     100.693   8.297  57.202  0.00  0.00    -0.293 N 
ATOM     11  C8  GDP d   1      99.619   8.818  57.875  0.00  0.00     0.071 A 
ATOM     12  N7  GDP d   1      98.566   7.984  57.711  0.00  0.00    -0.234 NA
ATOM     13  H9  GDP d   1      99.614   9.746  58.445  0.00  0.00     0.144 H 
ATOM     14  C5  GDP d   1      98.957   6.947  56.939  0.00  0.00     0.173 A 
ATOM     15  C6  GDP d   1      98.298   5.817  56.460  0.00  0.00     0.292 A 
ATOM     16  C4  GDP d   1     100.293   7.138  56.613  0.00  0.00     0.186 A 
ATOM     17  O6  GDP d   1      97.133   5.586  56.771  0.00  0.00    -0.265 OA
ATOM     18  N1  GDP d   1      98.990   4.916  55.671  0.00  0.00    -0.152 N 
ATOM     19  C2  GDP d   1     100.318   5.127  55.359  0.00  0.00     0.703 A 
ATOM     20  H10 GDP d   1      98.523   4.103  55.323  0.00  0.00     0.187 HD
ATOM     21  N2  GDP d   1     101.035   4.117  54.872  0.00  0.00    -0.233 N 
ATOM     22  N3  GDP d   1     100.962   6.252  55.837  0.00  0.00    -0.044 NA
ATOM     23  H11 GDP d   1     102.027   4.258  54.634  0.00  0.00     0.174 HD
ATOM     24  H12 GDP d   1     100.598   3.195  54.733  0.00  0.00     0.174 HD
ENDBRANCH   5  10
BRANCH   4  25
ATOM     25  O2  GDP d   1     102.126  10.127  55.059  0.00  0.00    -0.388 OA
ATOM     26  H7  GDP d   1     102.934   9.669  54.858  0.00  0.00     0.210 HD
ENDBRANCH   4  25
BRANCH   1  27
ATOM     27  C5  GDP d   1     102.567  10.955  59.642  0.00  0.00     0.058 C 
ATOM     28  H1  GDP d   1     101.576  10.495  59.766  0.00  0.00     0.079 H 
ATOM     29  H2  GDP d   1     103.165  10.789  60.550  0.00  0.00     0.079 H 
BRANCH  27  30
ATOM     30  O5  GDP d   1     102.398  12.332  59.467  0.00  0.00    -0.287 OA
BRANCH  30  31
ATOM     31  PA  GDP d   1     100.948  12.967  59.661  0.00  0.00     0.418 P 
ATOM     32  O1A GDP d   1     100.063  12.285  58.694  0.00  0.00    -0.624 OA
ATOM     33  O2A GDP d   1     101.134  14.463  59.368  0.00  0.00    -0.624 OA
BRANCH  31  34
ATOM     34  O3A GDP d   1     100.667  12.616  61.206  0.00  0.00    -0.173 OA
BRANCH  34  35
ATOM     35  PB  GDP d   1     100.965  13.723  62.326  0.00  0.00     0.431 P 
ATOM     36  O1B GDP d   1     100.470  13.241  63.651  0.00  0.00    -0.616 OA
ATOM     37  O2B GDP d   1     100.241  14.989  61.853  0.00  0.00    -0.616 OA
ATOM     38  O3B GDP d   1     102.490  13.954  62.296  0.00  0.00    -0.616 OA
ENDBRANCH  34  35
ENDBRANCH  31  34
ENDBRANCH  30  31
ENDBRANCH  27  30
ENDBRANCH   1  27
BRANCH   3  39
ATOM     39  O3  GDP d   1     104.292  10.826  56.401  0.00  0.00    -0.390 OA
ATOM     40  H5  GDP d   1     104.198  11.255  55.559  0.00  0.00     0.210 HD
ENDBRANCH   3  39
TORSDOF 8
