REMARK WARNING: 32 MAX_TORS EXCEEDED!!!
REMARK  57 active torsions:
REMARK  status: ('A' for Active; 'I' for Inactive)
REMARK    1  A    between atoms: N_1  and  CA_2 
REMARK    2  A    between atoms: CA_2  and  C_3 
REMARK    3  A    between atoms: CA_2  and  CB_5 
REMARK       I    between atoms: C_3  and  N_6 
REMARK    4  A    between atoms: N_6  and  CA_7 
REMARK    5  A    between atoms: CA_7  and  C_8 
REMARK    6  A    between atoms: CA_7  and  CB_10 
REMARK       I    between atoms: C_8  and  N_14 
REMARK    7  A    between atoms: CB_10  and  CG_11 
REMARK    8  A    between atoms: N_14  and  CA_15 
REMARK    9  A    between atoms: CA_15  and  C_16 
REMARK   10  A    between atoms: CA_15  and  CB_18 
REMARK       I    between atoms: C_16  and  N_22 
REMARK   11  A    between atoms: CB_18  and  CG_19 
REMARK   12  A    between atoms: CG_19  and  CD1_20 
REMARK   13  A    between atoms: CG_19  and  CD2_21 
REMARK   14  A    between atoms: N_22  and  CA_23 
REMARK   15  A    between atoms: CA_23  and  C_24 
REMARK   16  A    between atoms: CA_23  and  CB_26 
REMARK       I    between atoms: C_24  and  N_30 
REMARK   17  A    between atoms: CB_26  and  CG1_27 
REMARK   18  A    between atoms: CB_26  and  CG2_28 
REMARK   19  A    between atoms: CG1_27  and  CD1_29 
REMARK   20  A    between atoms: N_30  and  CA_31 
REMARK   21  A    between atoms: CA_31  and  C_32 
REMARK   22  A    between atoms: CA_31  and  CB_34 
REMARK       I    between atoms: C_32  and  N_35 
REMARK   23  A    between atoms: N_35  and  CA_36 
REMARK   24  A    between atoms: CA_36  and  C_37 
REMARK   25  A    between atoms: CA_36  and  CB_39 
REMARK       I    between atoms: C_37  and  N_47 
REMARK   26  A    between atoms: CB_39  and  CG_40 
REMARK   27  A    between atoms: CZ_45  and  OH_46 
REMARK   28  A    between atoms: CA_48  and  C_49 
REMARK       I    between atoms: C_49  and  N_54 
REMARK   29  A    between atoms: N_54  and  CA_55 
REMARK   30  A    between atoms: CA_55  and  C_56 
REMARK   31  A    between atoms: CA_55  and  CB_58 
REMARK       I    between atoms: C_56  and  N_63 
REMARK   32  A    between atoms: CB_58  and  CG_59 
REMARK   33  A    between atoms: CG_59  and  CD_60 
REMARK   34  A    between atoms: CD_60  and  CE_61 
REMARK   35  A    between atoms: CE_61  and  NZ_62 
REMARK   36  A    between atoms: N_63  and  CA_64 
REMARK   37  A    between atoms: CA_64  and  C_65 
REMARK   38  A    between atoms: CA_64  and  CB_67 
REMARK       I    between atoms: C_65  and  N_68 
REMARK   39  A    between atoms: N_68  and  CA_69 
REMARK   40  A    between atoms: CA_69  and  C_70 
REMARK   41  A    between atoms: CA_69  and  CB_72 
REMARK       I    between atoms: C_70  and  N_73 
REMARK   42  A    between atoms: N_73  and  CA_74 
REMARK   43  A    between atoms: CA_74  and  C_75 
REMARK   44  A    between atoms: CA_74  and  CB_77 
REMARK       I    between atoms: C_75  and  N_80 
REMARK   45  A    between atoms: CB_77  and  OG1_78 
REMARK   46  A    between atoms: CB_77  and  CG2_79 
REMARK   47  A    between atoms: N_80  and  CA_81 
REMARK   48  A    between atoms: CA_81  and  C_82 
REMARK   49  A    between atoms: CA_81  and  CB_84 
REMARK       I    between atoms: C_82  and  N_89 
REMARK   50  A    between atoms: CB_84  and  CG_85 
REMARK   51  A    between atoms: CG_85  and  CD_86 
REMARK   52  A    between atoms: CD_86  and  CE_87 
REMARK   53  A    between atoms: CE_87  and  NZ_88 
REMARK   54  A    between atoms: N_89  and  CA_90 
REMARK   55  A    between atoms: CA_90  and  C_91 
REMARK   56  A    between atoms: CA_90  and  CB_93 
REMARK   57  A    between atoms: CB_93  and  CG_94 
ROOT
ATOM      1  C   TYR d   1      66.990  83.137  99.840  0.00  0.00     0.243 C 
ATOM      2  O   TYR d   1      67.536  83.538 100.853  0.00  0.00    -0.271 OA
ATOM      3  N   PRO d   1      67.696  82.893  98.727  0.00  0.00    -0.337 N 
ATOM      4  CA  PRO d   1      69.124  83.196  98.818  0.00  0.00     0.091 C 
ATOM      5  CB  PRO d   1      69.685  82.543  97.560  0.00  0.00    -0.036 C 
ATOM      6  CG  PRO d   1      68.588  82.770  96.593  0.00  0.00    -0.048 C 
ATOM      7  CD  PRO d   1      67.350  82.406  97.384  0.00  0.00    -0.001 C 
ATOM      8  H48 PRO d   1      69.572  82.756  99.722  0.00  0.00     0.087 H 
ATOM      9  H49 PRO d   1      69.870  81.469  97.713  0.00  0.00     0.036 H 
ATOM     10  H50 PRO d   1      70.615  83.032  97.234  0.00  0.00     0.036 H 
ATOM     11  H51 PRO d   1      68.698  82.121  95.712  0.00  0.00     0.035 H 
ATOM     12  H52 PRO d   1      68.556  83.822  96.272  0.00  0.00     0.035 H 
ATOM     13  H53 PRO d   1      66.459  82.917  96.990  0.00  0.00     0.064 H 
ATOM     14  H54 PRO d   1      67.180  81.319  97.384  0.00  0.00     0.064 H 
ENDROOT
BRANCH   4  15
ATOM     15  C   PRO d   1      69.334  84.718  98.830  0.00  0.00     0.241 C 
ATOM     16  O   PRO d   1      68.673  85.424  98.075  0.00  0.00    -0.271 OA
ATOM     17  N   LYS d   1      70.253  85.207  99.677  0.00  0.00    -0.346 N 
ATOM     18  H55 LYS d   1      70.755  84.570 100.262  0.00  0.00     0.163 HD
BRANCH  17  19
ATOM     19  CA  LYS d   1      70.549  86.643  99.778  0.00  0.00     0.089 C 
ATOM     20  H56 LYS d   1      69.595  87.188  99.830  0.00  0.00     0.087 H 
BRANCH  19  21
ATOM     21  C   LYS d   1      71.337  87.139  98.573  0.00  0.00     0.241 C 
ATOM     22  O   LYS d   1      72.239  86.453  98.092  0.00  0.00    -0.271 OA
ATOM     23  N   ALA d   1      71.019  88.345  98.119  0.00  0.00    -0.346 N 
ATOM     24  H68 ALA d   1      70.299  88.864  98.580  0.00  0.00     0.163 HD
BRANCH  23  25
ATOM     25  CA  ALA d   1      71.688  88.933  96.971  0.00  0.00     0.086 C 
ATOM     26  H69 ALA d   1      71.942  88.136  96.256  0.00  0.00     0.086 H 
BRANCH  25  27
ATOM     27  C   ALA d   1      72.962  89.625  97.408  0.00  0.00     0.240 C 
ATOM     28  O   ALA d   1      72.992  90.322  98.420  0.00  0.00    -0.271 OA
ATOM     29  N   ALA d   1      74.015  89.477  96.632  0.00  0.00    -0.346 N 
ATOM     30  H73 ALA d   1      73.951  88.938  95.792  0.00  0.00     0.163 HD
BRANCH  29  31
ATOM     31  CA  ALA d   1      75.265  90.100  97.004  0.00  0.00     0.086 C 
ATOM     32  H74 ALA d   1      75.230  90.351  98.074  0.00  0.00     0.086 H 
BRANCH  31  33
ATOM     33  C   ALA d   1      75.493  91.351  96.223  0.00  0.00     0.240 C 
ATOM     34  O   ALA d   1      75.107  91.411  95.059  0.00  0.00    -0.271 OA
ATOM     35  N   THR d   1      76.178  92.313  96.848  0.00  0.00    -0.344 N 
ATOM     36  H78 THR d   1      76.489  92.138  97.782  0.00  0.00     0.163 HD
BRANCH  35  37
ATOM     37  CA  THR d   1      76.499  93.600  96.251  0.00  0.00     0.113 C 
ATOM     38  H79 THR d   1      75.698  93.841  95.537  0.00  0.00     0.091 H 
BRANCH  37  39
ATOM     39  C   THR d   1      77.831  93.643  95.488  0.00  0.00     0.243 C 
ATOM     40  O   THR d   1      78.825  93.086  95.946  0.00  0.00    -0.271 OA
ATOM     41  N   LYS d   1      77.860  94.344  94.354  0.00  0.00    -0.346 N 
ATOM     42  H85 LYS d   1      77.028  94.809  94.051  0.00  0.00     0.163 HD
BRANCH  41  43
ATOM     43  CA  LYS d   1      79.069  94.455  93.539  0.00  0.00     0.089 C 
ATOM     44  H86 LYS d   1      79.803  93.732  93.923  0.00  0.00     0.087 H 
BRANCH  43  45
ATOM     45  C   LYS d   1      79.723  95.853  93.534  0.00  0.00     0.241 C 
ATOM     46  O   LYS d   1      79.096  96.828  93.962  0.00  0.00    -0.271 OA
ATOM     47  N   PHE d   1      80.982  95.951  93.058  0.00  0.00    -0.344 N 
ATOM     48  H98 PHE d   1      81.465  95.112  92.807  0.00  0.00     0.163 HD
BRANCH  47  49
ATOM     49  CA  PHE d   1      81.684  97.257  92.890  0.00  0.00     0.100 C 
ATOM     50  H99 PHE d   1      80.964  98.073  93.047  0.00  0.00     0.090 H 
BRANCH  49  51
ATOM     51  C   PHE d   1      82.271  97.301  91.491  0.00  0.00     0.197 C 
ATOM     52  O   PHE d   1      82.456  96.217  90.880  0.00  0.00    -0.646 OA
ATOM     53  OXT PHE d   1      82.599  98.428  91.049  0.00  0.00    -0.646 OA
ENDBRANCH  49  51
BRANCH  49  54
ATOM     54  CB  PHE d   1      82.891  97.455  93.788  0.00  0.00    -0.013 C 
ATOM     55 0H10 PHE d   1      83.179  98.516  93.750  0.00  0.00     0.043 H 
ATOM     56 1H10 PHE d   1      83.715  96.838  93.400  0.00  0.00     0.043 H 
BRANCH  54  57
ATOM     57  CG  PHE d   1      82.663  97.089  95.194  0.00  0.00    -0.056 A 
ATOM     58  CD1 PHE d   1      83.508  96.114  95.812  0.00  0.00    -0.077 A 
ATOM     59  CE1 PHE d   1      83.320  95.702  97.212  0.00  0.00    -0.082 A 
ATOM     60 2H10 PHE d   1      84.308  95.667  95.233  0.00  0.00     0.084 H 
ATOM     61  CZ  PHE d   1      82.233  96.319  97.992  0.00  0.00    -0.083 A 
ATOM     62 4H10 PHE d   1      83.969  94.959  97.661  0.00  0.00     0.083 H 
ATOM     63  CE2 PHE d   1      81.365  97.334  97.348  0.00  0.00    -0.082 A 
ATOM     64 6H10 PHE d   1      82.070  96.034  99.025  0.00  0.00     0.083 H 
ATOM     65  CD2 PHE d   1      81.607  97.698  95.933  0.00  0.00    -0.077 A 
ATOM     66 5H10 PHE d   1      80.563  97.804  97.906  0.00  0.00     0.083 H 
ATOM     67 3H10 PHE d   1      80.974  98.436  95.454  0.00  0.00     0.084 H 
ENDBRANCH  54  57
ENDBRANCH  49  54
ENDBRANCH  47  49
ENDBRANCH  43  45
BRANCH  43  68
ATOM     68  CB  LYS d   1      78.726  94.111  92.083  0.00  0.00    -0.038 C 
ATOM     69  H87 LYS d   1      79.669  94.042  91.521  0.00  0.00     0.036 H 
ATOM     70  H88 LYS d   1      78.116  94.931  91.677  0.00  0.00     0.036 H 
BRANCH  68  71
ATOM     71  CG  LYS d   1      77.961  92.812  91.873  0.00  0.00    -0.061 C 
ATOM     72  H89 LYS d   1      77.020  92.848  92.441  0.00  0.00     0.033 H 
ATOM     73  H90 LYS d   1      78.571  91.969  92.228  0.00  0.00     0.033 H 
BRANCH  71  74
ATOM     74  CD  LYS d   1      77.645  92.619  90.367  0.00  0.00    -0.043 C 
ATOM     75  H91 LYS d   1      78.595  92.643  89.813  0.00  0.00     0.035 H 
ATOM     76  H92 LYS d   1      77.010  93.456  90.041  0.00  0.00     0.035 H 
BRANCH  74  77
ATOM     77  CE  LYS d   1      76.915  91.294  90.016  0.00  0.00     0.080 C 
ATOM     78  H93 LYS d   1      76.024  91.207  90.655  0.00  0.00     0.075 H 
ATOM     79  H94 LYS d   1      77.597  90.455  90.220  0.00  0.00     0.075 H 
BRANCH  77  80
ATOM     80  NZ  LYS d   1      76.481  91.217  88.578  0.00  0.00    -0.079 N 
ATOM     81  H95 LYS d   1      76.016  90.338  88.414  0.00  0.00     0.274 HD
ATOM     82  H96 LYS d   1      77.289  91.286  87.979  0.00  0.00     0.274 HD
ATOM     83  H97 LYS d   1      75.848  91.975  88.377  0.00  0.00     0.274 HD
ENDBRANCH  77  80
ENDBRANCH  74  77
ENDBRANCH  71  74
ENDBRANCH  68  71
ENDBRANCH  43  68
ENDBRANCH  41  43
ENDBRANCH  37  39
BRANCH  37  84
ATOM     84  CB  THR d   1      76.527  94.686  97.350  0.00  0.00     0.060 C 
ATOM     85  H80 THR d   1      77.160  94.331  98.176  0.00  0.00     0.086 H 
BRANCH  84  86
ATOM     86  OG1 THR d   1      75.195  94.898  97.852  0.00  0.00    -0.393 OA
ATOM     87  H81 THR d   1      74.863  94.087  98.217  0.00  0.00     0.210 HD
ENDBRANCH  84  86
BRANCH  84  88
ATOM     88  CG2 THR d   1      77.119  95.986  96.820  0.00  0.00    -0.050 C 
ATOM     89  H82 THR d   1      77.126  96.739  97.622  0.00  0.00     0.031 H 
ATOM     90  H83 THR d   1      76.510  96.351  95.980  0.00  0.00     0.031 H 
ATOM     91  H84 THR d   1      78.148  95.807  96.476  0.00  0.00     0.031 H 
ENDBRANCH  84  88
ENDBRANCH  37  84
ENDBRANCH  35  37
ENDBRANCH  31  33
BRANCH  31  92
ATOM     92  CB  ALA d   1      76.404  89.146  96.760  0.00  0.00    -0.049 C 
ATOM     93  H75 ALA d   1      77.352  89.626  97.045  0.00  0.00     0.030 H 
ATOM     94  H76 ALA d   1      76.435  88.877  95.694  0.00  0.00     0.030 H 
ATOM     95  H77 ALA d   1      76.257  88.238  97.363  0.00  0.00     0.030 H 
ENDBRANCH  31  92
ENDBRANCH  29  31
ENDBRANCH  25  27
BRANCH  25  96
ATOM     96  CB  ALA d   1      70.747  89.937  96.290  0.00  0.00    -0.049 C 
ATOM     97  H70 ALA d   1      71.253  90.382  95.421  0.00  0.00     0.030 H 
ATOM     98  H71 ALA d   1      70.478  90.730  97.004  0.00  0.00     0.030 H 
ATOM     99  H72 ALA d   1      69.836  89.418  95.958  0.00  0.00     0.030 H 
ENDBRANCH  25  96
ENDBRANCH  23  25
ENDBRANCH  19  21
BRANCH  19 100
ATOM    100  CB  LYS d   1      71.369  86.957 101.028  0.00  0.00    -0.038 C 
ATOM    101  H57 LYS d   1      71.609  88.031 101.024  0.00  0.00     0.036 H 
ATOM    102  H58 LYS d   1      72.300  86.373 100.987  0.00  0.00     0.036 H 
BRANCH 100 103
ATOM    103  CG  LYS d   1      70.672  86.638 102.302  0.00  0.00    -0.061 C 
ATOM    104  H59 LYS d   1      71.320  86.918 103.146  0.00  0.00     0.033 H 
ATOM    105  H60 LYS d   1      70.469  85.558 102.339  0.00  0.00     0.033 H 
BRANCH 103 106
ATOM    106  CD  LYS d   1      69.359  87.394 102.412  0.00  0.00    -0.043 C 
ATOM    107  H61 LYS d   1      68.730  87.168 101.538  0.00  0.00     0.035 H 
ATOM    108  H62 LYS d   1      69.559  88.475 102.450  0.00  0.00     0.035 H 
BRANCH 106 109
ATOM    109  CE  LYS d   1      68.633  86.963 103.691  0.00  0.00     0.080 C 
ATOM    110  H63 LYS d   1      67.627  87.408 103.699  0.00  0.00     0.075 H 
ATOM    111  H64 LYS d   1      69.200  87.323 104.563  0.00  0.00     0.075 H 
BRANCH 109 112
ATOM    112  NZ  LYS d   1      68.507  85.469 103.773  0.00  0.00    -0.079 N 
ATOM    113  H65 LYS d   1      68.026  85.219 104.623  0.00  0.00     0.274 HD
ATOM    114  H66 LYS d   1      69.425  85.054 103.771  0.00  0.00     0.274 HD
ATOM    115  H67 LYS d   1      67.984  85.132 102.980  0.00  0.00     0.274 HD
ENDBRANCH 109 112
ENDBRANCH 106 109
ENDBRANCH 103 106
ENDBRANCH 100 103
ENDBRANCH  19 100
ENDBRANCH  17  19
ENDBRANCH   4  15
BRANCH   1 116
ATOM    116  CA  TYR d   1      65.484  82.847  99.828  0.00  0.00     0.093 C 
ATOM    117  H40 TYR d   1      65.290  82.053  99.091  0.00  0.00     0.088 H 
BRANCH 116 118
ATOM    118  N   TYR d   1      65.078  82.378 101.139  0.00  0.00    -0.346 N 
ATOM    119  C   ALA d   1      64.225  81.362 101.264  0.00  0.00     0.240 C 
ATOM    120  O   ALA d   1      63.720  80.786 100.305  0.00  0.00    -0.271 OA
ATOM    121  H39 TYR d   1      65.442  82.822 101.958  0.00  0.00     0.163 HD
BRANCH 119 122
ATOM    122  CA  ALA d   1      63.870  80.917 102.668  0.00  0.00     0.086 C 
ATOM    123  H35 ALA d   1      63.723  81.792 103.319  0.00  0.00     0.086 H 
BRANCH 122 124
ATOM    124  N   ALA d   1      62.634  80.160 102.560  0.00  0.00    -0.346 N 
ATOM    125  C   ILE d   1      61.476  80.778 102.631  0.00  0.00     0.241 C 
ATOM    126  O   ILE d   1      61.387  81.971 102.832  0.00  0.00    -0.271 OA
ATOM    127  H34 ALA d   1      62.664  79.169 102.432  0.00  0.00     0.163 HD
BRANCH 125 128
ATOM    128  CA  ILE d   1      60.245  79.940 102.484  0.00  0.00     0.092 C 
ATOM    129  H24 ILE d   1      60.513  78.878 102.581  0.00  0.00     0.088 H 
BRANCH 128 130
ATOM    130  N   ILE d   1      59.312  80.287 103.548  0.00  0.00    -0.346 N 
ATOM    131  C   LEU d   1      59.467  79.802 104.779  0.00  0.00     0.241 C 
ATOM    132  O   LEU d   1      60.396  79.055 105.096  0.00  0.00    -0.271 OA
ATOM    133  H23 ILE d   1      58.545  80.898 103.352  0.00  0.00     0.163 HD
BRANCH 131 134
ATOM    134  CA  LEU d   1      58.434  80.234 105.789  0.00  0.00     0.089 C 
ATOM    135  H13 LEU d   1      57.651  80.768 105.231  0.00  0.00     0.087 H 
BRANCH 134 136
ATOM    136  N   LEU d   1      57.775  79.172 106.530  0.00  0.00    -0.346 N 
ATOM    137  C   ASP d   1      56.760  78.474 106.037  0.00  0.00     0.241 C 
ATOM    138  O   ASP d   1      56.351  78.617 104.870  0.00  0.00    -0.271 OA
ATOM    139  H12 LEU d   1      58.100  78.958 107.451  0.00  0.00     0.163 HD
BRANCH 137 140
ATOM    140  CA  ASP d   1      56.126  77.441 107.003  0.00  0.00     0.098 C 
ATOM    141  H9  ASP d   1      56.141  77.840 108.028  0.00  0.00     0.088 H 
BRANCH 140 142
ATOM    142  N   ASP d   1      54.735  77.217 106.585  0.00  0.00    -0.346 N 
ATOM    143  C   ALA d   1      53.729  78.032 106.941  0.00  0.00     0.248 C 
ATOM    144  O   ALA d   1      53.890  79.005 107.692  0.00  0.00    -0.271 OA
ATOM    145  H8  ASP d   1      54.529  76.424 106.011  0.00  0.00     0.163 HD
BRANCH 143 146
ATOM    146  CA  ALA d   1      52.318  77.672 106.381  0.00  0.00     0.172 C 
ATOM    147  H4  ALA d   1      52.454  77.305 105.353  0.00  0.00     0.098 H 
BRANCH 146 148
ATOM    148  N   ALA d   1      51.658  76.587 107.173  0.00  0.00    -0.067 N 
ATOM    149  H1  ALA d   1      50.752  76.386 106.778  0.00  0.00     0.275 HD
ATOM    150  H2  ALA d   1      51.549  76.888 108.129  0.00  0.00     0.275 HD
ATOM    151  H3  ALA d   1      52.228  75.756 107.145  0.00  0.00     0.275 HD
ENDBRANCH 146 148
BRANCH 146 152
ATOM    152  CB  ALA d   1      51.384  78.924 106.326  0.00  0.00    -0.042 C 
ATOM    153  H5  ALA d   1      51.871  79.720 105.743  0.00  0.00     0.030 H 
ATOM    154  H6  ALA d   1      51.191  79.283 107.348  0.00  0.00     0.030 H 
ATOM    155  H7  ALA d   1      50.432  78.650 105.848  0.00  0.00     0.030 H 
ENDBRANCH 146 152
ENDBRANCH 143 146
ENDBRANCH 140 142
BRANCH 140 156
ATOM    156  CB  ASP d   1      56.915  76.128 106.967  0.00  0.00     0.043 C 
ATOM    157  H10 ASP d   1      57.249  75.947 105.934  0.00  0.00     0.052 H 
ATOM    158  H11 ASP d   1      56.251  75.311 107.286  0.00  0.00     0.052 H 
BRANCH 156 159
ATOM    159  CG  ASP d   1      58.139  76.145 107.878  0.00  0.00     0.175 C 
ATOM    160  OD1 ASP d   1      59.076  75.327 107.685  0.00  0.00    -0.648 OA
ATOM    161  OD2 ASP d   1      58.169  76.971 108.807  0.00  0.00    -0.648 OA
ENDBRANCH 156 159
ENDBRANCH 140 156
ENDBRANCH 137 140
ENDBRANCH 134 136
BRANCH 134 162
ATOM    162  CB  LEU d   1      59.061  81.210 106.782  0.00  0.00    -0.035 C 
ATOM    163  H14 LEU d   1      60.060  80.826 107.035  0.00  0.00     0.037 H 
ATOM    164  H15 LEU d   1      58.430  81.214 107.683  0.00  0.00     0.037 H 
BRANCH 162 165
ATOM    165  CG  LEU d   1      59.228  82.665 106.331  0.00  0.00    -0.059 C 
ATOM    166  H16 LEU d   1      59.814  82.687 105.400  0.00  0.00     0.038 H 
BRANCH 165 167
ATOM    167  CD1 LEU d   1      57.863  83.320 106.068  0.00  0.00    -0.073 C 
ATOM    168  H17 LEU d   1      58.012  84.361 105.746  0.00  0.00     0.028 H 
ATOM    169  H18 LEU d   1      57.264  83.303 106.991  0.00  0.00     0.028 H 
ATOM    170  H19 LEU d   1      57.336  82.764 105.279  0.00  0.00     0.028 H 
ENDBRANCH 165 167
BRANCH 165 171
ATOM    171  CD2 LEU d   1      59.987  83.433 107.422  0.00  0.00    -0.073 C 
ATOM    172  H20 LEU d   1      60.961  82.953 107.599  0.00  0.00     0.028 H 
ATOM    173  H21 LEU d   1      59.400  83.425 108.352  0.00  0.00     0.028 H 
ATOM    174  H22 LEU d   1      60.144  84.472 107.097  0.00  0.00     0.028 H 
ENDBRANCH 165 171
ENDBRANCH 162 165
ENDBRANCH 134 162
ENDBRANCH 131 134
ENDBRANCH 128 130
BRANCH 128 175
ATOM    175  CB  ILE d   1      59.633  80.175 101.069  0.00  0.00    -0.030 C 
ATOM    176  H25 ILE d   1      59.266  81.210 101.008  0.00  0.00     0.043 H 
BRANCH 175 177
ATOM    177  CG1 ILE d   1      58.465  79.217 100.843  0.00  0.00    -0.063 C 
ATOM    178  H26 ILE d   1      57.831  79.220 101.742  0.00  0.00     0.033 H 
ATOM    179  H27 ILE d   1      58.868  78.206 100.682  0.00  0.00     0.033 H 
BRANCH 177 180
ATOM    180  CD1 ILE d   1      57.623  79.584  99.668  0.00  0.00    -0.076 C 
ATOM    181  H31 ILE d   1      56.804  78.857  99.562  0.00  0.00     0.027 H 
ATOM    182  H32 ILE d   1      58.240  79.576  98.758  0.00  0.00     0.027 H 
ATOM    183  H33 ILE d   1      57.203  80.590  99.817  0.00  0.00     0.027 H 
ENDBRANCH 177 180
ENDBRANCH 175 177
BRANCH 175 184
ATOM    184  CG2 ILE d   1      60.685  79.957  99.984  0.00  0.00    -0.071 C 
ATOM    185  H28 ILE d   1      61.527  80.646 100.146  0.00  0.00     0.028 H 
ATOM    186  H29 ILE d   1      60.239  80.148  98.997  0.00  0.00     0.028 H 
ATOM    187  H30 ILE d   1      61.047  78.919 100.028  0.00  0.00     0.028 H 
ENDBRANCH 175 184
ENDBRANCH 128 175
ENDBRANCH 125 128
ENDBRANCH 122 124
BRANCH 122 188
ATOM    188  CB  ALA d   1      64.985  80.039 103.239  0.00  0.00    -0.049 C 
ATOM    189  H36 ALA d   1      65.912  80.626 103.314  0.00  0.00     0.030 H 
ATOM    190  H37 ALA d   1      65.150  79.177 102.575  0.00  0.00     0.030 H 
ATOM    191  H38 ALA d   1      64.695  79.682 104.238  0.00  0.00     0.030 H 
ENDBRANCH 122 188
ENDBRANCH 119 122
ENDBRANCH 116 118
BRANCH 116 192
ATOM    192  CB  TYR d   1      64.656  84.080  99.434  0.00  0.00    -0.014 C 
ATOM    193  H41 TYR d   1      63.594  83.847  99.603  0.00  0.00     0.043 H 
ATOM    194  H42 TYR d   1      64.823  84.276  98.365  0.00  0.00     0.043 H 
BRANCH 192 195
ATOM    195  CG  TYR d   1      64.985  85.331 100.194  0.00  0.00    -0.056 A 
ATOM    196  CD1 TYR d   1      66.040  86.134  99.788  0.00  0.00    -0.074 A 
ATOM    197  CE1 TYR d   1      66.419  87.240 100.511  0.00  0.00    -0.051 A 
ATOM    198  H43 TYR d   1      66.578  85.884  98.880  0.00  0.00     0.084 H 
ATOM    199  CZ  TYR d   1      65.737  87.579 101.679  0.00  0.00     0.065 A 
ATOM    200  H45 TYR d   1      67.249  87.849 100.173  0.00  0.00     0.087 H 
ATOM    201  CE2 TYR d   1      64.650  86.789 102.116  0.00  0.00    -0.051 A 
ATOM    202  CD2 TYR d   1      64.289  85.674 101.360  0.00  0.00    -0.074 A 
ATOM    203  H46 TYR d   1      64.108  87.044 103.020  0.00  0.00     0.087 H 
ATOM    204  H44 TYR d   1      63.454  85.061 101.681  0.00  0.00     0.084 H 
BRANCH 199 205
ATOM    205  OH  TYR d   1      66.176  88.704 102.372  0.00  0.00    -0.361 OA
ATOM    206  H47 TYR d   1      66.913  89.089 101.913  0.00  0.00     0.217 HD
ENDBRANCH 199 205
ENDBRANCH 192 195
ENDBRANCH 116 192
ENDBRANCH   1 116
TORSDOF 57
