REMARK WARNING: 32 MAX_TORS EXCEEDED!!!
REMARK  60 active torsions:
REMARK  status: ('A' for Active; 'I' for Inactive)
REMARK    1  A    between atoms: N_1  and  CA_2 
REMARK    2  A    between atoms: CA_2  and  C_3 
REMARK    3  A    between atoms: CA_2  and  CB_5 
REMARK       I    between atoms: C_3  and  N_6 
REMARK    4  A    between atoms: N_6  and  CA_7 
REMARK    5  A    between atoms: CA_7  and  C_8 
REMARK    6  A    between atoms: CA_7  and  CB_10 
REMARK       I    between atoms: C_8  and  N_14 
REMARK    7  A    between atoms: CB_10  and  CG_11 
REMARK    8  A    between atoms: N_14  and  CA_15 
REMARK    9  A    between atoms: CA_15  and  C_16 
REMARK   10  A    between atoms: CA_15  and  CB_18 
REMARK       I    between atoms: C_16  and  N_22 
REMARK   11  A    between atoms: CB_18  and  CG_19 
REMARK   12  A    between atoms: CG_19  and  CD1_20 
REMARK   13  A    between atoms: CG_19  and  CD2_21 
REMARK   14  A    between atoms: N_22  and  CA_23 
REMARK   15  A    between atoms: CA_23  and  C_24 
REMARK   16  A    between atoms: CA_23  and  CB_26 
REMARK       I    between atoms: C_24  and  N_30 
REMARK   17  A    between atoms: CB_26  and  CG1_27 
REMARK   18  A    between atoms: CB_26  and  CG2_28 
REMARK   19  A    between atoms: CG1_27  and  CD1_29 
REMARK   20  A    between atoms: N_30  and  CA_31 
REMARK   21  A    between atoms: CA_31  and  C_32 
REMARK   22  A    between atoms: CA_31  and  CB_34 
REMARK       I    between atoms: C_32  and  N_35 
REMARK   23  A    between atoms: N_35  and  CA_36 
REMARK   24  A    between atoms: CA_36  and  C_37 
REMARK   25  A    between atoms: CA_36  and  CB_39 
REMARK       I    between atoms: C_37  and  N_47 
REMARK   26  A    between atoms: CB_39  and  CG_40 
REMARK   27  A    between atoms: CZ_45  and  OH_46 
REMARK   28  A    between atoms: N_47  and  CA_48 
REMARK   29  A    between atoms: CA_48  and  C_49 
REMARK   30  A    between atoms: CA_48  and  CB_51 
REMARK       I    between atoms: C_49  and  N_58 
REMARK   31  A    between atoms: CB_51  and  CG_52 
REMARK   32  A    between atoms: N_58  and  CA_59 
REMARK   33  A    between atoms: CA_59  and  C_60 
REMARK   34  A    between atoms: CA_59  and  CB_62 
REMARK       I    between atoms: C_60  and  N_67 
REMARK   35  A    between atoms: CB_62  and  CG_63 
REMARK   36  A    between atoms: CG_63  and  CD_64 
REMARK   37  A    between atoms: CD_64  and  CE_65 
REMARK   38  A    between atoms: CE_65  and  NZ_66 
REMARK   39  A    between atoms: N_67  and  CA_68 
REMARK   40  A    between atoms: CA_68  and  C_69 
REMARK   41  A    between atoms: CA_68  and  CB_71 
REMARK       I    between atoms: C_69  and  N_72 
REMARK   42  A    between atoms: N_72  and  CA_73 
REMARK   43  A    between atoms: CA_73  and  C_74 
REMARK   44  A    between atoms: CA_73  and  CB_76 
REMARK       I    between atoms: C_74  and  N_77 
REMARK   45  A    between atoms: N_77  and  CA_78 
REMARK   46  A    between atoms: CA_78  and  C_79 
REMARK   47  A    between atoms: CA_78  and  CB_81 
REMARK       I    between atoms: C_79  and  N_84 
REMARK   48  A    between atoms: CB_81  and  OG1_82 
REMARK   49  A    between atoms: CB_81  and  CG2_83 
REMARK   50  A    between atoms: N_84  and  CA_85 
REMARK   51  A    between atoms: CA_85  and  C_86 
REMARK   52  A    between atoms: CA_85  and  CB_88 
REMARK       I    between atoms: C_86  and  N_93 
REMARK   53  A    between atoms: CB_88  and  CG_89 
REMARK   54  A    between atoms: CG_89  and  CD_90 
REMARK   55  A    between atoms: CD_90  and  CE_91 
REMARK   56  A    between atoms: CE_91  and  NZ_92 
REMARK   57  A    between atoms: N_93  and  CA_94 
REMARK   58  A    between atoms: CA_94  and  C_95 
REMARK   59  A    between atoms: CA_94  and  CB_97 
REMARK   60  A    between atoms: CB_97  and  CG_98 
ROOT
ATOM      1  CA  PHE d   1      11.379  35.764   9.930  0.00  0.00     0.093 C 
ATOM      2  H49 PHE d   1      10.934  36.588  10.507  0.00  0.00     0.088 H 
ENDROOT
BRANCH   1   3
ATOM      3  N   PHE d   1      11.181  36.015   8.493  0.00  0.00    -0.346 N 
ATOM      4  C   TYR d   1      10.354  36.960   8.041  0.00  0.00     0.241 C 
ATOM      5  O   TYR d   1       9.689  37.676   8.790  0.00  0.00    -0.271 OA
ATOM      6  H48 PHE d   1      11.684  35.458   7.832  0.00  0.00     0.163 HD
BRANCH   4   7
ATOM      7  CA  TYR d   1      10.220  37.115   6.527  0.00  0.00     0.093 C 
ATOM      8  H40 TYR d   1       9.373  36.484   6.218  0.00  0.00     0.088 H 
BRANCH   7   9
ATOM      9  N   TYR d   1       9.920  38.468   6.095  0.00  0.00    -0.346 N 
ATOM     10  C   ALA d   1       8.715  38.768   5.627  0.00  0.00     0.240 C 
ATOM     11  O   ALA d   1       7.803  37.946   5.549  0.00  0.00    -0.271 OA
ATOM     12  H39 TYR d   1      10.624  39.176   6.150  0.00  0.00     0.163 HD
BRANCH  10  13
ATOM     13  CA  ALA d   1       8.507  40.209   5.188  0.00  0.00     0.086 C 
ATOM     14  H35 ALA d   1       9.479  40.604   4.857  0.00  0.00     0.086 H 
BRANCH  13  15
ATOM     15  N   ALA d   1       7.571  40.327   4.065  0.00  0.00    -0.346 N 
ATOM     16  C   ILE d   1       7.919  39.936   2.838  0.00  0.00     0.241 C 
ATOM     17  O   ILE d   1       9.029  39.457   2.590  0.00  0.00    -0.271 OA
ATOM     18  H34 ALA d   1       6.659  40.706   4.221  0.00  0.00     0.163 HD
BRANCH  16  19
ATOM     19  CA  ILE d   1       6.883  40.115   1.715  0.00  0.00     0.092 C 
ATOM     20  H24 ILE d   1       5.886  40.286   2.147  0.00  0.00     0.088 H 
BRANCH  19  21
ATOM     21  N   ILE d   1       7.298  41.266   0.932  0.00  0.00    -0.346 N 
ATOM     22  C   LEU d   1       6.780  42.479   1.052  0.00  0.00     0.241 C 
ATOM     23  O   LEU d   1       5.882  42.760   1.846  0.00  0.00    -0.271 OA
ATOM     24  H23 ILE d   1       8.024  41.134   0.257  0.00  0.00     0.163 HD
BRANCH  22  25
ATOM     25  CA  LEU d   1       7.398  43.524   0.114  0.00  0.00     0.089 C 
ATOM     26  H13 LEU d   1       7.718  42.986  -0.790  0.00  0.00     0.087 H 
BRANCH  25  27
ATOM     27  N   LEU d   1       6.506  44.587  -0.316  0.00  0.00    -0.346 N 
ATOM     28  C   ASP d   1       5.333  44.383  -0.902  0.00  0.00     0.241 C 
ATOM     29  O   ASP d   1       4.873  43.266  -1.142  0.00  0.00    -0.271 OA
ATOM     30  H12 LEU d   1       6.794  45.532  -0.161  0.00  0.00     0.163 HD
BRANCH  28  31
ATOM     31  CA  ASP d   1       4.589  45.665  -1.274  0.00  0.00     0.098 C 
ATOM     32  H9  ASP d   1       5.361  46.374  -1.609  0.00  0.00     0.088 H 
BRANCH  31  33
ATOM     33  N   ASP d   1       3.631  45.570  -2.373  0.00  0.00    -0.346 N 
ATOM     34  C   ALA d   1       3.988  45.077  -3.558  0.00  0.00     0.248 C 
ATOM     35  O   ALA d   1       5.110  44.612  -3.783  0.00  0.00    -0.271 OA
ATOM     36  H8  ASP d   1       2.691  45.880  -2.233  0.00  0.00     0.163 HD
BRANCH  34  37
ATOM     37  CA  ALA d   1       2.918  45.086  -4.645  0.00  0.00     0.172 C 
ATOM     38  H4  ALA d   1       2.325  44.162  -4.576  0.00  0.00     0.098 H 
BRANCH  37  39
ATOM     39  N   ALA d   1       2.020  46.263  -4.443  0.00  0.00    -0.067 N 
ATOM     40  H1  ALA d   1       1.312  46.272  -5.160  0.00  0.00     0.275 HD
ATOM     41  H2  ALA d   1       2.561  47.112  -4.495  0.00  0.00     0.275 HD
ATOM     42  H3  ALA d   1       1.581  46.199  -3.538  0.00  0.00     0.275 HD
ENDBRANCH  37  39
BRANCH  37  43
ATOM     43  CB  ALA d   1       3.577  45.159  -6.038  0.00  0.00    -0.042 C 
ATOM     44  H5  ALA d   1       4.236  44.289  -6.178  0.00  0.00     0.030 H 
ATOM     45  H6  ALA d   1       4.168  46.083  -6.116  0.00  0.00     0.030 H 
ATOM     46  H7  ALA d   1       2.797  45.156  -6.813  0.00  0.00     0.030 H 
ENDBRANCH  37  43
ENDBRANCH  34  37
ENDBRANCH  31  33
BRANCH  31  47
ATOM     47  CB  ASP d   1       3.922  46.278  -0.029  0.00  0.00     0.043 C 
ATOM     48  H10 ASP d   1       3.728  45.476   0.699  0.00  0.00     0.052 H 
ATOM     49  H11 ASP d   1       2.969  46.738  -0.330  0.00  0.00     0.052 H 
BRANCH  47  50
ATOM     50  CG  ASP d   1       4.798  47.349   0.639  0.00  0.00     0.175 C 
ATOM     51  OD1 ASP d   1       5.578  47.016   1.563  0.00  0.00    -0.648 OA
ATOM     52  OD2 ASP d   1       4.718  48.527   0.220  0.00  0.00    -0.648 OA
ENDBRANCH  47  50
ENDBRANCH  31  47
ENDBRANCH  28  31
ENDBRANCH  25  27
BRANCH  25  53
ATOM     53  CB  LEU d   1       8.644  44.161   0.757  0.00  0.00    -0.035 C 
ATOM     54  H14 LEU d   1       8.267  44.812   1.559  0.00  0.00     0.037 H 
ATOM     55  H15 LEU d   1       9.105  44.777  -0.029  0.00  0.00     0.037 H 
BRANCH  53  56
ATOM     56  CG  LEU d   1       9.791  43.353   1.380  0.00  0.00    -0.059 C 
ATOM     57  H16 LEU d   1      10.640  44.029   1.560  0.00  0.00     0.038 H 
BRANCH  56  58
ATOM     58  CD1 LEU d   1       9.339  42.785   2.711  0.00  0.00    -0.073 C 
ATOM     59  H17 LEU d   1      10.159  42.205   3.160  0.00  0.00     0.028 H 
ATOM     60  H18 LEU d   1       8.470  42.129   2.554  0.00  0.00     0.028 H 
ATOM     61  H19 LEU d   1       9.060  43.608   3.385  0.00  0.00     0.028 H 
ENDBRANCH  56  58
BRANCH  56  62
ATOM     62  CD2 LEU d   1      10.251  42.254   0.435  0.00  0.00    -0.073 C 
ATOM     63  H20 LEU d   1      10.571  42.700  -0.518  0.00  0.00     0.028 H 
ATOM     64  H21 LEU d   1       9.421  41.556   0.253  0.00  0.00     0.028 H 
ATOM     65  H22 LEU d   1      11.094  41.711   0.887  0.00  0.00     0.028 H 
ENDBRANCH  56  62
ENDBRANCH  53  56
ENDBRANCH  25  53
ENDBRANCH  22  25
ENDBRANCH  19  21
BRANCH  19  66
ATOM     66  CB  ILE d   1       6.844  38.854   0.787  0.00  0.00    -0.030 C 
ATOM     67  H25 ILE d   1       7.615  38.974   0.011  0.00  0.00     0.043 H 
BRANCH  66  68
ATOM     68  CG1 ILE d   1       5.480  38.738   0.094  0.00  0.00    -0.063 C 
ATOM     69  H26 ILE d   1       4.708  38.666   0.874  0.00  0.00     0.033 H 
ATOM     70  H27 ILE d   1       5.481  37.817  -0.507  0.00  0.00     0.033 H 
BRANCH  68  71
ATOM     71  CD1 ILE d   1       5.122  39.876  -0.806  0.00  0.00    -0.076 C 
ATOM     72  H31 ILE d   1       4.132  39.695  -1.250  0.00  0.00     0.027 H 
ATOM     73  H32 ILE d   1       5.872  39.961  -1.606  0.00  0.00     0.027 H 
ATOM     74  H33 ILE d   1       5.098  40.810  -0.225  0.00  0.00     0.027 H 
ENDBRANCH  68  71
ENDBRANCH  66  68
BRANCH  66  75
ATOM     75  CG2 ILE d   1       7.157  37.594   1.573  0.00  0.00    -0.071 C 
ATOM     76  H28 ILE d   1       8.137  37.700   2.060  0.00  0.00     0.028 H 
ATOM     77  H29 ILE d   1       7.178  36.732   0.890  0.00  0.00     0.028 H 
ATOM     78  H30 ILE d   1       6.382  37.437   2.338  0.00  0.00     0.028 H 
ENDBRANCH  66  75
ENDBRANCH  19  66
ENDBRANCH  16  19
ENDBRANCH  13  15
BRANCH  13  79
ATOM     79  CB  ALA d   1       8.028  41.046   6.364  0.00  0.00    -0.049 C 
ATOM     80  H36 ALA d   1       8.739  40.948   7.198  0.00  0.00     0.030 H 
ATOM     81  H37 ALA d   1       7.036  40.694   6.685  0.00  0.00     0.030 H 
ATOM     82  H38 ALA d   1       7.962  42.101   6.061  0.00  0.00     0.030 H 
ENDBRANCH  13  79
ENDBRANCH  10  13
ENDBRANCH   7   9
BRANCH   7  83
ATOM     83  CB  TYR d   1      11.470  36.597   5.803  0.00  0.00    -0.014 C 
ATOM     84  H41 TYR d   1      11.302  36.721   4.723  0.00  0.00     0.043 H 
ATOM     85  H42 TYR d   1      11.569  35.527   6.038  0.00  0.00     0.043 H 
BRANCH  83  86
ATOM     86  CG  TYR d   1      12.793  37.263   6.140  0.00  0.00    -0.056 A 
ATOM     87  CD1 TYR d   1      13.832  36.510   6.692  0.00  0.00    -0.074 A 
ATOM     88  CE1 TYR d   1      15.087  37.071   6.957  0.00  0.00    -0.051 A 
ATOM     89  H43 TYR d   1      13.662  35.464   6.921  0.00  0.00     0.084 H 
ATOM     90  CZ  TYR d   1      15.327  38.408   6.678  0.00  0.00     0.065 A 
ATOM     91  H45 TYR d   1      15.874  36.458   7.382  0.00  0.00     0.087 H 
ATOM     92  CE2 TYR d   1      14.299  39.197   6.125  0.00  0.00    -0.051 A 
ATOM     93  CD2 TYR d   1      13.035  38.617   5.860  0.00  0.00    -0.074 A 
ATOM     94  H46 TYR d   1      14.475  40.243   5.903  0.00  0.00     0.087 H 
ATOM     95  H44 TYR d   1      12.245  39.226   5.436  0.00  0.00     0.084 H 
BRANCH  90  96
ATOM     96  OH  TYR d   1      16.596  38.915   6.968  0.00  0.00    -0.361 OA
ATOM     97  H47 TYR d   1      17.136  38.224   7.332  0.00  0.00     0.217 HD
ENDBRANCH  90  96
ENDBRANCH  83  86
ENDBRANCH   7  83
ENDBRANCH   4   7
ENDBRANCH   1   3
BRANCH   1  98
ATOM     98  C   PHE d   1      12.856  35.661  10.236  0.00  0.00     0.241 C 
ATOM     99  O   PHE d   1      13.486  34.685   9.838  0.00  0.00    -0.271 OA
ATOM    100  N   LYS d   1      13.419  36.629  10.952  0.00  0.00    -0.346 N 
ATOM    101  H57 LYS d   1      12.875  37.397  11.290  0.00  0.00     0.163 HD
BRANCH 100 102
ATOM    102  CA  LYS d   1      14.854  36.547  11.236  0.00  0.00     0.089 C 
ATOM    103  H58 LYS d   1      15.384  36.466  10.275  0.00  0.00     0.087 H 
BRANCH 102 104
ATOM    104  C   LYS d   1      15.182  35.324  12.067  0.00  0.00     0.241 C 
ATOM    105  O   LYS d   1      14.838  35.259  13.241  0.00  0.00    -0.271 OA
ATOM    106  N   ALA d   1      15.854  34.355  11.458  0.00  0.00    -0.346 N 
ATOM    107  H70 ALA d   1      16.112  34.462  10.498  0.00  0.00     0.163 HD
BRANCH 106 108
ATOM    108  CA  ALA d   1      16.221  33.136  12.169  0.00  0.00     0.086 C 
ATOM    109  H71 ALA d   1      15.301  32.590  12.422  0.00  0.00     0.086 H 
BRANCH 108 110
ATOM    110  C   ALA d   1      16.957  33.470  13.464  0.00  0.00     0.240 C 
ATOM    111  O   ALA d   1      17.027  34.625  13.875  0.00  0.00    -0.271 OA
ATOM    112  N   ALA d   1      17.505  32.454  14.112  0.00  0.00    -0.346 N 
ATOM    113  H75 ALA d   1      17.429  31.529  13.741  0.00  0.00     0.163 HD
BRANCH 112 114
ATOM    114  CA  ALA d   1      18.215  32.676  15.358  0.00  0.00     0.086 C 
ATOM    115  H76 ALA d   1      18.513  33.733  15.412  0.00  0.00     0.086 H 
BRANCH 114 116
ATOM    116  C   ALA d   1      19.454  31.819  15.412  0.00  0.00     0.240 C 
ATOM    117  O   ALA d   1      19.535  30.781  14.744  0.00  0.00    -0.271 OA
ATOM    118  N   THR d   1      20.416  32.263  16.216  0.00  0.00    -0.344 N 
ATOM    119  H80 THR d   1      20.278  33.111  16.727  0.00  0.00     0.163 HD
BRANCH 118 120
ATOM    120  CA  THR d   1      21.663  31.536  16.364  0.00  0.00     0.113 C 
ATOM    121  H81 THR d   1      21.808  30.913  15.469  0.00  0.00     0.091 H 
BRANCH 120 122
ATOM    122  C   THR d   1      21.598  30.643  17.582  0.00  0.00     0.243 C 
ATOM    123  O   THR d   1      21.336  31.096  18.699  0.00  0.00    -0.271 OA
ATOM    124  N   LYS d   1      21.838  29.361  17.339  0.00  0.00    -0.346 N 
ATOM    125  H87 LYS d   1      22.052  29.082  16.403  0.00  0.00     0.163 HD
BRANCH 124 126
ATOM    126  CA  LYS d   1      21.803  28.346  18.377  0.00  0.00     0.089 C 
ATOM    127  H88 LYS d   1      21.147  28.674  19.197  0.00  0.00     0.087 H 
BRANCH 126 128
ATOM    128  C   LYS d   1      23.211  28.169  18.896  0.00  0.00     0.241 C 
ATOM    129  O   LYS d   1      24.029  27.501  18.271  0.00  0.00    -0.271 OA
ATOM    130  N   PHE d   1      23.493  28.786  20.036  0.00  0.00    -0.344 N 
ATOM    131 0H10 PHE d   1      22.785  29.320  20.498  0.00  0.00     0.163 HD
BRANCH 130 132
ATOM    132  CA  PHE d   1      24.819  28.694  20.620  0.00  0.00     0.100 C 
ATOM    133 1H10 PHE d   1      25.564  28.920  19.843  0.00  0.00     0.090 H 
BRANCH 132 134
ATOM    134  C   PHE d   1      25.066  27.286  21.141  0.00  0.00     0.197 C 
ATOM    135  O   PHE d   1      24.072  26.542  21.284  0.00  0.00    -0.646 OA
ATOM    136  OXT PHE d   1      26.243  26.951  21.400  0.00  0.00    -0.646 OA
ENDBRANCH 132 134
BRANCH 132 137
ATOM    137  CB  PHE d   1      24.967  29.710  21.757  0.00  0.00    -0.013 C 
ATOM    138 2H10 PHE d   1      25.993  29.645  22.149  0.00  0.00     0.043 H 
ATOM    139 3H10 PHE d   1      24.253  29.448  22.552  0.00  0.00     0.043 H 
BRANCH 137 140
ATOM    140  CG  PHE d   1      24.709  31.132  21.338  0.00  0.00    -0.056 A 
ATOM    141  CD1 PHE d   1      23.395  31.600  21.172  0.00  0.00    -0.077 A 
ATOM    142  CE1 PHE d   1      23.139  32.931  20.755  0.00  0.00    -0.082 A 
ATOM    143 4H10 PHE d   1      22.563  30.933  21.366  0.00  0.00     0.084 H 
ATOM    144  CZ  PHE d   1      24.216  33.801  20.501  0.00  0.00    -0.083 A 
ATOM    145 6H10 PHE d   1      22.119  33.277  20.633  0.00  0.00     0.083 H 
ATOM    146  CE2 PHE d   1      25.545  33.333  20.666  0.00  0.00    -0.082 A 
ATOM    147 8H10 PHE d   1      24.031  34.820  20.182  0.00  0.00     0.083 H 
ATOM    148  CD2 PHE d   1      25.779  32.003  21.084  0.00  0.00    -0.077 A 
ATOM    149 7H10 PHE d   1      26.381  33.995  20.472  0.00  0.00     0.083 H 
ATOM    150 5H10 PHE d   1      26.797  31.652  21.210  0.00  0.00     0.084 H 
ENDBRANCH 137 140
ENDBRANCH 132 137
ENDBRANCH 130 132
ENDBRANCH 126 128
BRANCH 126 151
ATOM    151  CB  LYS d   1      21.265  27.027  17.795  0.00  0.00    -0.038 C 
ATOM    152  H89 LYS d   1      21.024  26.349  18.627  0.00  0.00     0.036 H 
ATOM    153  H90 LYS d   1      22.048  26.575  17.168  0.00  0.00     0.036 H 
BRANCH 151 154
ATOM    154  CG  LYS d   1      19.997  27.223  16.935  0.00  0.00    -0.061 C 
ATOM    155  H91 LYS d   1      20.308  27.576  15.941  0.00  0.00     0.033 H 
ATOM    156  H92 LYS d   1      19.370  27.988  17.417  0.00  0.00     0.033 H 
BRANCH 154 157
ATOM    157  CD  LYS d   1      19.150  25.958  16.750  0.00  0.00    -0.043 C 
ATOM    158  H93 LYS d   1      18.899  25.542  17.737  0.00  0.00     0.035 H 
ATOM    159  H94 LYS d   1      19.725  25.217  16.175  0.00  0.00     0.035 H 
BRANCH 157 160
ATOM    160  CE  LYS d   1      17.855  26.288  15.997  0.00  0.00     0.080 C 
ATOM    161  H95 LYS d   1      18.100  26.467  14.940  0.00  0.00     0.075 H 
ATOM    162  H96 LYS d   1      17.419  27.199  16.432  0.00  0.00     0.075 H 
BRANCH 160 163
ATOM    163  NZ  LYS d   1      16.847  25.199  16.071  0.00  0.00    -0.079 N 
ATOM    164  H97 LYS d   1      16.021  25.470  15.561  0.00  0.00     0.274 HD
ATOM    165  H98 LYS d   1      16.606  25.029  17.035  0.00  0.00     0.274 HD
ATOM    166  H99 LYS d   1      17.230  24.358  15.667  0.00  0.00     0.274 HD
ENDBRANCH 160 163
ENDBRANCH 157 160
ENDBRANCH 154 157
ENDBRANCH 151 154
ENDBRANCH 126 151
ENDBRANCH 124 126
ENDBRANCH 120 122
BRANCH 120 167
ATOM    167  CB  THR d   1      22.871  32.474  16.508  0.00  0.00     0.060 C 
ATOM    168  H82 THR d   1      22.787  33.033  17.452  0.00  0.00     0.086 H 
BRANCH 167 169
ATOM    169  OG1 THR d   1      22.905  33.397  15.408  0.00  0.00    -0.393 OA
ATOM    170  H83 THR d   1      23.654  33.974  15.503  0.00  0.00     0.210 HD
ENDBRANCH 167 169
BRANCH 167 171
ATOM    171  CG2 THR d   1      24.160  31.652  16.516  0.00  0.00    -0.050 C 
ATOM    172  H84 THR d   1      25.024  32.325  16.619  0.00  0.00     0.031 H 
ATOM    173  H85 THR d   1      24.243  31.091  15.573  0.00  0.00     0.031 H 
ATOM    174  H86 THR d   1      24.141  30.948  17.361  0.00  0.00     0.031 H 
ENDBRANCH 167 171
ENDBRANCH 120 167
ENDBRANCH 118 120
ENDBRANCH 114 116
BRANCH 114 175
ATOM    175  CB  ALA d   1      17.312  32.360  16.540  0.00  0.00    -0.049 C 
ATOM    176  H77 ALA d   1      17.861  32.532  17.477  0.00  0.00     0.030 H 
ATOM    177  H78 ALA d   1      16.995  31.308  16.488  0.00  0.00     0.030 H 
ATOM    178  H79 ALA d   1      16.426  33.011  16.509  0.00  0.00     0.030 H 
ENDBRANCH 114 175
ENDBRANCH 112 114
ENDBRANCH 108 110
BRANCH 108 179
ATOM    179  CB  ALA d   1      17.088  32.242  11.278  0.00  0.00    -0.049 C 
ATOM    180  H72 ALA d   1      17.357  31.328  11.827  0.00  0.00     0.030 H 
ATOM    181  H73 ALA d   1      18.003  32.783  10.996  0.00  0.00     0.030 H 
ATOM    182  H74 ALA d   1      16.527  31.974  10.371  0.00  0.00     0.030 H 
ENDBRANCH 108 179
ENDBRANCH 106 108
ENDBRANCH 102 104
BRANCH 102 183
ATOM    183  CB  LYS d   1      15.362  37.799  11.961  0.00  0.00    -0.038 C 
ATOM    184  H59 LYS d   1      16.126  37.487  12.688  0.00  0.00     0.036 H 
ATOM    185  H60 LYS d   1      14.514  38.254  12.493  0.00  0.00     0.036 H 
BRANCH 183 186
ATOM    186  CG  LYS d   1      15.978  38.862  11.052  0.00  0.00    -0.061 C 
ATOM    187  H61 LYS d   1      15.225  39.195  10.322  0.00  0.00     0.033 H 
ATOM    188  H62 LYS d   1      16.838  38.429  10.520  0.00  0.00     0.033 H 
BRANCH 186 189
ATOM    189  CD  LYS d   1      16.444  40.053  11.865  0.00  0.00    -0.043 C 
ATOM    190  H63 LYS d   1      16.879  40.801  11.186  0.00  0.00     0.035 H 
ATOM    191  H64 LYS d   1      17.209  39.720  12.582  0.00  0.00     0.035 H 
BRANCH 189 192
ATOM    192  CE  LYS d   1      15.283  40.694  12.636  0.00  0.00     0.080 C 
ATOM    193  H65 LYS d   1      14.672  39.888  13.069  0.00  0.00     0.075 H 
ATOM    194  H66 LYS d   1      14.676  41.272  11.924  0.00  0.00     0.075 H 
BRANCH 192 195
ATOM    195  NZ  LYS d   1      15.704  41.615  13.750  0.00  0.00    -0.079 N 
ATOM    196  H67 LYS d   1      14.886  41.991  14.202  0.00  0.00     0.274 HD
ATOM    197  H68 LYS d   1      16.256  42.369  13.372  0.00  0.00     0.274 HD
ATOM    198  H69 LYS d   1      16.253  41.101  14.422  0.00  0.00     0.274 HD
ENDBRANCH 192 195
ENDBRANCH 189 192
ENDBRANCH 186 189
ENDBRANCH 183 186
ENDBRANCH 102 183
ENDBRANCH 100 102
ENDBRANCH   1  98
BRANCH   1 199
ATOM    199  CB  PHE d   1      10.732  34.435  10.342  0.00  0.00    -0.014 C 
ATOM    200  H50 PHE d   1      11.143  34.141  11.319  0.00  0.00     0.043 H 
ATOM    201  H51 PHE d   1      10.995  33.677   9.590  0.00  0.00     0.043 H 
BRANCH 199 202
ATOM    202  CG  PHE d   1       9.229  34.482  10.458  0.00  0.00    -0.056 A 
ATOM    203  CD1 PHE d   1       8.457  35.262   9.590  0.00  0.00    -0.077 A 
ATOM    204  CE1 PHE d   1       7.064  35.264   9.661  0.00  0.00    -0.082 A 
ATOM    205  H52 PHE d   1       8.952  35.877   8.847  0.00  0.00     0.084 H 
ATOM    206  CZ  PHE d   1       6.420  34.489  10.600  0.00  0.00    -0.083 A 
ATOM    207  H54 PHE d   1       6.488  35.876   8.977  0.00  0.00     0.083 H 
ATOM    208  CE2 PHE d   1       7.176  33.701  11.482  0.00  0.00    -0.082 A 
ATOM    209  H56 PHE d   1       5.338  34.488  10.658  0.00  0.00     0.083 H 
ATOM    210  CD2 PHE d   1       8.577  33.704  11.406  0.00  0.00    -0.077 A 
ATOM    211  H55 PHE d   1       6.676  33.089  12.224  0.00  0.00     0.083 H 
ATOM    212  H53 PHE d   1       9.155  33.095  12.092  0.00  0.00     0.084 H 
ENDBRANCH 199 202
ENDBRANCH   1 199
TORSDOF 60
