REMARK  9 active torsions:
REMARK  status: ('A' for Active; 'I' for Inactive)
REMARK    1  A    between atoms: C8_2  and  C7_4 
REMARK    2  A    between atoms: C7_4  and  C5_5 
REMARK    3  A    between atoms: C2_10  and  O4_13 
REMARK    4  A    between atoms: O4_13  and  C11_14 
REMARK    5  A    between atoms: C13_16  and  C17_21 
REMARK    6  A    between atoms: C14_17  and  O_20 
REMARK       I    between atoms: C17_21  and  N28_23 
REMARK    7  A    between atoms: N28_23  and  C29_24 
REMARK    8  A    between atoms: C29_24  and  C30_25 
REMARK    9  A    between atoms: C30_25  and  C31_26 
ROOT
ATOM      1  C11 442 d   1      51.140   5.274  13.850  0.00  0.00     0.077 A 
ATOM      2  C12 442 d   1      52.096   5.016  12.860  0.00  0.00    -0.032 A 
ATOM      3  C13 442 d   1      52.482   6.023  11.981  0.00  0.00     0.067 A 
ATOM      4  C14 442 d   1      51.856   7.364  12.116  0.00  0.00     0.081 A 
ATOM      5  C15 442 d   1      50.913   7.583  13.101  0.00  0.00    -0.047 A 
ATOM      6  C16 442 d   1      50.556   6.549  13.956  0.00  0.00    -0.048 A 
ATOM      7  H5  442 d   1      52.537   4.029  12.778  0.00  0.00     0.089 H 
ATOM      8  H6  442 d   1      50.453   8.559  13.206  0.00  0.00     0.087 H 
ATOM      9  H7  442 d   1      49.811   6.728  14.722  0.00  0.00     0.087 H 
ENDROOT
BRANCH   3  10
ATOM     10  C17 442 d   1      53.491   5.769  10.887  0.00  0.00     0.254 C 
ATOM     11  O1  442 d   1      54.353   4.887  10.963  0.00  0.00    -0.268 OA
ATOM     12  N28 442 d   1      53.430   6.534   9.809  0.00  0.00    -0.356 N 
ATOM     13  H9  442 d   1      52.556   6.796   9.401  0.00  0.00     0.162 HD
BRANCH  12  14
ATOM     14  C29 442 d   1      54.685   6.970   9.253  0.00  0.00    -0.001 C 
ATOM     15  H10 442 d   1      55.228   6.074   8.917  0.00  0.00     0.064 H 
ATOM     16  H11 442 d   1      55.252   7.462  10.058  0.00  0.00     0.064 H 
BRANCH  14  17
ATOM     17  C30 442 d   1      54.622   7.945   8.069  0.00  0.00    -0.026 C 
ATOM     18  H12 442 d   1      53.661   7.886   7.538  0.00  0.00     0.042 H 
ATOM     19  H13 442 d   1      55.445   7.782   7.357  0.00  0.00     0.042 H 
BRANCH  17  20
ATOM     20  C31 442 d   1      54.772   9.235   8.812  0.00  0.00    -0.057 A 
ATOM     21  C36 442 d   1      56.037   9.602   9.227  0.00  0.00    -0.077 A 
ATOM     22  C35 442 d   1      56.199  10.718  10.029  0.00  0.00    -0.082 A 
ATOM     23  H14 442 d   1      56.899   9.018   8.926  0.00  0.00     0.084 H 
ATOM     24  C34 442 d   1      55.095  11.444  10.443  0.00  0.00    -0.083 A 
ATOM     25  H15 442 d   1      57.193  11.025  10.334  0.00  0.00     0.083 H 
ATOM     26  C33 442 d   1      53.818  11.050  10.045  0.00  0.00    -0.082 A 
ATOM     27  H18 442 d   1      55.223  12.316  11.074  0.00  0.00     0.083 H 
ATOM     28  C32 442 d   1      53.654   9.936   9.229  0.00  0.00    -0.077 A 
ATOM     29  H17 442 d   1      52.952  11.613  10.372  0.00  0.00     0.083 H 
ATOM     30  H16 442 d   1      52.663   9.621   8.923  0.00  0.00     0.084 H 
ENDBRANCH  17  20
ENDBRANCH  14  17
ENDBRANCH  12  14
ENDBRANCH   3  10
BRANCH   4  31
ATOM     31  O   442 d   1      52.166   8.359  11.299  0.00  0.00    -0.360 OA
ATOM     32  H8  442 d   1      52.823   8.065  10.679  0.00  0.00     0.217 HD
ENDBRANCH   4  31
BRANCH   1  33
ATOM     33  O4  442 d   1      50.759   4.280  14.733  0.00  0.00    -0.308 OA
BRANCH  33  34
ATOM     34  C2  442 d   1      49.504   4.353  15.294  0.00  0.00     0.110 A 
ATOM     35  C3  442 d   1      49.318   4.920  16.627  0.00  0.00     0.046 A 
ATOM     36  C4  442 d   1      48.036   5.012  17.177  0.00  0.00    -0.057 A 
ATOM     37 BR2  442 d   1      50.926   5.435  17.448  0.00  0.00    -0.048 Br
ATOM     38  C5  442 d   1      46.900   4.597  16.462  0.00  0.00    -0.045 A 
ATOM     39  H4  442 d   1      47.916   5.412  18.177  0.00  0.00     0.086 H 
ATOM     40  C6  442 d   1      47.047   4.048  15.191  0.00  0.00    -0.057 A 
ATOM     41  C1  442 d   1      48.295   3.920  14.588  0.00  0.00     0.046 A 
ATOM     42  H3  442 d   1      46.166   3.711  14.657  0.00  0.00     0.086 H 
ATOM     43 BR1  442 d   1      48.483   3.190  12.876  0.00  0.00    -0.048 Br
BRANCH  38  44
ATOM     44  C7  442 d   1      45.501   4.566  17.071  0.00  0.00     0.040 C 
ATOM     45  H1  442 d   1      45.424   5.298  17.889  0.00  0.00     0.056 H 
ATOM     46  H2  442 d   1      44.746   4.792  16.304  0.00  0.00     0.056 H 
BRANCH  44  47
ATOM     47  C8  442 d   1      45.306   3.158  17.604  0.00  0.00     0.176 C 
ATOM     48  O3  442 d   1      44.122   2.728  17.556  0.00  0.00    -0.648 OA
ATOM     49  O2  442 d   1      46.268   2.489  18.055  0.00  0.00    -0.648 OA
ENDBRANCH  44  47
ENDBRANCH  38  44
ENDBRANCH  33  34
ENDBRANCH   1  33
TORSDOF 9
