REMARK  6 active torsions:
REMARK  status: ('A' for Active; 'I' for Inactive)
REMARK    1  A    between atoms: C1_1  and  C2_2 
REMARK    2  A    between atoms: C6_5  and  C24_17 
REMARK    3  A    between atoms: C8_6  and  C28_20 
REMARK    4  A    between atoms: C17_13  and  C3_39 
REMARK       I    between atoms: C28_20  and  N30_22 
REMARK    5  A    between atoms: N30_22  and  C31_23 
REMARK    6  A    between atoms: C37_26  and  C38_27 
ROOT
ATOM      1  C1  434 d   1      54.763   3.861   2.512  0.00  0.00     0.079 C 
ATOM      2  O4  434 d   1      55.563   4.843   1.890  0.00  0.00    -0.352 OA
ATOM      3  C5  434 d   1      54.860   5.385   0.794  0.00  0.00     0.205 A 
ATOM      4  C6  434 d   1      53.401   4.913   0.881  0.00  0.00     0.089 C 
ATOM      5  C8  434 d   1      53.328   4.314   2.283  0.00  0.00     0.069 C 
ATOM      6  C10 434 d   1      55.073   6.878   0.848  0.00  0.00     0.203 A 
ATOM      7  C11 434 d   1      55.812   7.295  -0.346  0.00  0.00     0.028 A 
ATOM      8  O12 434 d   1      54.693   7.605   1.735  0.00  0.00    -0.288 OA
ATOM      9  C13 434 d   1      55.526   4.984  -0.489  0.00  0.00     0.203 A 
ATOM     10  O14 434 d   1      55.599   3.860  -0.929  0.00  0.00    -0.288 OA
ATOM     11  C15 434 d   1      56.228   8.584  -0.719  0.00  0.00    -0.063 A 
ATOM     12  C17 434 d   1      56.938   8.708  -1.934  0.00  0.00    -0.061 A 
ATOM     13  C19 434 d   1      57.209   7.578  -2.728  0.00  0.00    -0.076 A 
ATOM     14  C21 434 d   1      56.776   6.290  -2.327  0.00  0.00    -0.068 A 
ATOM     15  C23 434 d   1      56.079   6.184  -1.130  0.00  0.00     0.027 A 
ATOM     16  H1  434 d   1      54.877   2.941   1.920  0.00  0.00     0.092 H 
ATOM     17  H2  434 d   1      53.249   4.106   0.149  0.00  0.00     0.064 H 
ATOM     18  H3  434 d   1      52.724   3.403   2.162  0.00  0.00     0.060 H 
ATOM     19  H4  434 d   1      56.013   9.448  -0.100  0.00  0.00     0.085 H 
ATOM     20  H5  434 d   1      57.755   7.694  -3.657  0.00  0.00     0.084 H 
ATOM     21  H6  434 d   1      56.982   5.416  -2.934  0.00  0.00     0.085 H 
ENDROOT
BRANCH   5  22
ATOM     22  C28 434 d   1      52.675   4.978   3.490  0.00  0.00     0.230 C 
ATOM     23  O29 434 d   1      51.801   4.515   4.183  0.00  0.00    -0.273 OA
ATOM     24  N30 434 d   1      53.262   6.228   3.663  0.00  0.00    -0.327 N 
ATOM     25  H7  434 d   1      54.032   6.496   3.084  0.00  0.00     0.169 HD
BRANCH  24  26
ATOM     26  C31 434 d   1      52.779   7.133   4.658  0.00  0.00     0.034 A 
ATOM     27  C33 434 d   1      52.959   8.511   4.500  0.00  0.00    -0.056 A 
ATOM     28  C35 434 d   1      52.500   9.407   5.457  0.00  0.00    -0.069 A 
ATOM     29  H8  434 d   1      53.464   8.886   3.617  0.00  0.00     0.086 H 
ATOM     30  C37 434 d   1      51.844   8.953   6.611  0.00  0.00    -0.005 A 
ATOM     31  H9  434 d   1      52.651  10.470   5.310  0.00  0.00     0.085 H 
ATOM     32  C39 434 d   1      51.660   7.565   6.772  0.00  0.00    -0.069 A 
ATOM     33  C41 434 d   1      52.120   6.670   5.810  0.00  0.00    -0.056 A 
ATOM     34  H10 434 d   1      51.155   7.190   7.655  0.00  0.00     0.085 H 
ATOM     35  H11 434 d   1      51.968   5.606   5.951  0.00  0.00     0.086 H 
BRANCH  30  36
ATOM     36  C38 434 d   1      51.380   9.925   7.607  0.00  0.00     0.098 A 
ATOM     37  N43 434 d   1      50.172  10.569   7.477  0.00  0.00    -0.142 NA
ATOM     38  N44 434 d   1      50.022  11.384   8.519  0.00  0.00    -0.111 NA
ATOM     39  S46 434 d   1      51.240  11.414   9.627  0.00  0.00     0.025 SA
ATOM     40  C47 434 d   1      52.098  10.273   8.736  0.00  0.00     0.005 A 
ATOM     41  H12 434 d   1      53.072   9.870   9.008  0.00  0.00     0.101 H 
ENDBRANCH  30  36
ENDBRANCH  24  26
ENDBRANCH   5  22
BRANCH   1  42
ATOM     42  C2  434 d   1      55.235   3.453   3.907  0.00  0.00    -0.027 A 
ATOM     43  C49 434 d   1      56.574   3.645   4.304  0.00  0.00    -0.052 A 
ATOM     44  C51 434 d   1      57.015   3.270   5.583  0.00  0.00     0.056 A 
ATOM     45  H13 434 d   1      57.276   4.090   3.609  0.00  0.00     0.087 H 
ATOM     46  C53 434 d   1      56.097   2.683   6.509  0.00  0.00     0.055 A 
ATOM     47 CL1  434 d   1      58.650   3.533   5.985  0.00  0.00    -0.083 Cl
ATOM     48  C55 434 d   1      54.762   2.491   6.114  0.00  0.00    -0.060 A 
ATOM     49 CL2  434 d   1      56.582   2.211   8.087  0.00  0.00    -0.083 Cl
ATOM     50  C57 434 d   1      54.334   2.868   4.836  0.00  0.00    -0.073 A 
ATOM     51  H14 434 d   1      54.056   2.046   6.806  0.00  0.00     0.086 H 
ATOM     52  H15 434 d   1      53.300   2.711   4.551  0.00  0.00     0.084 H 
ENDBRANCH   1  42
BRANCH   4  53
ATOM     53  C24 434 d   1      52.352   5.982   0.559  0.00  0.00     0.181 C 
ATOM     54  O25 434 d   1      51.246   6.098   1.065  0.00  0.00    -0.648 OA
ATOM     55  O26 434 d   1      52.750   6.790  -0.317  0.00  0.00    -0.648 OA
ENDBRANCH   4  53
BRANCH  12  56
ATOM     56  C3  434 d   1      57.421  10.092  -2.397  0.00  0.00    -0.051 C 
ATOM     57  H16 434 d   1      57.122  10.851  -1.658  0.00  0.00     0.033 H 
ATOM     58  H17 434 d   1      56.969  10.331  -3.371  0.00  0.00     0.033 H 
ATOM     59  H18 434 d   1      58.517  10.085  -2.493  0.00  0.00     0.033 H 
ENDBRANCH  12  56
TORSDOF 6
