REMARK  12 active torsions:
REMARK  status: ('A' for Active; 'I' for Inactive)
REMARK    1  A    between atoms: O1_7  and  C1_1 
REMARK    2  A    between atoms: C2_2  and  O2_8 
REMARK    3  A    between atoms: C3_3  and  O3_9 
REMARK    4  A    between atoms: C4_4  and  O4_10 
REMARK    5  A    between atoms: C5_5  and  C6_6 
REMARK    6  A    between atoms: C6_6  and  O6_12 
REMARK    7  A    between atoms: C4'_16  and  O1_7 
REMARK    8  A    between atoms: C1'_13  and  O1'_19 
REMARK    9  A    between atoms: C2'_14  and  O2'_20 
REMARK   10  A    between atoms: C3'_15  and  O3'_21 
REMARK   11  A    between atoms: C5'_17  and  C6'_18 
REMARK   12  A    between atoms: C6'_18  and  O6'_23 
ROOT
ATOM      1  O1  NON d   1      36.727  93.300  -0.478  0.00  0.00    -0.348 OA
ENDROOT
BRANCH   1   2
ATOM      2  C1  NON d   1      36.064  92.314  -1.249  0.00  0.00     0.159 C 
ATOM      3  C2  NON d   1      37.219  91.378  -1.710  0.00  0.00     0.110 C 
ATOM      4  C3  NON d   1      38.159  92.132  -2.616  0.00  0.00     0.092 C 
ATOM      5  H2  NON d   1      36.785  90.542  -2.278  0.00  0.00     0.094 H 
ATOM      6  C4  NON d   1      37.318  92.680  -3.823  0.00  0.00     0.090 C 
ATOM      7  H3  NON d   1      38.606  92.972  -2.064  0.00  0.00     0.091 H 
ATOM      8  C5  NON d   1      36.222  93.585  -3.313  0.00  0.00     0.089 C 
ATOM      9  H4  NON d   1      36.869  91.828  -4.354  0.00  0.00     0.091 H 
ATOM     10  O5  NON d   1      35.415  92.843  -2.356  0.00  0.00    -0.348 OA
ATOM     11  H5  NON d   1      36.673  94.463  -2.827  0.00  0.00     0.090 H 
ATOM     12  H1  NON d   1      35.336  91.768  -0.630  0.00  0.00     0.133 H 
BRANCH   3  13
ATOM     13  O2  NON d   1      37.926  90.832  -0.566  0.00  0.00    -0.388 OA
ATOM     14  H8  NON d   1      38.602  90.237  -0.868  0.00  0.00     0.210 HD
ENDBRANCH   3  13
BRANCH   4  15
ATOM     15  O3  NON d   1      39.209  91.274  -3.096  0.00  0.00    -0.390 OA
ATOM     16  H9  NON d   1      38.828  90.543  -3.569  0.00  0.00     0.210 HD
ENDBRANCH   4  15
BRANCH   6  17
ATOM     17  O4  NON d   1      38.126  93.422  -4.738  0.00  0.00    -0.390 OA
ATOM     18  H10 NON d   1      38.821  92.865  -5.068  0.00  0.00     0.210 HD
ENDBRANCH   6  17
BRANCH   8  19
ATOM     19  C6  NON d   1      35.316  94.036  -4.413  0.00  0.00     0.043 C 
ATOM     20  H6  NON d   1      34.722  93.180  -4.766  0.00  0.00     0.078 H 
ATOM     21  H7  NON d   1      35.923  94.428  -5.242  0.00  0.00     0.078 H 
BRANCH  19  22
ATOM     22  O6  NON d   1      34.392  95.108  -3.932  0.00  0.00    -0.398 OA
ATOM     23  H11 NON d   1      34.901  95.851  -3.629  0.00  0.00     0.209 HD
ENDBRANCH  19  22
ENDBRANCH   8  19
ENDBRANCH   1   2
BRANCH   1  24
ATOM     24  C4' NON d   1      35.997  93.783   0.674  0.00  0.00     0.096 C 
ATOM     25  C3' NON d   1      36.688  93.354   1.939  0.00  0.00     0.092 C 
ATOM     26  C2' NON d   1      35.908  93.870   3.130  0.00  0.00     0.110 C 
ATOM     27  H14 NON d   1      37.719  93.736   1.951  0.00  0.00     0.091 H 
ATOM     28  C1' NON d   1      35.806  95.385   3.078  0.00  0.00     0.156 C 
ATOM     29  H13 NON d   1      34.897  93.437   3.123  0.00  0.00     0.094 H 
ATOM     30  O5' NON d   1      35.568  95.915   1.819  0.00  0.00    -0.349 OA
ATOM     31  H12 NON d   1      35.023  95.706   3.780  0.00  0.00     0.133 H 
ATOM     32  C5' NON d   1      36.088  95.354   0.596  0.00  0.00     0.089 C 
ATOM     33  H16 NON d   1      37.149  95.632   0.515  0.00  0.00     0.090 H 
ATOM     34  H15 NON d   1      34.954  93.433   0.660  0.00  0.00     0.091 H 
BRANCH  25  35
ATOM     35  O3' NON d   1      36.678  91.929   2.057  0.00  0.00    -0.390 OA
ATOM     36  H21 NON d   1      37.130  91.548   1.313  0.00  0.00     0.210 HD
ENDBRANCH  25  35
BRANCH  26  37
ATOM     37  O2' NON d   1      36.579  93.484   4.299  0.00  0.00    -0.388 OA
ATOM     38  H20 NON d   1      36.635  92.536   4.332  0.00  0.00     0.210 HD
ENDBRANCH  26  37
BRANCH  28  39
ATOM     39  O1' NON d   1      36.986  95.944   3.378  0.00  0.00    -0.369 OA
ATOM     40  H19 NON d   1      36.897  96.890   3.377  0.00  0.00     0.212 HD
ENDBRANCH  28  39
BRANCH  32  41
ATOM     41  C6' NON d   1      35.366  95.913  -0.641  0.00  0.00     0.043 C 
ATOM     42  H17 NON d   1      34.293  95.671  -0.616  0.00  0.00     0.078 H 
ATOM     43  H18 NON d   1      35.809  95.522  -1.569  0.00  0.00     0.078 H 
BRANCH  41  44
ATOM     44  O6' NON d   1      35.578  97.319  -0.524  0.00  0.00    -0.398 OA
ATOM     45  H22 NON d   1      35.201  97.628   0.291  0.00  0.00     0.209 HD
ENDBRANCH  41  44
ENDBRANCH  32  41
ENDBRANCH   1  24
TORSDOF 12
