REMARK  12 active torsions:
REMARK  status: ('A' for Active; 'I' for Inactive)
REMARK    1  A    between atoms: C2_3  and  C18_4 
REMARK    2  A    between atoms: C19_5  and  C20_6 
REMARK    3  A    between atoms: C20_6  and  O27_7 
REMARK    4  A    between atoms: C20_6  and  C23_8 
REMARK    5  A    between atoms: C23_8  and  N28_9 
REMARK    6  A    between atoms: C23_8  and  C24_10 
REMARK    7  A    between atoms: C24_10  and  O26_11 
REMARK    8  A    between atoms: C24_10  and  C25_12 
REMARK    9  A    between atoms: C7_20  and  C11_21 
REMARK   10  A    between atoms: C11_21  and  C12_22 
REMARK   11  A    between atoms: C13_23  and  O21_24 
REMARK   12  A    between atoms: O21_24  and  C22_25 
ROOT
ATOM      1  F17 FMD d   1      16.820  -6.294  12.779  0.00  0.00    -0.205 F 
ATOM      2  C1  FMD d   1      16.024  -7.208  13.363  0.00  0.00     0.136 A 
ATOM      3  C2  FMD d   1      14.877  -7.607  12.658  0.00  0.00     0.070 A 
ATOM      4  C3  FMD d   1      14.035  -8.616  13.321  0.00  0.00     0.028 A 
ATOM      5  C4  FMD d   1      14.416  -9.125  14.601  0.00  0.00     0.048 A 
ATOM      6  N9  FMD d   1      13.440 -10.033  14.962  0.00  0.00    -0.322 N 
ATOM      7  C8  FMD d   1      12.430 -10.203  13.999  0.00  0.00     0.257 A 
ATOM      8  O10 FMD d   1      11.492 -10.964  14.129  0.00  0.00    -0.267 OA
ATOM      9  C5  FMD d   1      15.558  -8.685  15.255  0.00  0.00    -0.053 A 
ATOM     10  C6  FMD d   1      16.366  -7.720  14.623  0.00  0.00    -0.042 A 
ATOM     11  C7  FMD d   1      12.887  -9.235  12.944  0.00  0.00     0.048 A 
ATOM     12  H12 FMD d   1      13.451 -10.526  15.832  0.00  0.00     0.169 HD
ATOM     13  H13 FMD d   1      15.822  -9.075  16.231  0.00  0.00     0.087 H 
ATOM     14  H14 FMD d   1      17.264  -7.368  15.117  0.00  0.00     0.088 H 
ENDROOT
BRANCH   3  15
ATOM     15  C18 FMD d   1      14.588  -7.039  11.402  0.00  0.00    -0.060 C 
ATOM     16  C19 FMD d   1      14.326  -6.571  10.333  0.00  0.00    -0.067 C 
BRANCH  16  17
ATOM     17  C20 FMD d   1      13.963  -6.027   9.086  0.00  0.00     0.123 C 
ATOM     18  H1  FMD d   1      12.880  -6.187   8.978  0.00  0.00     0.106 H 
BRANCH  17  19
ATOM     19  O27 FMD d   1      14.161  -4.611   9.140  0.00  0.00    -0.381 OA
ATOM     20  H2  FMD d   1      15.075  -4.427   9.323  0.00  0.00     0.211 HD
ENDBRANCH  17  19
BRANCH  17  21
ATOM     21  C23 FMD d   1      14.603  -6.731   7.862  0.00  0.00     0.158 C 
ATOM     22  H3  FMD d   1      15.486  -6.164   7.533  0.00  0.00     0.093 H 
BRANCH  21  23
ATOM     23  N28 FMD d   1      15.006  -8.116   8.140  0.00  0.00    -0.069 N 
ATOM     24  H4  FMD d   1      15.414  -8.520   7.311  0.00  0.00     0.275 HD
ATOM     25  H5  FMD d   1      14.198  -8.653   8.413  0.00  0.00     0.275 HD
ATOM     26  H6  FMD d   1      15.683  -8.126   8.886  0.00  0.00     0.275 HD
ENDBRANCH  21  23
BRANCH  21  27
ATOM     27  C24 FMD d   1      13.526  -6.726   6.761  0.00  0.00     0.062 C 
ATOM     28  H7  FMD d   1      12.936  -7.645   6.892  0.00  0.00     0.085 H 
BRANCH  27  29
ATOM     29  O26 FMD d   1      14.086  -6.757   5.441  0.00  0.00    -0.394 OA
ATOM     30  H8  FMD d   1      14.637  -5.994   5.314  0.00  0.00     0.210 HD
ENDBRANCH  27  29
BRANCH  27  31
ATOM     31  C25 FMD d   1      12.550  -5.532   6.867  0.00  0.00    -0.050 C 
ATOM     32  H9  FMD d   1      11.811  -5.590   6.055  0.00  0.00     0.030 H 
ATOM     33  H10 FMD d   1      13.112  -4.590   6.785  0.00  0.00     0.030 H 
ATOM     34  H11 FMD d   1      12.032  -5.566   7.837  0.00  0.00     0.030 H 
ENDBRANCH  27  31
ENDBRANCH  21  27
ENDBRANCH  17  21
ENDBRANCH  16  17
ENDBRANCH   3  15
BRANCH  11  35
ATOM     35  C11 FMD d   1      12.151  -9.008  11.689  0.00  0.00    -0.038 C 
ATOM     36  H15 FMD d   1      12.651  -8.312  11.017  0.00  0.00     0.088 H 
BRANCH  35  37
ATOM     37  C12 FMD d   1      10.890  -9.521  11.157  0.00  0.00     0.066 A 
ATOM     38  C13 FMD d   1      10.257  -9.222   9.966  0.00  0.00     0.096 A 
ATOM     39  C14 FMD d   1       9.036 -10.021   9.977  0.00  0.00    -0.034 A 
ATOM     40  C15 FMD d   1       9.023 -10.745  11.126  0.00  0.00    -0.020 A 
ATOM     41  H19 FMD d   1       8.271 -10.034   9.202  0.00  0.00     0.090 H 
ATOM     42  N16 FMD d   1      10.141 -10.458  11.840  0.00  0.00    -0.364 N 
ATOM     43  H20 FMD d   1       8.242 -11.443  11.426  0.00  0.00     0.111 H 
ATOM     44  H21 FMD d   1      10.391 -10.874  12.748  0.00  0.00     0.165 HD
BRANCH  38  45
ATOM     45  O21 FMD d   1      10.702  -8.329   9.010  0.00  0.00    -0.354 OA
BRANCH  45  46
ATOM     46  C22 FMD d   1      10.250  -8.469   7.653  0.00  0.00     0.010 C 
ATOM     47  H16 FMD d   1      10.700  -7.680   7.033  0.00  0.00     0.066 H 
ATOM     48  H17 FMD d   1       9.154  -8.380   7.620  0.00  0.00     0.066 H 
ATOM     49  H18 FMD d   1      10.550  -9.454   7.266  0.00  0.00     0.066 H 
ENDBRANCH  45  46
ENDBRANCH  38  45
ENDBRANCH  35  37
ENDBRANCH  11  35
TORSDOF 12
