REMARK  12 active torsions:
REMARK  status: ('A' for Active; 'I' for Inactive)
REMARK    1  A    between atoms: C1_1  and  C2_2 
REMARK    2  A    between atoms: C1_1  and  O1_7 
REMARK    3  A    between atoms: C2_2  and  C3_3 
REMARK    4  A    between atoms: C2_2  and  C_6 
REMARK    5  A    between atoms: C2_2  and  O2_8 
REMARK    6  A    between atoms: C3_3  and  C4_4 
REMARK    7  A    between atoms: C3_3  and  O3_9 
REMARK    8  A    between atoms: C4_4  and  C5_5 
REMARK    9  A    between atoms: C4_4  and  O4_10 
REMARK   10  A    between atoms: C5_5  and  O5_11 
REMARK   11  A    between atoms: O1_7  and  P1_14 
REMARK   12  A    between atoms: O5_11  and  P2_15 
ROOT
ATOM      1  C3  CAP d   1     -35.638  35.759  31.520  0.00  0.00     0.104 C 
ATOM      2  H3  CAP d   1     -35.116  35.364  32.404  0.00  0.00     0.092 H 
ENDROOT
BRANCH   1   3
ATOM      3  C2  CAP d   1     -35.961  34.528  30.517  0.00  0.00     0.196 C 
BRANCH   3   4
ATOM      4  C1  CAP d   1     -36.540  34.994  29.117  0.00  0.00     0.073 C 
ATOM      5  H1  CAP d   1     -35.859  35.744  28.688  0.00  0.00     0.081 H 
ATOM      6  H2  CAP d   1     -37.529  35.447  29.280  0.00  0.00     0.081 H 
BRANCH   4   7
ATOM      7  O1  CAP d   1     -36.681  33.904  28.173  0.00  0.00    -0.279 OA
BRANCH   7   8
ATOM      8  P1  CAP d   1     -37.411  33.973  26.772  0.00  0.00     0.422 P 
ATOM      9  O1P CAP d   1     -36.609  35.104  26.068  0.00  0.00    -0.617 OA
ATOM     10  O2P CAP d   1     -38.803  34.395  26.996  0.00  0.00    -0.617 OA
ATOM     11  O3P CAP d   1     -37.147  32.719  26.024  0.00  0.00    -0.617 OA
ENDBRANCH   7   8
ENDBRANCH   4   7
ENDBRANCH   3   4
BRANCH   3  12
ATOM     12  C   CAP d   1     -36.911  33.511  31.242  0.00  0.00     0.214 C 
ATOM     13  O6  CAP d   1     -36.350  32.607  31.917  0.00  0.00    -0.646 OA
ATOM     14  O7  CAP d   1     -38.163  33.615  31.166  0.00  0.00    -0.646 OA
ENDBRANCH   3  12
BRANCH   3  15
ATOM     15  O2  CAP d   1     -34.718  33.929  30.321  0.00  0.00    -0.375 OA
ATOM     16  H7  CAP d   1     -34.375  33.634  31.156  0.00  0.00     0.211 HD
ENDBRANCH   3  15
ENDBRANCH   1   3
BRANCH   1  17
ATOM     17  C4  CAP d   1     -36.944  36.512  31.978  0.00  0.00     0.085 C 
ATOM     18  H4  CAP d   1     -37.724  35.765  32.187  0.00  0.00     0.090 H 
BRANCH  17  19
ATOM     19  C5  CAP d   1     -36.758  37.365  33.229  0.00  0.00     0.059 C 
ATOM     20  H5  CAP d   1     -35.918  38.059  33.078  0.00  0.00     0.079 H 
ATOM     21  H6  CAP d   1     -36.545  36.713  34.089  0.00  0.00     0.079 H 
BRANCH  19  22
ATOM     22  O5  CAP d   1     -37.979  38.127  33.486  0.00  0.00    -0.280 OA
BRANCH  22  23
ATOM     23  P2  CAP d   1     -38.055  39.704  33.704  0.00  0.00     0.422 P 
ATOM     24  O4P CAP d   1     -37.331  40.236  32.450  0.00  0.00    -0.617 OA
ATOM     25  O5P CAP d   1     -39.489  40.126  33.696  0.00  0.00    -0.617 OA
ATOM     26  O6P CAP d   1     -37.248  40.002  34.924  0.00  0.00    -0.617 OA
ENDBRANCH  22  23
ENDBRANCH  19  22
ENDBRANCH  17  19
BRANCH  17  27
ATOM     27  O4  CAP d   1     -37.354  37.331  30.898  0.00  0.00    -0.391 OA
ATOM     28  H9  CAP d   1     -36.691  37.992  30.734  0.00  0.00     0.210 HD
ENDBRANCH  17  27
ENDBRANCH   1  17
BRANCH   1  29
ATOM     29  O3  CAP d   1     -34.825  36.716  30.874  0.00  0.00    -0.389 OA
ATOM     30  H8  CAP d   1     -35.291  37.072  30.127  0.00  0.00     0.210 HD
ENDBRANCH   1  29
TORSDOF 12
