REMARK  6 active torsions:
REMARK  status: ('A' for Active; 'I' for Inactive)
REMARK    1  A    between atoms: C1_1  and  O1_7 
REMARK    2  A    between atoms: C2_2  and  O2_8 
REMARK    3  A    between atoms: C3_3  and  O3_9 
REMARK    4  A    between atoms: C4_4  and  O4_10 
REMARK    5  A    between atoms: C5_5  and  C6_6 
REMARK    6  A    between atoms: O1_7  and  CM_12 
ROOT
ATOM      1  C1  MFU d   1       3.725  47.995   0.927  0.00  0.00     0.158 C 
ATOM      2  C2  MFU d   1       4.203  46.831   1.795  0.00  0.00     0.110 C 
ATOM      3  C3  MFU d   1       3.017  46.007   2.269  0.00  0.00     0.092 C 
ATOM      4  C4  MFU d   1       2.230  45.516   1.054  0.00  0.00     0.087 C 
ATOM      5  C5  MFU d   1       1.817  46.708   0.177  0.00  0.00     0.065 C 
ATOM      6  O5  MFU d   1       2.972  47.502  -0.185  0.00  0.00    -0.351 OA
ATOM      7  H1  MFU d   1       4.605  48.526   0.535  0.00  0.00     0.133 H 
ATOM      8  H2  MFU d   1       4.874  46.192   1.201  0.00  0.00     0.094 H 
ATOM      9  H3  MFU d   1       2.366  46.623   2.906  0.00  0.00     0.091 H 
ATOM     10  H4  MFU d   1       1.325  44.991   1.394  0.00  0.00     0.091 H 
ATOM     11  H5  MFU d   1       1.117  47.330   0.754  0.00  0.00     0.086 H 
ENDROOT
BRANCH   1  12
ATOM     12  O1  MFU d   1       2.989  48.890   1.713  0.00  0.00    -0.363 OA
BRANCH  12  13
ATOM     13  CM  MFU d   1       2.748  50.176   1.108  0.00  0.00     0.007 C 
ATOM     14  H12 MFU d   1       2.166  50.803   1.799  0.00  0.00     0.066 H 
ATOM     15  H13 MFU d   1       2.185  50.041   0.173  0.00  0.00     0.066 H 
ATOM     16  H14 MFU d   1       3.709  50.665   0.890  0.00  0.00     0.066 H 
ENDBRANCH  12  13
ENDBRANCH   1  12
BRANCH   2  17
ATOM     17  O2  MFU d   1       4.904  47.324   2.923  0.00  0.00    -0.388 OA
ATOM     18  H9  MFU d   1       5.655  47.827   2.632  0.00  0.00     0.210 HD
ENDBRANCH   2  17
BRANCH   5  19
ATOM     19  C6  MFU d   1       1.141  46.283  -1.118  0.00  0.00    -0.050 C 
ATOM     20  H6  MFU d   1       0.870  47.176  -1.700  0.00  0.00     0.031 H 
ATOM     21  H7  MFU d   1       0.233  45.707  -0.886  0.00  0.00     0.031 H 
ATOM     22  H8  MFU d   1       1.831  45.659  -1.704  0.00  0.00     0.031 H 
ENDBRANCH   5  19
BRANCH   3  23
ATOM     23  O3  MFU d   1       3.498  44.895   3.010  0.00  0.00    -0.390 OA
ATOM     24  H10 MFU d   1       2.763  44.374   3.310  0.00  0.00     0.210 HD
ENDBRANCH   3  23
BRANCH   4  25
ATOM     25  O4  MFU d   1       3.042  44.618   0.316  0.00  0.00    -0.390 OA
ATOM     26  H11 MFU d   1       3.829  45.066   0.030  0.00  0.00     0.210 HD
ENDBRANCH   4  25
TORSDOF 6
