REMARK  5 active torsions:
REMARK  status: ('A' for Active; 'I' for Inactive)
REMARK    1  A    between atoms: C1_1  and  O1_7 
REMARK    2  A    between atoms: C2_2  and  O2_8 
REMARK    3  A    between atoms: C3_3  and  O3_9 
REMARK    4  A    between atoms: C4_4  and  O4_10 
REMARK    5  A    between atoms: C5_5  and  C6_6 
ROOT
ATOM      1  C1  MFB d   1       3.887  47.767   0.698  0.00  0.00     0.156 C 
ATOM      2  C2  MFB d   1       4.308  46.683   1.684  0.00  0.00     0.110 C 
ATOM      3  C3  MFB d   1       3.083  45.935   2.183  0.00  0.00     0.092 C 
ATOM      4  C4  MFB d   1       2.319  45.352   0.993  0.00  0.00     0.087 C 
ATOM      5  C5  MFB d   1       1.971  46.480   0.014  0.00  0.00     0.065 C 
ATOM      6  O5  MFB d   1       3.175  47.176  -0.383  0.00  0.00    -0.351 OA
ATOM      7  H1  MFB d   1       3.214  48.470   1.211  0.00  0.00     0.133 H 
ATOM      8  H2  MFB d   1       4.985  45.978   1.179  0.00  0.00     0.094 H 
ATOM      9  H3  MFB d   1       2.429  46.629   2.731  0.00  0.00     0.091 H 
ATOM     10  H4  MFB d   1       1.393  44.877   1.348  0.00  0.00     0.091 H 
ATOM     11  H5  MFB d   1       1.296  47.182   0.525  0.00  0.00     0.086 H 
ENDROOT
BRANCH   5  12
ATOM     12  C6  MFB d   1       1.293  45.990  -1.252  0.00  0.00    -0.050 C 
ATOM     13  H6  MFB d   1       1.073  46.847  -1.905  0.00  0.00     0.031 H 
ATOM     14  H7  MFB d   1       0.355  45.478  -0.991  0.00  0.00     0.031 H 
ATOM     15  H8  MFB d   1       1.959  45.290  -1.777  0.00  0.00     0.031 H 
ENDBRANCH   5  12
BRANCH   4  16
ATOM     16  O4  MFB d   1       3.130  44.381   0.343  0.00  0.00    -0.390 OA
ATOM     17  H12 MFB d   1       3.930  44.792   0.037  0.00  0.00     0.210 HD
ENDBRANCH   4  16
BRANCH   3  18
ATOM     18  O3  MFB d   1       3.491  44.890   3.051  0.00  0.00    -0.390 OA
ATOM     19  H11 MFB d   1       2.725  44.422   3.363  0.00  0.00     0.210 HD
ENDBRANCH   3  18
BRANCH   1  20
ATOM     20  O1  MFB d   1       5.013  48.477   0.265  0.00  0.00    -0.369 OA
ATOM     21  H9  MFB d   1       5.457  48.853   1.016  0.00  0.00     0.212 HD
ENDBRANCH   1  20
BRANCH   2  22
ATOM     22  O2  MFB d   1       4.974  47.266   2.779  0.00  0.00    -0.388 OA
ATOM     23  H10 MFB d   1       5.745  47.727   2.470  0.00  0.00     0.210 HD
ENDBRANCH   2  22
TORSDOF 5
