REMARK  6 active torsions:
REMARK  status: ('A' for Active; 'I' for Inactive)
REMARK    1  A    between atoms: C1_1  and  O1_7 
REMARK    2  A    between atoms: C2_2  and  O2_8 
REMARK    3  A    between atoms: C3_3  and  O3_9 
REMARK    4  A    between atoms: C4_4  and  O4_10 
REMARK    5  A    between atoms: C5_5  and  C6_6 
REMARK    6  A    between atoms: C6_6  and  O6_12 
ROOT
ATOM      1  C1  MMA d   1       2.034  46.473   0.118  0.00  0.00     0.156 C 
ATOM      2  C2  MMA d   1       2.385  45.374   1.124  0.00  0.00     0.110 C 
ATOM      3  C3  MMA d   1       3.044  45.999   2.360  0.00  0.00     0.092 C 
ATOM      4  C4  MMA d   1       4.246  46.825   1.942  0.00  0.00     0.090 C 
ATOM      5  C5  MMA d   1       3.855  47.864   0.891  0.00  0.00     0.089 C 
ATOM      6  O5  MMA d   1       3.209  47.212  -0.231  0.00  0.00    -0.349 OA
ATOM      7  H1  MMA d   1       1.640  46.003  -0.795  0.00  0.00     0.133 H 
ATOM      8  H2  MMA d   1       1.468  44.846   1.425  0.00  0.00     0.094 H 
ATOM      9  H3  MMA d   1       2.315  46.643   2.873  0.00  0.00     0.091 H 
ATOM     10  H4  MMA d   1       5.004  46.155   1.510  0.00  0.00     0.091 H 
ATOM     11  H5  MMA d   1       3.166  48.591   1.345  0.00  0.00     0.090 H 
ENDROOT
BRANCH   5  12
ATOM     12  C6  MMA d   1       5.080  48.591   0.355  0.00  0.00     0.043 C 
ATOM     13  H6  MMA d   1       5.846  47.849   0.085  0.00  0.00     0.078 H 
ATOM     14  H7  MMA d   1       5.473  49.256   1.139  0.00  0.00     0.078 H 
BRANCH  12  15
ATOM     15  O6  MMA d   1       4.764  49.367  -0.793  0.00  0.00    -0.398 OA
ATOM     16  H12 MMA d   1       5.547  49.807  -1.102  0.00  0.00     0.209 HD
ENDBRANCH  12  15
ENDBRANCH   5  12
BRANCH   4  17
ATOM     17  O4  MMA d   1       4.792  47.464   3.081  0.00  0.00    -0.390 OA
ATOM     18  H11 MMA d   1       5.564  47.956   2.827  0.00  0.00     0.210 HD
ENDBRANCH   4  17
BRANCH   3  19
ATOM     19  O3  MMA d   1       3.485  44.981   3.246  0.00  0.00    -0.390 OA
ATOM     20  H10 MMA d   1       2.742  44.455   3.517  0.00  0.00     0.210 HD
ENDBRANCH   3  19
BRANCH   1  21
ATOM     21  O1  MMA d   1       1.035  47.297   0.656  0.00  0.00    -0.369 OA
ATOM     22  H8  MMA d   1       0.275  46.770   0.874  0.00  0.00     0.212 HD
ENDBRANCH   1  21
BRANCH   2  23
ATOM     23  O2  MMA d   1       3.281  44.459   0.523  0.00  0.00    -0.388 OA
ATOM     24  H9  MMA d   1       4.072  44.916   0.263  0.00  0.00     0.210 HD
ENDBRANCH   2  23
TORSDOF 6
