REMARK  7 active torsions:
REMARK  status: ('A' for Active; 'I' for Inactive)
REMARK    1  A    between atoms: C1_1  and  O1_10 
REMARK    2  A    between atoms: C2_2  and  N2_9 
REMARK    3  A    between atoms: C3_3  and  O3_11 
REMARK    4  A    between atoms: C4_4  and  O4_12 
REMARK    5  A    between atoms: C5_5  and  C6_6 
REMARK    6  A    between atoms: C6_6  and  O6_14 
REMARK       I    between atoms: N2_9  and  C7_7 
REMARK    7  A    between atoms: C7_7  and  C8_8 
ROOT
ATOM      1  C1  MAG d   1       2.356  46.676  -0.157  0.00  0.00     0.151 C 
ATOM      2  C2  MAG d   1       2.633  45.565   0.873  0.00  0.00     0.086 C 
ATOM      3  C3  MAG d   1       3.213  46.162   2.156  0.00  0.00     0.086 C 
ATOM      4  C4  MAG d   1       4.439  46.974   1.819  0.00  0.00     0.089 C 
ATOM      5  C5  MAG d   1       4.111  48.051   0.774  0.00  0.00     0.089 C 
ATOM      6  O5  MAG d   1       3.537  47.440  -0.403  0.00  0.00    -0.349 OA
ATOM      7  H1  MAG d   1       2.054  46.205  -1.104  0.00  0.00     0.132 H 
ATOM      8  H2  MAG d   1       3.356  44.854   0.446  0.00  0.00     0.084 H 
ATOM      9  H3  MAG d   1       2.461  46.811   2.628  0.00  0.00     0.090 H 
ATOM     10  H4  MAG d   1       5.208  46.304   1.407  0.00  0.00     0.091 H 
ATOM     11  H5  MAG d   1       3.396  48.765   1.208  0.00  0.00     0.090 H 
ENDROOT
BRANCH   2  12
ATOM     12  N2  MAG d   1       1.403  44.861   1.194  0.00  0.00    -0.349 N 
ATOM     13  C7  MAG d   1       1.254  43.557   1.017  0.00  0.00     0.214 C 
ATOM     14  O7  MAG d   1       2.139  42.850   0.536  0.00  0.00    -0.274 OA
ATOM     15  H11 MAG d   1       0.635  45.384   1.565  0.00  0.00     0.163 HD
BRANCH  13  16
ATOM     16  C8  MAG d   1      -0.110  43.015   1.425  0.00  0.00    -0.003 C 
ATOM     17  H8  MAG d   1      -0.143  41.931   1.244  0.00  0.00     0.040 H 
ATOM     18  H9  MAG d   1      -0.893  43.509   0.832  0.00  0.00     0.040 H 
ATOM     19  H10 MAG d   1      -0.279  43.214   2.494  0.00  0.00     0.040 H 
ENDBRANCH  13  16
ENDBRANCH   2  12
BRANCH   1  20
ATOM     20  O1  MAG d   1       1.297  47.478   0.289  0.00  0.00    -0.369 OA
ATOM     21  H12 MAG d   1       0.532  46.935   0.441  0.00  0.00     0.212 HD
ENDBRANCH   1  20
BRANCH   3  22
ATOM     22  O3  MAG d   1       3.573  45.124   3.058  0.00  0.00    -0.391 OA
ATOM     23  H13 MAG d   1       2.803  44.611   3.272  0.00  0.00     0.210 HD
ENDBRANCH   3  22
BRANCH   4  24
ATOM     24  O4  MAG d   1       4.936  47.578   2.998  0.00  0.00    -0.390 OA
ATOM     25  H14 MAG d   1       5.708  48.090   2.789  0.00  0.00     0.210 HD
ENDBRANCH   4  24
BRANCH   5  26
ATOM     26  C6  MAG d   1       5.369  48.794   0.336  0.00  0.00     0.043 C 
ATOM     27  H6  MAG d   1       6.121  48.060   0.011  0.00  0.00     0.078 H 
ATOM     28  H7  MAG d   1       5.760  49.365   1.191  0.00  0.00     0.078 H 
BRANCH  26  29
ATOM     29  O6  MAG d   1       5.110  49.689  -0.734  0.00  0.00    -0.398 OA
ATOM     30  H15 MAG d   1       5.915  50.131  -0.977  0.00  0.00     0.209 HD
ENDBRANCH  26  29
ENDBRANCH   5  26
TORSDOF 7
