REMARK  6 active torsions:
REMARK  status: ('A' for Active; 'I' for Inactive)
REMARK    1  A    between atoms: C6_6  and  C5_8 
REMARK       I    between atoms: C5_8  and  N1_10 
REMARK    2  A    between atoms: N1_10  and  C3_11 
REMARK    3  A    between atoms: C3_11  and  C2_12 
REMARK    4  A    between atoms: C3_11  and  C4_13 
REMARK    5  A    between atoms: C2_12  and  C1_15 
REMARK    6  A    between atoms: C4_13  and  O3_14 
ROOT
ATOM      1  C5  NA3 d   1      37.278  92.669  19.435  0.00  0.00     0.253 C 
ATOM      2  O4  NA3 d   1      36.769  91.597  19.759  0.00  0.00    -0.268 OA
ATOM      3  N1  NA3 d   1      36.900  93.340  18.347  0.00  0.00    -0.350 N 
ATOM      4  H4  NA3 d   1      37.417  94.156  18.087  0.00  0.00     0.163 HD
ENDROOT
BRANCH   3   5
ATOM      5  C3  NA3 d   1      35.755  92.937  17.507  0.00  0.00     0.042 C 
ATOM      6  H5  NA3 d   1      35.075  92.415  18.196  0.00  0.00     0.076 H 
BRANCH   5   7
ATOM      7  C2  NA3 d   1      34.956  94.161  17.012  0.00  0.00     0.036 C 
ATOM      8  H6  NA3 d   1      34.137  93.814  16.364  0.00  0.00     0.052 H 
ATOM      9  H7  NA3 d   1      35.627  94.815  16.436  0.00  0.00     0.052 H 
BRANCH   7  10
ATOM     10  C1  NA3 d   1      34.370  94.951  18.160  0.00  0.00     0.174 C 
ATOM     11  O2  NA3 d   1      33.947  96.117  17.990  0.00  0.00    -0.648 OA
ATOM     12  O1  NA3 d   1      34.288  94.402  19.277  0.00  0.00    -0.648 OA
ENDBRANCH   7  10
ENDBRANCH   5   7
BRANCH   5  13
ATOM     13  C4  NA3 d   1      36.062  91.880  16.406  0.00  0.00     0.036 C 
ATOM     14  H8  NA3 d   1      36.484  90.979  16.876  0.00  0.00     0.077 H 
ATOM     15  H9  NA3 d   1      36.790  92.298  15.695  0.00  0.00     0.077 H 
BRANCH  13  16
ATOM     16  O3  NA3 d   1      34.867  91.530  15.705  0.00  0.00    -0.399 OA
ATOM     17  H10 NA3 d   1      35.070  90.885  15.037  0.00  0.00     0.209 HD
ENDBRANCH  13  16
ENDBRANCH   5  13
ENDBRANCH   3   5
BRANCH   1  18
ATOM     18  C6  NA3 d   1      38.426  93.337  20.187  0.00  0.00     0.050 A 
ATOM     19  C7  NA3 d   1      39.126  92.695  21.194  0.00  0.00    -0.048 A 
ATOM     20  C8  NA3 d   1      40.071  93.410  21.902  0.00  0.00     0.029 A 
ATOM     21  H1  NA3 d   1      38.936  91.652  21.422  0.00  0.00     0.087 H 
ATOM     22  C9  NA3 d   1      40.311  94.746  21.621  0.00  0.00     0.019 A 
ATOM     23 BR1  NA3 d   1      41.022  92.501  23.243  0.00  0.00    -0.050 Br
ATOM     24  N2  NA3 d   1      39.665  95.388  20.669  0.00  0.00    -0.271 NA
ATOM     25  H2  NA3 d   1      41.054  95.279  22.203  0.00  0.00     0.116 H 
ATOM     26  C10 NA3 d   1      38.739  94.686  19.969  0.00  0.00     0.017 A 
ATOM     27  H3  NA3 d   1      38.202  95.206  19.184  0.00  0.00     0.116 H 
ENDBRANCH   1  18
TORSDOF 6
