REMARK  9 active torsions:
REMARK  status: ('A' for Active; 'I' for Inactive)
REMARK    1  A    between atoms: O1_1  and  C1_2 
REMARK    2  A    between atoms: C4_5  and  C7_8 
REMARK       I    between atoms: C7_8  and  N8_10 
REMARK    3  A    between atoms: N8_10  and  C8_11 
REMARK    4  A    between atoms: C9_12  and  O9_18 
REMARK    5  A    between atoms: O9_18  and  C15_19 
REMARK    6  A    between atoms: C15_19  and  C16_21 
REMARK    7  A    between atoms: C19_24  and  C22_27 
REMARK    8  A    between atoms: C22_27  and  C23_29 
REMARK    9  A    between atoms: C28_34  and  O28_35 
ROOT
ATOM      1  C8  BD2 d   1       9.681  39.258  19.215  0.00  0.00     0.061 C 
ATOM      2  C9  BD2 d   1       8.606  39.597  18.176  0.00  0.00     0.069 C 
ATOM      3  C10 BD2 d   1       7.380  38.705  18.043  0.00  0.00    -0.037 C 
ATOM      4  C11 BD2 d   1       6.374  39.036  19.141  0.00  0.00    -0.040 C 
ATOM      5  C12 BD2 d   1       6.910  38.603  20.500  0.00  0.00     0.082 C 
ATOM      6  N13 BD2 d   1       7.967  39.504  20.941  0.00  0.00    -0.073 N 
ATOM      7  C14 BD2 d   1       9.274  38.943  20.646  0.00  0.00     0.102 C 
ATOM      8  H7  BD2 d   1       9.773  40.323  19.472  0.00  0.00     0.079 H 
ATOM      9  H8  BD2 d   1       9.134  39.004  17.415  0.00  0.00     0.087 H 
ATOM     10  H9  BD2 d   1       7.684  37.652  18.133  0.00  0.00     0.036 H 
ATOM     11  H10 BD2 d   1       6.914  38.870  17.060  0.00  0.00     0.036 H 
ATOM     12  H11 BD2 d   1       5.430  38.509  18.939  0.00  0.00     0.035 H 
ATOM     13  H12 BD2 d   1       6.193  40.121  19.152  0.00  0.00     0.035 H 
ATOM     14  H13 BD2 d   1       7.313  37.583  20.422  0.00  0.00     0.075 H 
ATOM     15  H14 BD2 d   1       6.091  38.619  21.234  0.00  0.00     0.075 H 
ATOM     16  H15 BD2 d   1       7.886  39.649  21.935  0.00  0.00     0.277 HD
ATOM     17  H16 BD2 d   1       7.870  40.387  20.464  0.00  0.00     0.277 HD
ATOM     18  H17 BD2 d   1      10.016  39.372  21.336  0.00  0.00     0.079 H 
ATOM     19  H18 BD2 d   1       9.238  37.852  20.780  0.00  0.00     0.079 H 
ENDROOT
BRANCH   2  20
ATOM     20  O9  BD2 d   1       8.743  40.776  17.373  0.00  0.00    -0.310 OA
BRANCH  20  21
ATOM     21  C15 BD2 d   1       8.287  40.583  16.036  0.00  0.00     0.293 C 
ATOM     22  O15 BD2 d   1       8.555  39.523  15.427  0.00  0.00    -0.259 OA
BRANCH  21  23
ATOM     23  C16 BD2 d   1       7.556  41.582  15.402  0.00  0.00     0.039 A 
ATOM     24  C17 BD2 d   1       7.590  41.693  14.005  0.00  0.00    -0.066 A 
ATOM     25  C18 BD2 d   1       6.854  42.690  13.367  0.00  0.00    -0.068 A 
ATOM     26  H19 BD2 d   1       8.189  41.004  13.421  0.00  0.00     0.085 H 
ATOM     27  C19 BD2 d   1       6.085  43.600  14.106  0.00  0.00     0.015 A 
ATOM     28  H20 BD2 d   1       6.877  42.763  12.286  0.00  0.00     0.085 H 
ATOM     29  C20 BD2 d   1       6.059  43.499  15.504  0.00  0.00    -0.068 A 
ATOM     30  C21 BD2 d   1       6.791  42.486  16.149  0.00  0.00    -0.066 A 
ATOM     31  H21 BD2 d   1       5.475  44.201  16.088  0.00  0.00     0.085 H 
ATOM     32  H22 BD2 d   1       6.763  42.405  17.230  0.00  0.00     0.085 H 
BRANCH  27  33
ATOM     33  C22 BD2 d   1       5.362  44.586  13.436  0.00  0.00     0.195 C 
ATOM     34  O22 BD2 d   1       4.990  44.365  12.271  0.00  0.00    -0.287 OA
BRANCH  33  35
ATOM     35  C23 BD2 d   1       5.026  45.813  14.018  0.00  0.00     0.048 A 
ATOM     36  C24 BD2 d   1       3.674  46.144  14.167  0.00  0.00    -0.066 A 
ATOM     37  C25 BD2 d   1       3.304  47.372  14.739  0.00  0.00    -0.082 A 
ATOM     38  H23 BD2 d   1       2.909  45.449  13.839  0.00  0.00     0.085 H 
ATOM     39  C26 BD2 d   1       4.290  48.259  15.165  0.00  0.00    -0.080 A 
ATOM     40  H24 BD2 d   1       2.256  47.628  14.848  0.00  0.00     0.083 H 
ATOM     41  C27 BD2 d   1       5.640  47.937  15.023  0.00  0.00    -0.050 A 
ATOM     42  H25 BD2 d   1       4.006  49.206  15.610  0.00  0.00     0.083 H 
ATOM     43  C28 BD2 d   1       6.017  46.720  14.448  0.00  0.00     0.079 A 
ATOM     44  H26 BD2 d   1       6.399  48.633  15.360  0.00  0.00     0.087 H 
BRANCH  43  45
ATOM     45  O28 BD2 d   1       7.315  46.420  14.326  0.00  0.00    -0.360 OA
ATOM     46  H27 BD2 d   1       7.718  46.407  15.186  0.00  0.00     0.217 HD
ENDBRANCH  43  45
ENDBRANCH  33  35
ENDBRANCH  27  33
ENDBRANCH  21  23
ENDBRANCH  20  21
ENDBRANCH   2  20
BRANCH   1  47
ATOM     47  N8  BD2 d   1      11.086  39.227  18.829  0.00  0.00    -0.348 N 
ATOM     48  C7  BD2 d   1      11.930  40.190  19.232  0.00  0.00     0.252 C 
ATOM     49  O7  BD2 d   1      11.514  41.351  19.406  0.00  0.00    -0.268 OA
ATOM     50  H6  BD2 d   1      11.425  38.480  18.257  0.00  0.00     0.163 HD
BRANCH  48  51
ATOM     51  C4  BD2 d   1      13.267  39.898  19.462  0.00  0.00     0.032 A 
ATOM     52  C3  BD2 d   1      14.220  40.931  19.505  0.00  0.00    -0.065 A 
ATOM     53  C2  BD2 d   1      15.560  40.634  19.731  0.00  0.00    -0.050 A 
ATOM     54  H3  BD2 d   1      13.910  41.960  19.362  0.00  0.00     0.085 H 
ATOM     55  C1  BD2 d   1      15.962  39.305  19.919  0.00  0.00     0.065 A 
ATOM     56  H2  BD2 d   1      16.294  41.431  19.762  0.00  0.00     0.087 H 
ATOM     57  C6  BD2 d   1      15.022  38.277  19.869  0.00  0.00    -0.050 A 
ATOM     58  C5  BD2 d   1      13.673  38.573  19.640  0.00  0.00    -0.065 A 
ATOM     59  H5  BD2 d   1      15.335  37.249  20.007  0.00  0.00     0.087 H 
ATOM     60  H4  BD2 d   1      12.942  37.773  19.601  0.00  0.00     0.085 H 
BRANCH  55  61
ATOM     61  O1  BD2 d   1      17.250  39.019  20.138  0.00  0.00    -0.361 OA
ATOM     62  H1  BD2 d   1      17.769  39.313  19.399  0.00  0.00     0.217 HD
ENDBRANCH  55  61
ENDBRANCH  48  51
ENDBRANCH   1  47
TORSDOF 9
