REMARK  7 active torsions:
REMARK  status: ('A' for Active; 'I' for Inactive)
REMARK    1  A    between atoms: O1_1  and  C1_2 
REMARK    2  A    between atoms: C4_5  and  C7_8 
REMARK       I    between atoms: C7_8  and  N8_10 
REMARK    3  A    between atoms: N8_10  and  C8_11 
REMARK    4  A    between atoms: C9_12  and  O9_18 
REMARK    5  A    between atoms: O9_18  and  C15_19 
REMARK    6  A    between atoms: C15_19  and  C16_21 
REMARK    7  A    between atoms: C19_24  and  O19_27 
ROOT
ATOM      1  C8  B1L d   1       9.274  39.971  18.752  0.00  0.00     0.061 C 
ATOM      2  C9  B1L d   1       8.470  39.666  17.479  0.00  0.00     0.069 C 
ATOM      3  C10 B1L d   1       6.956  39.662  17.735  0.00  0.00    -0.037 C 
ATOM      4  C11 B1L d   1       6.541  38.471  18.584  0.00  0.00    -0.040 C 
ATOM      5  C12 B1L d   1       6.387  38.924  20.026  0.00  0.00     0.082 C 
ATOM      6  N13 B1L d   1       7.501  39.775  20.413  0.00  0.00    -0.073 N 
ATOM      7  C14 B1L d   1       8.757  39.201  19.962  0.00  0.00     0.102 C 
ATOM      8  H7  B1L d   1       9.195  41.048  18.963  0.00  0.00     0.079 H 
ATOM      9  H8  B1L d   1       8.772  38.683  17.088  0.00  0.00     0.087 H 
ATOM     10  H9  B1L d   1       6.430  39.615  16.770  0.00  0.00     0.036 H 
ATOM     11  H10 B1L d   1       6.679  40.589  18.259  0.00  0.00     0.036 H 
ATOM     12  H11 B1L d   1       7.311  37.688  18.523  0.00  0.00     0.035 H 
ATOM     13  H12 B1L d   1       5.583  38.072  18.218  0.00  0.00     0.035 H 
ATOM     14  H13 B1L d   1       6.361  38.041  20.682  0.00  0.00     0.075 H 
ATOM     15  H14 B1L d   1       5.448  39.487  20.131  0.00  0.00     0.075 H 
ATOM     16  H15 B1L d   1       7.518  39.864  21.417  0.00  0.00     0.277 HD
ATOM     17  H16 B1L d   1       7.384  40.686  19.997  0.00  0.00     0.277 HD
ATOM     18  H17 B1L d   1       9.497  39.258  20.774  0.00  0.00     0.079 H 
ATOM     19  H18 B1L d   1       8.598  38.149  19.684  0.00  0.00     0.079 H 
ENDROOT
BRANCH   1  20
ATOM     20  N8  B1L d   1      10.671  39.630  18.535  0.00  0.00    -0.348 N 
ATOM     21  C7  B1L d   1      11.633  40.575  18.606  0.00  0.00     0.252 C 
ATOM     22  O7  B1L d   1      11.322  41.780  18.486  0.00  0.00    -0.268 OA
ATOM     23  H6  B1L d   1      10.922  38.684  18.331  0.00  0.00     0.163 HD
BRANCH  21  24
ATOM     24  C4  B1L d   1      12.959  40.212  18.810  0.00  0.00     0.032 A 
ATOM     25  C3  B1L d   1      13.947  41.198  18.891  0.00  0.00    -0.065 A 
ATOM     26  C2  B1L d   1      15.280  40.830  19.095  0.00  0.00    -0.050 A 
ATOM     27  H3  B1L d   1      13.680  42.244  18.796  0.00  0.00     0.085 H 
ATOM     28  C1  B1L d   1      15.626  39.482  19.221  0.00  0.00     0.065 A 
ATOM     29  H2  B1L d   1      16.048  41.593  19.156  0.00  0.00     0.087 H 
ATOM     30  C6  B1L d   1      14.634  38.500  19.143  0.00  0.00    -0.050 A 
ATOM     31  C5  B1L d   1      13.301  38.864  18.931  0.00  0.00    -0.065 A 
ATOM     32  H5  B1L d   1      14.899  37.454  19.247  0.00  0.00     0.087 H 
ATOM     33  H4  B1L d   1      12.534  38.101  18.861  0.00  0.00     0.085 H 
BRANCH  28  34
ATOM     34  O1  B1L d   1      16.902  39.129  19.421  0.00  0.00    -0.361 OA
ATOM     35  H1  B1L d   1      17.431  39.433  18.693  0.00  0.00     0.217 HD
ENDBRANCH  28  34
ENDBRANCH  21  24
ENDBRANCH   1  20
BRANCH   2  36
ATOM     36  O9  B1L d   1       8.760  40.680  16.523  0.00  0.00    -0.310 OA
BRANCH  36  37
ATOM     37  C15 B1L d   1       8.177  40.393  15.266  0.00  0.00     0.293 C 
ATOM     38  O15 B1L d   1       8.317  39.267  14.770  0.00  0.00    -0.259 OA
BRANCH  37  39
ATOM     39  C16 B1L d   1       7.470  41.377  14.589  0.00  0.00     0.039 A 
ATOM     40  C17 B1L d   1       6.643  42.262  15.296  0.00  0.00    -0.065 A 
ATOM     41  C18 B1L d   1       5.929  43.254  14.604  0.00  0.00    -0.050 A 
ATOM     42  H19 B1L d   1       6.555  42.181  16.373  0.00  0.00     0.085 H 
ATOM     43  C19 B1L d   1       6.059  43.376  13.219  0.00  0.00     0.065 A 
ATOM     44  H20 B1L d   1       5.275  43.927  15.147  0.00  0.00     0.087 H 
ATOM     45  C20 B1L d   1       6.888  42.492  12.516  0.00  0.00    -0.050 A 
ATOM     46  C21 B1L d   1       7.601  41.504  13.206  0.00  0.00    -0.065 A 
ATOM     47  H21 B1L d   1       6.977  42.573  11.439  0.00  0.00     0.087 H 
ATOM     48  H22 B1L d   1       8.258  40.834  12.663  0.00  0.00     0.085 H 
BRANCH  43  49
ATOM     49  O19 B1L d   1       5.382  44.322  12.550  0.00  0.00    -0.361 OA
ATOM     50  H23 B1L d   1       4.870  44.836  13.163  0.00  0.00     0.217 HD
ENDBRANCH  43  49
ENDBRANCH  37  39
ENDBRANCH  36  37
ENDBRANCH   2  36
TORSDOF 7
