REMARK  15 active torsions:
REMARK  status: ('A' for Active; 'I' for Inactive)
REMARK    1  A    between atoms: O1_1  and  C1_2 
REMARK    2  A    between atoms: C4_5  and  C7_8 
REMARK    3  A    between atoms: C6_7  and  C66_37 
REMARK       I    between atoms: C7_8  and  N8_10 
REMARK    4  A    between atoms: N8_10  and  C8_11 
REMARK    5  A    between atoms: C9_12  and  O9_17 
REMARK    6  A    between atoms: O9_17  and  C15_19 
REMARK    7  A    between atoms: C15_19  and  C16_21 
REMARK    8  A    between atoms: C19_24  and  C22_27 
REMARK    9  A    between atoms: C22_27  and  C23_29 
REMARK   10  A    between atoms: C26_31  and  O26_32 
REMARK   11  A    between atoms: O26_32  and  C30_41 
REMARK   12  A    between atoms: C29_35  and  O29_36 
REMARK   13  A    between atoms: C66_37  and  C71_38 
REMARK   14  A    between atoms: C66_37  and  C72_39 
REMARK   15  A    between atoms: C71_38  and  C81_40 
ROOT
ATOM      1  C8  B8L d   1       9.734  39.438  19.282  0.00  0.00     0.061 C 
ATOM      2  C9  B8L d   1       8.954  39.142  17.968  0.00  0.00     0.069 C 
ATOM      3  C10 B8L d   1       7.532  38.556  18.087  0.00  0.00    -0.037 C 
ATOM      4  C11 B8L d   1       6.660  39.315  19.075  0.00  0.00    -0.040 C 
ATOM      5  C12 B8L d   1       6.809  38.752  20.487  0.00  0.00     0.082 C 
ATOM      6  N13 B8L d   1       8.122  39.027  21.062  0.00  0.00    -0.073 N 
ATOM      7  C14 B8L d   1       9.387  38.583  20.496  0.00  0.00     0.102 C 
ATOM      8  H6  B8L d   1       9.507  40.482  19.542  0.00  0.00     0.079 H 
ATOM      9  H7  B8L d   1       9.543  38.422  17.380  0.00  0.00     0.087 H 
ATOM     10  H8  B8L d   1       7.610  37.510  18.419  0.00  0.00     0.036 H 
ATOM     11  H9  B8L d   1       7.054  38.592  17.097  0.00  0.00     0.036 H 
ATOM     12  H10 B8L d   1       5.608  39.231  18.764  0.00  0.00     0.035 H 
ATOM     13  H11 B8L d   1       6.958  40.374  19.077  0.00  0.00     0.035 H 
ATOM     14  H12 B8L d   1       6.661  37.663  20.450  0.00  0.00     0.075 H 
ATOM     15  H13 B8L d   1       6.040  39.205  21.130  0.00  0.00     0.075 H 
ATOM     16  H14 B8L d   1       8.094  38.643  21.994  0.00  0.00     0.277 HD
ATOM     17  H15 B8L d   1       8.188  40.031  21.115  0.00  0.00     0.277 HD
ATOM     18  H16 B8L d   1      10.180  38.681  21.252  0.00  0.00     0.079 H 
ATOM     19  H17 B8L d   1       9.301  37.530  20.189  0.00  0.00     0.079 H 
ENDROOT
BRANCH   2  20
ATOM     20  O9  B8L d   1       8.929  40.405  17.287  0.00  0.00    -0.310 OA
BRANCH  20  21
ATOM     21  C15 B8L d   1       8.522  40.335  15.886  0.00  0.00     0.293 C 
ATOM     22  O15 B8L d   1       8.623  39.281  15.261  0.00  0.00    -0.259 OA
BRANCH  21  23
ATOM     23  C16 B8L d   1       7.783  41.368  15.310  0.00  0.00     0.039 A 
ATOM     24  C17 B8L d   1       7.852  41.635  13.932  0.00  0.00    -0.066 A 
ATOM     25  C18 B8L d   1       7.114  42.680  13.362  0.00  0.00    -0.068 A 
ATOM     26  H18 B8L d   1       8.486  41.023  13.301  0.00  0.00     0.085 H 
ATOM     27  C19 B8L d   1       6.303  43.492  14.158  0.00  0.00     0.015 A 
ATOM     28  H19 B8L d   1       7.173  42.860  12.295  0.00  0.00     0.085 H 
ATOM     29  C20 B8L d   1       6.237  43.230  15.529  0.00  0.00    -0.068 A 
ATOM     30  C21 B8L d   1       6.976  42.186  16.099  0.00  0.00    -0.066 A 
ATOM     31  H20 B8L d   1       5.605  43.844  16.160  0.00  0.00     0.085 H 
ATOM     32  H21 B8L d   1       6.920  42.012  17.167  0.00  0.00     0.085 H 
BRANCH  27  33
ATOM     33  C22 B8L d   1       5.526  44.508  13.576  0.00  0.00     0.195 C 
ATOM     34  O22 B8L d   1       4.923  44.253  12.526  0.00  0.00    -0.287 OA
BRANCH  33  35
ATOM     35  C23 B8L d   1       5.357  45.772  14.156  0.00  0.00     0.051 A 
ATOM     36  C24 B8L d   1       4.042  46.214  14.296  0.00  0.00    -0.034 A 
ATOM     37  C26 B8L d   1       3.741  47.519  14.716  0.00  0.00     0.069 A 
ATOM     38  H22 B8L d   1       3.230  45.531  14.074  0.00  0.00     0.089 H 
ATOM     39  C27 B8L d   1       4.760  48.425  14.987  0.00  0.00    -0.048 A 
ATOM     40  C28 B8L d   1       6.079  48.009  14.858  0.00  0.00    -0.047 A 
ATOM     41  H23 B8L d   1       4.529  49.439  15.294  0.00  0.00     0.087 H 
ATOM     42  C29 B8L d   1       6.372  46.709  14.422  0.00  0.00     0.080 A 
ATOM     43  H24 B8L d   1       6.886  48.693  15.096  0.00  0.00     0.087 H 
BRANCH  37  44
ATOM     44  O26 B8L d   1       2.356  47.951  14.837  0.00  0.00    -0.356 OA
BRANCH  44  45
ATOM     45  C30 B8L d   1       1.289  47.060  15.044  0.00  0.00     0.010 C 
ATOM     46  H35 B8L d   1       0.346  47.624  15.101  0.00  0.00     0.066 H 
ATOM     47  H36 B8L d   1       1.446  46.512  15.985  0.00  0.00     0.066 H 
ATOM     48  H37 B8L d   1       1.239  46.347  14.208  0.00  0.00     0.066 H 
ENDBRANCH  44  45
ENDBRANCH  37  44
BRANCH  42  49
ATOM     49  O29 B8L d   1       7.750  46.322  14.231  0.00  0.00    -0.360 OA
ATOM     50  H25 B8L d   1       8.219  46.407  15.053  0.00  0.00     0.217 HD
ENDBRANCH  42  49
ENDBRANCH  33  35
ENDBRANCH  27  33
ENDBRANCH  21  23
ENDBRANCH  20  21
ENDBRANCH   2  20
BRANCH   1  51
ATOM     51  N8  B8L d   1      11.177  39.314  19.106  0.00  0.00    -0.348 N 
ATOM     52  C7  B8L d   1      12.038  40.323  19.311  0.00  0.00     0.252 C 
ATOM     53  O7  B8L d   1      11.668  41.502  19.366  0.00  0.00    -0.268 OA
ATOM     54  H5  B8L d   1      11.544  38.430  18.817  0.00  0.00     0.163 HD
BRANCH  52  55
ATOM     55  C4  B8L d   1      13.393  39.938  19.346  0.00  0.00     0.032 A 
ATOM     56  C3  B8L d   1      14.396  40.900  19.569  0.00  0.00    -0.065 A 
ATOM     57  C2  B8L d   1      15.723  40.532  19.819  0.00  0.00    -0.050 A 
ATOM     58  H3  B8L d   1      14.134  41.952  19.547  0.00  0.00     0.085 H 
ATOM     59  C1  B8L d   1      16.077  39.182  19.831  0.00  0.00     0.072 A 
ATOM     60  H2  B8L d   1      16.473  41.293  20.003  0.00  0.00     0.087 H 
ATOM     61  C6  B8L d   1      15.113  38.193  19.617  0.00  0.00    -0.020 A 
ATOM     62  C5  B8L d   1      13.782  38.580  19.375  0.00  0.00    -0.059 A 
ATOM     63  H4  B8L d   1      13.034  37.814  19.206  0.00  0.00     0.086 H 
BRANCH  59  64
ATOM     64  O1  B8L d   1      17.455  38.803  20.047  0.00  0.00    -0.360 OA
ATOM     65  H1  B8L d   1      17.997  39.179  19.363  0.00  0.00     0.217 HD
ENDBRANCH  59  64
BRANCH  61  66
ATOM     66  C66 B8L d   1      15.512  36.754  19.651  0.00  0.00    -0.030 C 
ATOM     67  H26 B8L d   1      16.605  36.720  19.770  0.00  0.00     0.046 H 
BRANCH  66  68
ATOM     68  C71 B8L d   1      15.179  36.026  18.334  0.00  0.00    -0.061 C 
ATOM     69  H27 B8L d   1      14.169  36.319  18.011  0.00  0.00     0.033 H 
ATOM     70  H28 B8L d   1      15.208  34.941  18.510  0.00  0.00     0.033 H 
BRANCH  68  71
ATOM     71  C81 B8L d   1      16.188  36.380  17.212  0.00  0.00    -0.076 C 
ATOM     72  H32 B8L d   1      15.916  35.842  16.292  0.00  0.00     0.027 H 
ATOM     73  H33 B8L d   1      17.201  36.086  17.523  0.00  0.00     0.027 H 
ATOM     74  H34 B8L d   1      16.163  37.464  17.024  0.00  0.00     0.027 H 
ENDBRANCH  68  71
ENDBRANCH  66  68
BRANCH  66  75
ATOM     75  C72 B8L d   1      14.901  36.055  20.860  0.00  0.00    -0.069 C 
ATOM     76  H29 B8L d   1      15.164  36.607  21.774  0.00  0.00     0.028 H 
ATOM     77  H30 B8L d   1      15.292  35.029  20.927  0.00  0.00     0.028 H 
ATOM     78  H31 B8L d   1      13.807  36.024  20.752  0.00  0.00     0.028 H 
ENDBRANCH  66  75
ENDBRANCH  61  66
ENDBRANCH  52  55
ENDBRANCH   1  51
TORSDOF 15
