REMARK  5 active torsions:
REMARK  status: ('A' for Active; 'I' for Inactive)
REMARK    1  A    between atoms: C5_8  and  C11_16 
REMARK    2  A    between atoms: N6_9  and  C12_17 
REMARK    3  A    between atoms: C12_17  and  C13_18 
REMARK    4  A    between atoms: C14_19  and  C15_20 
REMARK    5  A    between atoms: C14_19  and  C16_21 
ROOT
ATOM      1  N1  TB9 d   1       0.898 -37.311  18.514  0.00  0.00    -0.331 N 
ATOM      2  C1A TB9 d   1       0.284 -37.130  19.703  0.00  0.00     0.063 A 
ATOM      3  C2  TB9 d   1       2.142 -37.757  18.770  0.00  0.00     0.179 A 
ATOM      4  S2  TB9 d   1       3.302 -38.059  17.578  0.00  0.00    -0.040 SA
ATOM      5  N3  TB9 d   1       2.350 -37.879  20.114  0.00  0.00    -0.319 N 
ATOM      6  C3A TB9 d   1       1.211 -37.493  20.725  0.00  0.00     0.071 A 
ATOM      7  C4  TB9 d   1       3.622 -38.384  20.632  0.00  0.00     0.029 C 
ATOM      8  C5  TB9 d   1       3.536 -38.992  22.039  0.00  0.00     0.117 C 
ATOM      9  N6  TB9 d   1       3.019 -38.021  23.005  0.00  0.00    -0.059 N 
ATOM     10  C7  TB9 d   1       1.567 -38.160  23.125  0.00  0.00     0.110 C 
ATOM     11  C7A TB9 d   1       0.823 -37.372  22.074  0.00  0.00    -0.002 A 
ATOM     12  C8  TB9 d   1      -0.432 -36.899  22.389  0.00  0.00    -0.052 A 
ATOM     13  C9  TB9 d   1      -1.325 -36.553  21.397  0.00  0.00     0.036 A 
ATOM     14 CL9  TB9 d   1      -2.861 -36.001  21.838  0.00  0.00    -0.084 Cl
ATOM     15  C10 TB9 d   1      -0.980 -36.661  20.066  0.00  0.00    -0.034 A 
ATOM     16  H1  TB9 d   1       0.502 -37.145  17.611  0.00  0.00     0.168 HD
ATOM     17  H2  TB9 d   1       4.338 -37.549  20.661  0.00  0.00     0.068 H 
ATOM     18  H3  TB9 d   1       3.990 -39.159  19.944  0.00  0.00     0.068 H 
ATOM     19  H4  TB9 d   1       4.558 -39.250  22.354  0.00  0.00     0.086 H 
ATOM     20  H5  TB9 d   1       3.229 -38.585  23.813  0.00  0.00     0.281 HD
ATOM     21  H6  TB9 d   1       1.259 -37.802  24.118  0.00  0.00     0.083 H 
ATOM     22  H7  TB9 d   1       1.304 -39.223  23.021  0.00  0.00     0.083 H 
ATOM     23  H8  TB9 d   1      -0.721 -36.798  23.429  0.00  0.00     0.087 H 
ATOM     24  H9  TB9 d   1      -1.693 -36.381  19.299  0.00  0.00     0.089 H 
ENDROOT
BRANCH   9  25
ATOM     25  C12 TB9 d   1       3.777 -36.876  23.537  0.00  0.00     0.100 C 
ATOM     26  H13 TB9 d   1       3.990 -36.176  22.716  0.00  0.00     0.082 H 
ATOM     27  H14 TB9 d   1       4.723 -37.240  23.963  0.00  0.00     0.082 H 
BRANCH  25  28
ATOM     28  C13 TB9 d   1       3.008 -36.158  24.602  0.00  0.00    -0.077 C 
ATOM     29  C14 TB9 d   1       3.491 -35.202  25.375  0.00  0.00    -0.090 C 
ATOM     30  H15 TB9 d   1       1.969 -36.447  24.751  0.00  0.00     0.079 H 
BRANCH  29  31
ATOM     31  C15 TB9 d   1       2.642 -34.548  26.423  0.00  0.00    -0.055 C 
ATOM     32  H16 TB9 d   1       3.233 -33.785  26.950  0.00  0.00     0.033 H 
ATOM     33  H17 TB9 d   1       2.298 -35.306  27.142  0.00  0.00     0.033 H 
ATOM     34  H18 TB9 d   1       1.772 -34.073  25.946  0.00  0.00     0.033 H 
ENDBRANCH  29  31
BRANCH  29  35
ATOM     35  C16 TB9 d   1       4.894 -34.709  25.255  0.00  0.00    -0.055 C 
ATOM     36  H19 TB9 d   1       5.410 -35.263  24.457  0.00  0.00     0.033 H 
ATOM     37  H20 TB9 d   1       5.420 -34.864  26.209  0.00  0.00     0.033 H 
ATOM     38  H21 TB9 d   1       4.886 -33.637  25.010  0.00  0.00     0.033 H 
ENDBRANCH  29  35
ENDBRANCH  25  28
ENDBRANCH   9  25
BRANCH   8  39
ATOM     39  C11 TB9 d   1       2.733 -40.282  22.009  0.00  0.00    -0.048 C 
ATOM     40  H10 TB9 d   1       3.169 -40.968  21.267  0.00  0.00     0.030 H 
ATOM     41  H11 TB9 d   1       1.691 -40.059  21.735  0.00  0.00     0.030 H 
ATOM     42  H12 TB9 d   1       2.758 -40.753  23.003  0.00  0.00     0.030 H 
ENDBRANCH   8  39
TORSDOF 5
