REMARK  7 active torsions:
REMARK  status: ('A' for Active; 'I' for Inactive)
REMARK    1  A    between atoms: O2'_24  and  PA_13 
REMARK    2  A    between atoms: C5'_18  and  O5'_17 
REMARK    3  A    between atoms: C4'_19  and  C5'_18 
REMARK    4  A    between atoms: C3'_21  and  O3'_22 
REMARK    5  A    between atoms: C2'_23  and  O2'_24 
REMARK    6  A    between atoms: N9_26  and  C1'_25 
REMARK    7  A    between atoms: C6_30  and  N6_31 
ROOT
ATOM      1  H4  2AM d   1      22.986  14.031  -3.568  0.00  0.00     0.090 H 
ATOM      2  H5  2AM d   1      22.332  15.384  -1.195  0.00  0.00     0.091 H 
ATOM      3  H7  2AM d   1      22.264  13.318   0.170  0.00  0.00     0.095 H 
ATOM      4  H8  2AM d   1      20.913  12.149  -2.353  0.00  0.00     0.123 H 
ATOM      5  C4' 2AM d   1      23.127  13.808  -2.500  0.00  0.00     0.088 C 
ATOM      6  O4' 2AM d   1      22.976  12.373  -2.265  0.00  0.00    -0.353 OA
ATOM      7  C3' 2AM d   1      22.003  14.466  -1.704  0.00  0.00     0.092 C 
ATOM      8  C2' 2AM d   1      21.599  13.369  -0.705  0.00  0.00     0.121 C 
ATOM      9  C1' 2AM d   1      21.740  12.156  -1.628  0.00  0.00     0.140 C 
ENDROOT
BRANCH   9  10
ATOM     10  N9  2AM d   1      21.802  10.852  -0.978  0.00  0.00    -0.294 N 
ATOM     11  C8  2AM d   1      22.521  10.658   0.169  0.00  0.00     0.071 A 
ATOM     12  H9  2AM d   1      23.064  11.455   0.674  0.00  0.00     0.144 H 
ATOM     13  N7  2AM d   1      22.493   9.404   0.608  0.00  0.00    -0.236 NA
ATOM     14  C5  2AM d   1      21.693   8.742  -0.322  0.00  0.00     0.149 A 
ATOM     15  C6  2AM d   1      21.266   7.398  -0.412  0.00  0.00     0.155 A 
ATOM     16  C4  2AM d   1      21.269   9.609  -1.320  0.00  0.00     0.167 A 
ATOM     17  N1  2AM d   1      20.486   7.054  -1.461  0.00  0.00    -0.222 NA
ATOM     18  C2  2AM d   1      20.147   7.999  -2.350  0.00  0.00     0.091 A 
ATOM     19  H12 2AM d   1      19.518   7.667  -3.168  0.00  0.00     0.146 H 
ATOM     20  N3  2AM d   1      20.479   9.298  -2.367  0.00  0.00    -0.222 NA
BRANCH  15  21
ATOM     21  N6  2AM d   1      21.600   6.478   0.507  0.00  0.00    -0.382 N 
ATOM     22  H10 2AM d   1      21.270   5.507   0.408  0.00  0.00     0.157 HD
ATOM     23  H11 2AM d   1      22.186   6.743   1.311  0.00  0.00     0.157 HD
ENDBRANCH  15  21
ENDBRANCH   9  10
BRANCH   8  24
ATOM     24  O2' 2AM d   1      20.257  13.551  -0.296  0.00  0.00    -0.270 OA
BRANCH  24  25
ATOM     25  PA  2AM d   1      19.792  13.752   1.225  0.00  0.00     0.422 P 
ATOM     26  O1A 2AM d   1      20.827  14.594   1.896  0.00  0.00    -0.617 OA
ATOM     27  O2A 2AM d   1      19.717  12.362   1.799  0.00  0.00    -0.617 OA
ATOM     28  O3A 2AM d   1      18.458  14.439   1.107  0.00  0.00    -0.617 OA
ENDBRANCH  24  25
ENDBRANCH   8  24
BRANCH   7  29
ATOM     29  O3' 2AM d   1      20.933  14.736  -2.591  0.00  0.00    -0.390 OA
ATOM     30  H6  2AM d   1      20.222  15.147  -2.112  0.00  0.00     0.210 HD
ENDBRANCH   7  29
BRANCH   5  31
ATOM     31  C5' 2AM d   1      24.522  14.245  -2.109  0.00  0.00     0.043 C 
ATOM     32  H2  2AM d   1      25.206  14.082  -2.955  0.00  0.00     0.078 H 
ATOM     33  H3  2AM d   1      24.510  15.313  -1.848  0.00  0.00     0.078 H 
BRANCH  31  34
ATOM     34  O5' 2AM d   1      24.970  13.485  -0.981  0.00  0.00    -0.398 OA
ATOM     35  H1  2AM d   1      24.981  12.562  -1.206  0.00  0.00     0.209 HD
ENDBRANCH  31  34
ENDBRANCH   5  31
TORSDOF 7
