REMARK  7 active torsions:
REMARK  status: ('A' for Active; 'I' for Inactive)
REMARK    1  A    between atoms: O2_12  and  P_1 
REMARK    2  A    between atoms: C5_6  and  O5_5 
REMARK    3  A    between atoms: C4_7  and  C5_6 
REMARK    4  A    between atoms: C3_9  and  O3_10 
REMARK    5  A    between atoms: C2_11  and  O2_12 
REMARK    6  A    between atoms: C1_13  and  N9_14 
REMARK    7  A    between atoms: C2_21  and  N2_22 
ROOT
ATOM      1  C4  2GP d   1      23.859  13.147  -1.577  0.00  0.00     0.088 C 
ATOM      2  O4  2GP d   1      22.995  12.299  -2.379  0.00  0.00    -0.353 OA
ATOM      3  C3  2GP d   1      22.906  13.917  -0.669  0.00  0.00     0.092 C 
ATOM      4  C2  2GP d   1      21.751  12.917  -0.487  0.00  0.00     0.121 C 
ATOM      5  C1  2GP d   1      21.675  12.328  -1.891  0.00  0.00     0.140 C 
ATOM      6  H4  2GP d   1      24.392  13.861  -2.222  0.00  0.00     0.090 H 
ATOM      7  H5  2GP d   1      23.370  14.157   0.299  0.00  0.00     0.091 H 
ATOM      8  H7  2GP d   1      21.965  12.169   0.290  0.00  0.00     0.095 H 
ATOM      9  H8  2GP d   1      21.046  12.980  -2.515  0.00  0.00     0.123 H 
ENDROOT
BRANCH   5  10
ATOM     10  N9  2GP d   1      21.166  10.969  -1.976  0.00  0.00    -0.293 N 
ATOM     11  C8  2GP d   1      20.225  10.482  -2.869  0.00  0.00     0.071 A 
ATOM     12  N7  2GP d   1      20.005   9.196  -2.714  0.00  0.00    -0.234 NA
ATOM     13  H9  2GP d   1      19.724  11.096  -3.616  0.00  0.00     0.144 H 
ATOM     14  C5  2GP d   1      20.866   8.811  -1.667  0.00  0.00     0.173 A 
ATOM     15  C6  2GP d   1      21.077   7.540  -1.048  0.00  0.00     0.292 A 
ATOM     16  C4  2GP d   1      21.589   9.894  -1.205  0.00  0.00     0.186 A 
ATOM     17  O6  2GP d   1      20.525   6.459  -1.298  0.00  0.00    -0.265 OA
ATOM     18  N1  2GP d   1      22.042   7.597  -0.032  0.00  0.00    -0.152 N 
ATOM     19  C2  2GP d   1      22.715   8.736   0.341  0.00  0.00     0.703 A 
ATOM     20  H10 2GP d   1      22.255   6.750   0.455  0.00  0.00     0.187 HD
ATOM     21  N3  2GP d   1      22.530   9.926  -0.218  0.00  0.00    -0.044 NA
BRANCH  19  22
ATOM     22  N2  2GP d   1      23.611   8.601   1.326  0.00  0.00    -0.233 N 
ATOM     23  H11 2GP d   1      24.147   9.418   1.650  0.00  0.00     0.174 HD
ATOM     24  H12 2GP d   1      23.764   7.680   1.760  0.00  0.00     0.174 HD
ENDBRANCH  19  22
ENDBRANCH   5  10
BRANCH   4  25
ATOM     25  O2  2GP d   1      20.527  13.559  -0.244  0.00  0.00    -0.270 OA
BRANCH  25  26
ATOM     26  P   2GP d   1      19.973  13.723   1.221  0.00  0.00     0.422 P 
ATOM     27  O1P 2GP d   1      21.039  14.419   2.032  0.00  0.00    -0.617 OA
ATOM     28  O2P 2GP d   1      19.739  12.315   1.669  0.00  0.00    -0.617 OA
ATOM     29  O3P 2GP d   1      18.711  14.516   1.068  0.00  0.00    -0.617 OA
ENDBRANCH  25  26
ENDBRANCH   4  25
BRANCH   1  30
ATOM     30  C5  2GP d   1      24.908  12.289  -0.855  0.00  0.00     0.043 C 
ATOM     31  H2  2GP d   1      25.352  12.887  -0.045  0.00  0.00     0.078 H 
ATOM     32  H3  2GP d   1      24.406  11.408  -0.428  0.00  0.00     0.078 H 
BRANCH  30  33
ATOM     33  O5  2GP d   1      25.981  11.831  -1.738  0.00  0.00    -0.398 OA
ATOM     34  H1  2GP d   1      26.598  11.307  -1.240  0.00  0.00     0.209 HD
ENDBRANCH  30  33
ENDBRANCH   1  30
BRANCH   3  35
ATOM     35  O3  2GP d   1      22.515  15.131  -1.326  0.00  0.00    -0.390 OA
ATOM     36  H6  2GP d   1      21.921  15.616  -0.765  0.00  0.00     0.210 HD
ENDBRANCH   3  35
TORSDOF 7
