REMARK  25 active torsions:
REMARK  status: ('A' for Active; 'I' for Inactive)
REMARK    1  A    between atoms: C2_2  and  C1_1 
REMARK    2  A    between atoms: C3_3  and  C2_2 
REMARK    3  A    between atoms: C4_4  and  C3_3 
REMARK    4  A    between atoms: C5_5  and  C4_4 
REMARK    5  A    between atoms: C6_6  and  C5_5 
REMARK    6  A    between atoms: N1_7  and  C6_6 
REMARK    7  A    between atoms: N1_7  and  C7_8 
REMARK    8  A    between atoms: C8_9  and  N1_7 
REMARK    9  A    between atoms: C9_10  and  C8_9 
REMARK   10  A    between atoms: C9_10  and  O1_11 
REMARK   11  A    between atoms: C10_12  and  C9_10 
REMARK   12  A    between atoms: N2_13  and  C10_12 
REMARK   13  A    between atoms: C10_12  and  C11_14 
REMARK       I    between atoms: C13_18  and  N2_13 
REMARK   14  A    between atoms: C11_14  and  C12_15 
REMARK   15  A    between atoms: C14_19  and  C13_18 
REMARK   16  A    between atoms: C14_19  and  C15_21 
REMARK   17  A    between atoms: N3_23  and  C14_19 
REMARK   18  A    between atoms: C15_21  and  C16_22 
REMARK   19  A    between atoms: C19_26  and  C20_30 
REMARK   20  A    between atoms: C20_30  and  C23_31 
REMARK   21  A    between atoms: C20_30  and  C21_32 
REMARK   22  A    between atoms: C20_30  and  C22_33 
REMARK   23  A    between atoms: N5_34  and  C25_35 
REMARK   24  A    between atoms: C25_35  and  C26_36 
REMARK   25  A    between atoms: C27_37  and  C28_41 
ROOT
ATOM      1  N2  NON d   1     -84.869  33.833  81.252  0.00  0.00    -0.352 N 
ATOM      2  C13 NON d   1     -84.170  34.554  82.145  0.00  0.00     0.241 C 
ATOM      3  O4  NON d   1     -83.240  34.100  82.808  0.00  0.00    -0.271 OA
ATOM      4  H23 NON d   1     -85.656  34.267  80.814  0.00  0.00     0.163 HD
ENDROOT
BRANCH   2   5
ATOM      5  C14 NON d   1     -84.606  36.028  82.316  0.00  0.00     0.096 C 
ATOM      6  H26 NON d   1     -85.705  36.031  82.278  0.00  0.00     0.088 H 
BRANCH   5   7
ATOM      7  C15 NON d   1     -84.084  36.843  81.104  0.00  0.00    -0.041 C 
ATOM      8  H27 NON d   1     -84.177  36.221  80.201  0.00  0.00     0.036 H 
ATOM      9  H28 NON d   1     -83.025  37.083  81.277  0.00  0.00     0.036 H 
BRANCH   7  10
ATOM     10  C16 NON d   1     -84.850  38.159  80.870  0.00  0.00    -0.074 C 
ATOM     11  H29 NON d   1     -84.426  38.680  79.999  0.00  0.00     0.027 H 
ATOM     12  H30 NON d   1     -84.759  38.799  81.760  0.00  0.00     0.027 H 
ATOM     13  H31 NON d   1     -85.911  37.938  80.684  0.00  0.00     0.027 H 
ENDBRANCH   7  10
ENDBRANCH   5   7
BRANCH   5  14
ATOM     14  N3  NON d   1     -84.229  36.731  83.601  0.00  0.00    -0.306 N 
ATOM     15  C24 NON d   1     -82.930  37.503  83.643  0.00  0.00     0.008 A 
ATOM     16  C19 NON d   1     -82.531  38.177  84.753  0.00  0.00     0.060 A 
ATOM     17  H32 NON d   1     -82.296  37.519  82.758  0.00  0.00     0.115 H 
ATOM     18  N4  NON d   1     -83.366  38.129  85.905  0.00  0.00    -0.229 NA
ATOM     19  C18 NON d   1     -84.599  37.416  85.936  0.00  0.00     0.193 A 
ATOM     20  C17 NON d   1     -85.077  36.659  84.689  0.00  0.00     0.294 A 
ATOM     21  N5  NON d   1     -85.286  37.462  87.099  0.00  0.00    -0.364 N 
ATOM     22  O5  NON d   1     -86.150  36.058  84.726  0.00  0.00    -0.264 OA
ATOM     23  H42 NON d   1     -86.003  36.736  87.238  0.00  0.00     0.161 HD
BRANCH  16  24
ATOM     24  C20 NON d   1     -81.270  39.045  84.849  0.00  0.00    -0.005 C 
BRANCH  24  25
ATOM     25  C23 NON d   1     -80.321  38.812  83.640  0.00  0.00    -0.064 C 
ATOM     26  H33 NON d   1     -79.431  39.450  83.744  0.00  0.00     0.028 H 
ATOM     27  H34 NON d   1     -80.846  39.065  82.707  0.00  0.00     0.028 H 
ATOM     28  H35 NON d   1     -80.014  37.756  83.613  0.00  0.00     0.028 H 
ENDBRANCH  24  25
BRANCH  24  29
ATOM     29  C21 NON d   1     -80.501  38.727  86.148  0.00  0.00    -0.064 C 
ATOM     30  H36 NON d   1     -81.161  38.888  87.013  0.00  0.00     0.028 H 
ATOM     31  H37 NON d   1     -79.625  39.388  86.227  0.00  0.00     0.028 H 
ATOM     32  H38 NON d   1     -80.168  37.679  86.130  0.00  0.00     0.028 H 
ENDBRANCH  24  29
BRANCH  24  33
ATOM     33  C22 NON d   1     -81.683  40.530  84.873  0.00  0.00    -0.064 C 
ATOM     34  H39 NON d   1     -82.233  40.773  83.952  0.00  0.00     0.028 H 
ATOM     35  H40 NON d   1     -80.784  41.160  84.939  0.00  0.00     0.028 H 
ATOM     36  H41 NON d   1     -82.327  40.718  85.745  0.00  0.00     0.028 H 
ENDBRANCH  24  33
ENDBRANCH  16  24
BRANCH  21  37
ATOM     37  C25 NON d   1     -85.120  38.433  88.182  0.00  0.00     0.038 C 
ATOM     38  H43 NON d   1     -84.049  38.563  88.397  0.00  0.00     0.073 H 
ATOM     39  H44 NON d   1     -85.633  38.068  89.084  0.00  0.00     0.073 H 
BRANCH  37  40
ATOM     40  C26 NON d   1     -85.724  39.779  87.759  0.00  0.00     0.108 A 
ATOM     41  C27 NON d   1     -87.137  40.225  87.554  0.00  0.00     0.088 A 
ATOM     42  N7  NON d   1     -87.101  41.503  87.188  0.00  0.00    -0.108 NA
ATOM     43  O6  NON d   1     -85.743  41.914  87.144  0.00  0.00    -0.106 OA
ATOM     44  N6  NON d   1     -84.935  40.819  87.503  0.00  0.00    -0.106 NA
BRANCH  41  45
ATOM     45  C28 NON d   1     -88.445  39.456  87.701  0.00  0.00    -0.031 C 
ATOM     46  H45 NON d   1     -89.289  40.120  87.465  0.00  0.00     0.035 H 
ATOM     47  H46 NON d   1     -88.542  39.092  88.734  0.00  0.00     0.035 H 
ATOM     48  H47 NON d   1     -88.447  38.601  87.009  0.00  0.00     0.035 H 
ENDBRANCH  41  45
ENDBRANCH  37  40
ENDBRANCH  21  37
ENDBRANCH   5  14
ENDBRANCH   2   5
BRANCH   1  49
ATOM     49  C10 NON d   1     -84.552  32.456  80.881  0.00  0.00     0.048 C 
ATOM     50  H22 NON d   1     -83.667  32.107  81.433  0.00  0.00     0.077 H 
BRANCH  49  51
ATOM     51  C9  NON d   1     -84.274  32.433  79.375  0.00  0.00     0.079 C 
ATOM     52  H20 NON d   1     -85.065  33.055  78.931  0.00  0.00     0.088 H 
BRANCH  51  53
ATOM     53  C8  NON d   1     -82.856  32.941  78.931  0.00  0.00     0.108 C 
ATOM     54  H18 NON d   1     -82.878  33.038  77.835  0.00  0.00     0.080 H 
ATOM     55  H19 NON d   1     -82.714  33.933  79.384  0.00  0.00     0.080 H 
BRANCH  53  56
ATOM     56  N1  NON d   1     -81.644  32.123  79.276  0.00  0.00    -0.072 N 
ATOM     57  H14 NON d   1     -81.898  31.522  80.044  0.00  0.00     0.279 HD
BRANCH  56  58
ATOM     58  C6  NON d   1     -80.481  32.951  79.732  0.00  0.00     0.083 C 
ATOM     59  H12 NON d   1     -80.824  33.511  80.614  0.00  0.00     0.075 H 
ATOM     60  H13 NON d   1     -79.693  32.244  80.030  0.00  0.00     0.075 H 
BRANCH  58  61
ATOM     61  C5  NON d   1     -79.808  33.989  78.784  0.00  0.00    -0.042 C 
ATOM     62  H10 NON d   1     -78.784  33.654  78.564  0.00  0.00     0.035 H 
ATOM     63  H11 NON d   1     -80.386  34.041  77.849  0.00  0.00     0.035 H 
BRANCH  61  64
ATOM     64  C4  NON d   1     -79.746  35.398  79.407  0.00  0.00    -0.064 C 
ATOM     65  H8  NON d   1     -80.692  35.919  79.198  0.00  0.00     0.033 H 
ATOM     66  H9  NON d   1     -79.614  35.299  80.495  0.00  0.00     0.033 H 
BRANCH  64  67
ATOM     67  C3  NON d   1     -78.583  36.235  78.841  0.00  0.00    -0.065 C 
ATOM     68  H6  NON d   1     -77.882  35.564  78.323  0.00  0.00     0.033 H 
ATOM     69  H7  NON d   1     -78.987  36.967  78.126  0.00  0.00     0.033 H 
BRANCH  67  70
ATOM     70  C2  NON d   1     -77.822  36.990  79.948  0.00  0.00    -0.069 C 
ATOM     71  H4  NON d   1     -78.351  37.932  80.155  0.00  0.00     0.032 H 
ATOM     72  H5  NON d   1     -77.814  36.367  80.854  0.00  0.00     0.032 H 
BRANCH  70  73
ATOM     73  C1  NON d   1     -76.366  37.319  79.568  0.00  0.00    -0.077 C 
ATOM     74  H1  NON d   1     -75.883  37.855  80.398  0.00  0.00     0.027 H 
ATOM     75  H2  NON d   1     -76.356  37.951  78.668  0.00  0.00     0.027 H 
ATOM     76  H3  NON d   1     -75.820  36.386  79.367  0.00  0.00     0.027 H 
ENDBRANCH  70  73
ENDBRANCH  67  70
ENDBRANCH  64  67
ENDBRANCH  61  64
ENDBRANCH  58  61
ENDBRANCH  56  58
BRANCH  56  77
ATOM     77  C7  NON d   1     -81.265  31.251  78.123  0.00  0.00     0.066 C 
ATOM     78  H15 NON d   1     -82.136  30.657  77.811  0.00  0.00     0.068 H 
ATOM     79  H16 NON d   1     -80.450  30.576  78.426  0.00  0.00     0.068 H 
ATOM     80  H17 NON d   1     -80.929  31.878  77.284  0.00  0.00     0.068 H 
ENDBRANCH  56  77
ENDBRANCH  53  56
ENDBRANCH  51  53
BRANCH  51  81
ATOM     81  O1  NON d   1     -84.173  31.395  78.734  0.00  0.00    -0.392 OA
ATOM     82  H21 NON d   1     -84.961  30.877  78.847  0.00  0.00     0.210 HD
ENDBRANCH  51  81
ENDBRANCH  49  51
BRANCH  49  83
ATOM     83  C11 NON d   1     -85.780  31.545  81.219  0.00  0.00     0.037 C 
ATOM     84  H24 NON d   1     -85.661  30.611  80.651  0.00  0.00     0.052 H 
ATOM     85  H25 NON d   1     -86.683  32.071  80.875  0.00  0.00     0.052 H 
BRANCH  83  86
ATOM     86  C12 NON d   1     -86.007  31.161  82.688  0.00  0.00     0.174 C 
ATOM     87  O2  NON d   1     -87.205  31.105  83.098  0.00  0.00    -0.648 OA
ATOM     88  O3  NON d   1     -85.010  30.891  83.412  0.00  0.00    -0.648 OA
ENDBRANCH  83  86
ENDBRANCH  49  83
ENDBRANCH   1  49
TORSDOF 25
