REMARK  24 active torsions:
REMARK  status: ('A' for Active; 'I' for Inactive)
REMARK    1  A    between atoms: C_1  and  CH3_3 
REMARK       I    between atoms: C_1  and  N_4 
REMARK    2  A    between atoms: N_4  and  CA_5 
REMARK    3  A    between atoms: CA_5  and  C_6 
REMARK    4  A    between atoms: CA_5  and  CB_8 
REMARK       I    between atoms: C_6  and  N_12 
REMARK    5  A    between atoms: CB_8  and  CG_9 
REMARK    6  A    between atoms: N_12  and  CA_13 
REMARK    7  A    between atoms: CA_13  and  C_14 
REMARK    8  A    between atoms: CA_13  and  CB_16 
REMARK       I    between atoms: C_14  and  N_21 
REMARK    9  A    between atoms: CB_16  and  CG_17 
REMARK   10  A    between atoms: CG_17  and  CD_18 
REMARK   11  A    between atoms: N_21  and  CA_22 
REMARK   12  A    between atoms: CA_22  and  C_23 
REMARK   13  A    between atoms: CA_22  and  CB_25 
REMARK       I    between atoms: C_23  and  N_28 
REMARK   14  A    between atoms: CB_25  and  CG1_26 
REMARK   15  A    between atoms: CB_25  and  CG2_27 
REMARK   16  A    between atoms: N_28  and  CA_29 
REMARK   17  A    between atoms: CA_29  and  C_30 
REMARK   18  A    between atoms: CA_29  and  CB_32 
REMARK   19  A    between atoms: C_30  and  O_31 
REMARK   20  A    between atoms: C_30  and  C1_36 
REMARK   21  A    between atoms: CB_32  and  CG_33 
REMARK   22  A    between atoms: C1_36  and  C2_37 
REMARK   23  A    between atoms: C2_37  and  C3_38 
REMARK   24  A    between atoms: C3_38  and  C4_39 
ROOT
ATOM      1  CA  VAL d   1      39.305  94.226  19.692  0.00  0.00     0.092 C 
ATOM      2  H15 VAL d   1      39.469  95.237  19.291  0.00  0.00     0.088 H 
ENDROOT
BRANCH   1   3
ATOM      3  N   VAL d   1      39.669  94.295  21.117  0.00  0.00    -0.346 N 
ATOM      4  C   GLU d   1      39.917  95.470  21.716  0.00  0.00     0.241 C 
ATOM      5  O   GLU d   1      39.892  96.553  21.129  0.00  0.00    -0.271 OA
ATOM      6  H14 VAL d   1      39.733  93.450  21.648  0.00  0.00     0.163 HD
BRANCH   4   7
ATOM      7  CA  GLU d   1      40.281  95.446  23.187  0.00  0.00     0.090 C 
ATOM      8  H9  GLU d   1      41.036  94.665  23.359  0.00  0.00     0.087 H 
BRANCH   7   9
ATOM      9  N   GLU d   1      40.833  96.734  23.588  0.00  0.00    -0.346 N 
ATOM     10  C   ASP d   1      41.907  96.848  24.365  0.00  0.00     0.241 C 
ATOM     11  O   ASP d   1      42.515  95.887  24.841  0.00  0.00    -0.271 OA
ATOM     12  H8  GLU d   1      40.385  97.568  23.265  0.00  0.00     0.163 HD
BRANCH  10  13
ATOM     13  CA  ASP d   1      42.346  98.271  24.668  0.00  0.00     0.098 C 
ATOM     14  H5  ASP d   1      41.495  98.936  24.461  0.00  0.00     0.088 H 
BRANCH  13  15
ATOM     15  N   ASP d   1      42.723  98.479  26.068  0.00  0.00    -0.348 N 
ATOM     16  C   ACE d   1      41.761  98.643  26.971  0.00  0.00     0.214 C 
ATOM     17  O   ACE d   1      40.573  98.592  26.667  0.00  0.00    -0.274 OA
ATOM     18  H4  ASP d   1      43.685  98.497  26.339  0.00  0.00     0.163 HD
BRANCH  16  19
ATOM     19  CH3 ACE d   1      42.170  98.867  28.412  0.00  0.00    -0.003 C 
ATOM     20  H1  ACE d   1      43.268  98.882  28.483  0.00  0.00     0.040 H 
ATOM     21  H2  ACE d   1      41.773  98.053  29.037  0.00  0.00     0.040 H 
ATOM     22  H3  ACE d   1      41.767  99.829  28.762  0.00  0.00     0.040 H 
ENDBRANCH  16  19
ENDBRANCH  13  15
BRANCH  13  23
ATOM     23  CB  ASP d   1      43.476  98.639  23.712  0.00  0.00     0.043 C 
ATOM     24  H6  ASP d   1      43.136  98.456  22.682  0.00  0.00     0.052 H 
ATOM     25  H7  ASP d   1      44.343  97.998  23.931  0.00  0.00     0.052 H 
BRANCH  23  26
ATOM     26  CG  ASP d   1      43.909 100.098  23.829  0.00  0.00     0.175 C 
ATOM     27  OD1 ASP d   1      43.061 101.008  23.997  0.00  0.00    -0.648 OA
ATOM     28  OD2 ASP d   1      45.131 100.319  23.734  0.00  0.00    -0.648 OA
ENDBRANCH  23  26
ENDBRANCH  13  23
ENDBRANCH  10  13
ENDBRANCH   7   9
BRANCH   7  29
ATOM     29  CB  GLU d   1      39.052  95.130  23.997  0.00  0.00    -0.029 C 
ATOM     30  H10 GLU d   1      38.581  94.220  23.596  0.00  0.00     0.037 H 
ATOM     31  H11 GLU d   1      38.347  95.971  23.923  0.00  0.00     0.037 H 
BRANCH  29  32
ATOM     32  CG  GLU d   1      39.398  94.907  25.438  0.00  0.00     0.018 C 
ATOM     33  H12 GLU d   1      39.777  95.847  25.865  0.00  0.00     0.049 H 
ATOM     34  H13 GLU d   1      40.178  94.134  25.503  0.00  0.00     0.049 H 
BRANCH  32  35
ATOM     35  CD  GLU d   1      38.201  94.460  26.227  0.00  0.00     0.172 C 
ATOM     36  OE1 GLU d   1      37.587  93.430  25.856  0.00  0.00    -0.648 OA
ATOM     37  OE2 GLU d   1      37.891  95.125  27.231  0.00  0.00    -0.648 OA
ENDBRANCH  32  35
ENDBRANCH  29  32
ENDBRANCH   7  29
ENDBRANCH   4   7
ENDBRANCH   1   3
BRANCH   1  38
ATOM     38  C   VAL d   1      37.834  93.861  19.364  0.00  0.00     0.241 C 
ATOM     39  O   VAL d   1      37.166  93.218  20.168  0.00  0.00    -0.271 OA
ATOM     40  N   FPR d   1      37.324  94.285  18.204  0.00  0.00    -0.352 N 
ATOM     41  H23 FPR d   1      37.876  94.851  17.592  0.00  0.00     0.163 HD
BRANCH  40  42
ATOM     42  CA  FPR d   1      35.968  93.923  17.833  0.00  0.00     0.046 C 
ATOM     43  H24 FPR d   1      35.485  93.478  18.716  0.00  0.00     0.077 H 
BRANCH  42  44
ATOM     44  C   FPR d   1      35.979  92.919  16.740  0.00  0.00     0.055 C 
ATOM     45  H25 FPR d   1      36.676  93.196  15.935  0.00  0.00     0.086 H 
BRANCH  44  46
ATOM     46  O   FPR d   1      34.660  92.842  16.267  0.00  0.00    -0.394 OA
ATOM     47  H26 FPR d   1      34.086  92.572  16.974  0.00  0.00     0.210 HD
ENDBRANCH  44  46
BRANCH  44  48
ATOM     48  C1  FPR d   1      36.374  91.590  17.379  0.00  0.00    -0.039 C 
ATOM     49  H29 FPR d   1      35.762  91.422  18.277  0.00  0.00     0.036 H 
ATOM     50  H30 FPR d   1      37.437  91.623  17.660  0.00  0.00     0.036 H 
BRANCH  48  51
ATOM     51  C2  FPR d   1      36.152  90.464  16.410  0.00  0.00    -0.059 C 
ATOM     52  H31 FPR d   1      36.725  90.663  15.492  0.00  0.00     0.033 H 
ATOM     53  H32 FPR d   1      35.081  90.406  16.168  0.00  0.00     0.033 H 
BRANCH  51  54
ATOM     54  C3  FPR d   1      36.600  89.134  16.994  0.00  0.00    -0.041 C 
ATOM     55  H33 FPR d   1      35.922  88.876  17.821  0.00  0.00     0.040 H 
ATOM     56  H34 FPR d   1      37.622  89.256  17.383  0.00  0.00     0.040 H 
BRANCH  54  57
ATOM     57  C4  FPR d   1      36.603  87.989  16.012  0.00  0.00    -0.058 A 
ATOM     58  C5  FPR d   1      37.455  86.909  16.196  0.00  0.00    -0.077 A 
ATOM     59  C6  FPR d   1      37.485  85.863  15.285  0.00  0.00    -0.082 A 
ATOM     60  H35 FPR d   1      38.105  86.882  17.063  0.00  0.00     0.084 H 
ATOM     61  C7  FPR d   1      36.653  85.890  14.174  0.00  0.00    -0.083 A 
ATOM     62  H36 FPR d   1      38.157  85.026  15.440  0.00  0.00     0.083 H 
ATOM     63  C8  FPR d   1      35.793  86.964  13.983  0.00  0.00    -0.082 A 
ATOM     64  H37 FPR d   1      36.674  85.076  13.458  0.00  0.00     0.083 H 
ATOM     65  C9  FPR d   1      35.772  88.002  14.898  0.00  0.00    -0.077 A 
ATOM     66  H38 FPR d   1      35.139  86.989  13.119  0.00  0.00     0.083 H 
ATOM     67  H39 FPR d   1      35.098  88.837  14.744  0.00  0.00     0.084 H 
ENDBRANCH  54  57
ENDBRANCH  51  54
ENDBRANCH  48  51
ENDBRANCH  44  48
ENDBRANCH  42  44
BRANCH  42  68
ATOM     68  CB  FPR d   1      35.131  95.122  17.383  0.00  0.00     0.037 C 
ATOM     69  H27 FPR d   1      34.323  94.760  16.730  0.00  0.00     0.052 H 
ATOM     70  H28 FPR d   1      35.778  95.809  16.819  0.00  0.00     0.052 H 
BRANCH  68  71
ATOM     71  CG  FPR d   1      34.515  95.879  18.537  0.00  0.00     0.174 C 
ATOM     72  OD1 FPR d   1      34.171  95.261  19.556  0.00  0.00    -0.648 OA
ATOM     73  OD2 FPR d   1      34.368  97.107  18.414  0.00  0.00    -0.648 OA
ENDBRANCH  68  71
ENDBRANCH  42  68
ENDBRANCH  40  42
ENDBRANCH   1  38
BRANCH   1  74
ATOM     74  CB  VAL d   1      40.249  93.254  18.910  0.00  0.00    -0.033 C 
ATOM     75  H16 VAL d   1      39.794  93.031  17.933  0.00  0.00     0.042 H 
BRANCH  74  76
ATOM     76  CG1 VAL d   1      41.593  93.922  18.685  0.00  0.00    -0.071 C 
ATOM     77  H17 VAL d   1      42.255  93.237  18.135  0.00  0.00     0.028 H 
ATOM     78  H18 VAL d   1      42.047  94.170  19.656  0.00  0.00     0.028 H 
ATOM     79  H19 VAL d   1      41.451  94.843  18.101  0.00  0.00     0.028 H 
ENDBRANCH  74  76
BRANCH  74  80
ATOM     80  CG2 VAL d   1      40.439  91.940  19.670  0.00  0.00    -0.071 C 
ATOM     81  H20 VAL d   1      39.460  91.463  19.828  0.00  0.00     0.028 H 
ATOM     82  H21 VAL d   1      40.909  92.144  20.643  0.00  0.00     0.028 H 
ATOM     83  H22 VAL d   1      41.084  91.268  19.085  0.00  0.00     0.028 H 
ENDBRANCH  74  80
ENDBRANCH   1  74
TORSDOF 24
