REMARK  8 active torsions:
REMARK  status: ('A' for Active; 'I' for Inactive)
REMARK    1  A    between atoms: C11_19  and  C8_2 
REMARK    2  A    between atoms: C6_6  and  C5_7 
REMARK       I    between atoms: C5_7  and  N1_9 
REMARK    3  A    between atoms: N1_9  and  C3_10 
REMARK    4  A    between atoms: C3_10  and  C2_11 
REMARK    5  A    between atoms: C3_10  and  C4_12 
REMARK    6  A    between atoms: C2_11  and  C1_14 
REMARK    7  A    between atoms: C4_12  and  O3_13 
REMARK    8  A    between atoms: C14_22  and  C17_23 
ROOT
ATOM      1  C7  NA4 d   1     -44.230  38.598  90.000  0.00  0.00    -0.054 A 
ATOM      2  C8  NA4 d   1     -44.213  39.477  91.047  0.00  0.00    -0.007 A 
ATOM      3  C9  NA4 d   1     -45.371  39.718  91.755  0.00  0.00     0.013 A 
ATOM      4  N2  NA4 d   1     -46.528  39.132  91.468  0.00  0.00    -0.271 NA
ATOM      5  C10 NA4 d   1     -46.538  38.271  90.439  0.00  0.00     0.017 A 
ATOM      6  C6  NA4 d   1     -45.420  37.960  89.671  0.00  0.00     0.050 A 
ATOM      7  H1  NA4 d   1     -43.327  38.401  89.434  0.00  0.00     0.086 H 
ATOM      8  H2  NA4 d   1     -45.336  40.417  92.583  0.00  0.00     0.116 H 
ATOM      9  H3  NA4 d   1     -47.476  37.787  90.190  0.00  0.00     0.116 H 
ENDROOT
BRANCH   6  10
ATOM     10  C5  NA4 d   1     -45.458  36.885  88.623  0.00  0.00     0.253 C 
ATOM     11  O4  NA4 d   1     -44.438  36.416  88.117  0.00  0.00    -0.268 OA
ATOM     12  N1  NA4 d   1     -46.691  36.509  88.286  0.00  0.00    -0.350 N 
ATOM     13  H4  NA4 d   1     -47.462  36.983  88.710  0.00  0.00     0.163 HD
BRANCH  12  14
ATOM     14  C3  NA4 d   1     -46.976  35.445  87.333  0.00  0.00     0.042 C 
ATOM     15  H5  NA4 d   1     -46.089  34.795  87.379  0.00  0.00     0.076 H 
BRANCH  14  16
ATOM     16  C2  NA4 d   1     -48.133  34.560  87.822  0.00  0.00     0.036 C 
ATOM     17  H6  NA4 d   1     -48.268  33.731  87.112  0.00  0.00     0.052 H 
ATOM     18  H7  NA4 d   1     -49.050  35.166  87.857  0.00  0.00     0.052 H 
BRANCH  16  19
ATOM     19  C1  NA4 d   1     -47.876  33.977  89.215  0.00  0.00     0.174 C 
ATOM     20  O2  NA4 d   1     -48.826  33.515  89.888  0.00  0.00    -0.648 OA
ATOM     21  O1  NA4 d   1     -46.712  33.951  89.640  0.00  0.00    -0.648 OA
ENDBRANCH  16  19
ENDBRANCH  14  16
BRANCH  14  22
ATOM     22  C4  NA4 d   1     -47.057  35.855  85.810  0.00  0.00     0.036 C 
ATOM     23  H8  NA4 d   1     -46.185  36.475  85.555  0.00  0.00     0.077 H 
ATOM     24  H9  NA4 d   1     -47.979  36.430  85.638  0.00  0.00     0.077 H 
BRANCH  22  25
ATOM     25  O3  NA4 d   1     -47.066  34.683  84.976  0.00  0.00    -0.399 OA
ATOM     26  H10 NA4 d   1     -47.819  34.147  85.193  0.00  0.00     0.209 HD
ENDBRANCH  22  25
ENDBRANCH  14  22
ENDBRANCH  12  14
ENDBRANCH   6  10
BRANCH   2  27
ATOM     27  C11 NA4 d   1     -43.040  40.344  91.211  0.00  0.00    -0.025 A 
ATOM     28  C16 NA4 d   1     -43.225  41.652  91.583  0.00  0.00    -0.071 A 
ATOM     29  C15 NA4 d   1     -42.131  42.456  91.826  0.00  0.00    -0.066 A 
ATOM     30  H12 NA4 d   1     -44.227  42.052  91.686  0.00  0.00     0.084 H 
ATOM     31  C14 NA4 d   1     -40.856  41.947  91.692  0.00  0.00     0.040 A 
ATOM     32  H11 NA4 d   1     -42.273  43.489  92.123  0.00  0.00     0.085 H 
ATOM     33  C13 NA4 d   1     -40.669  40.628  91.318  0.00  0.00    -0.066 A 
ATOM     34  C12 NA4 d   1     -41.765  39.827  91.075  0.00  0.00    -0.071 A 
ATOM     35  H14 NA4 d   1     -39.667  40.227  91.217  0.00  0.00     0.085 H 
ATOM     36  H13 NA4 d   1     -41.627  38.794  90.778  0.00  0.00     0.084 H 
BRANCH  31  37
ATOM     37  C17 NA4 d   1     -39.756  42.785  91.931  0.00  0.00     0.209 C 
ATOM     38  O5  NA4 d   1     -38.616  42.292  91.778  0.00  0.00    -0.644 OA
ATOM     39  O6  NA4 d   1     -39.990  43.969  92.278  0.00  0.00    -0.644 OA
ENDBRANCH  31  37
ENDBRANCH   2  27
TORSDOF 8
