REMARK  10 active torsions:
REMARK  status: ('A' for Active; 'I' for Inactive)
REMARK    1  A    between atoms: C_1  and  CH3_3 
REMARK       I    between atoms: N_4  and  C_1 
REMARK    2  A    between atoms: CA_5  and  N_4 
REMARK    3  A    between atoms: CA_5  and  CB_8 
REMARK    4  A    between atoms: C_6  and  CA_5 
REMARK       I    between atoms: C_6  and  N_11 
REMARK    5  A    between atoms: CB_8  and  CG2_10 
REMARK    6  A    between atoms: CB_8  and  CG1_9 
REMARK    7  A    between atoms: N_11  and  CA_12 
REMARK    8  A    between atoms: CA_12  and  CB_15 
REMARK    9  A    between atoms: CA_12  and  C_13 
REMARK   10  A    between atoms: CB_15  and  CG_16 
ROOT
ATOM      1  CA  0ZZ d   1      49.473  27.267  94.423  0.00  0.00     0.092 C 
ATOM      2  H5  0ZZ d   1      50.263  26.849  95.064  0.00  0.00     0.088 H 
ENDROOT
BRANCH   1   3
ATOM      3  N   0ZZ d   1      49.265  28.659  94.845  0.00  0.00    -0.348 N 
ATOM      4  C   0ZZ d   1      50.041  29.262  95.749  0.00  0.00     0.214 C 
ATOM      5  O   0ZZ d   1      50.998  28.711  96.268  0.00  0.00    -0.274 OA
ATOM      6  H4  0ZZ d   1      48.511  29.176  94.439  0.00  0.00     0.163 HD
BRANCH   4   7
ATOM      7  CH3 0ZZ d   1      49.701  30.699  96.123  0.00  0.00    -0.003 C 
ATOM      8  H1  0ZZ d   1      48.815  31.025  95.559  0.00  0.00     0.040 H 
ATOM      9  H2  0ZZ d   1      50.551  31.352  95.879  0.00  0.00     0.040 H 
ATOM     10  H3  0ZZ d   1      49.492  30.758  97.201  0.00  0.00     0.040 H 
ENDBRANCH   4   7
ENDBRANCH   1   3
BRANCH   1  11
ATOM     11  CB  0ZZ d   1      48.188  26.447  94.615  0.00  0.00    -0.033 C 
ATOM     12  H6  0ZZ d   1      48.359  25.426  94.244  0.00  0.00     0.042 H 
BRANCH  11  13
ATOM     13  CG2 0ZZ d   1      47.064  27.076  93.816  0.00  0.00    -0.071 C 
ATOM     14  H10 0ZZ d   1      47.349  27.120  92.754  0.00  0.00     0.028 H 
ATOM     15  H11 0ZZ d   1      46.875  28.094  94.188  0.00  0.00     0.028 H 
ATOM     16  H12 0ZZ d   1      46.153  26.470  93.926  0.00  0.00     0.028 H 
ENDBRANCH  11  13
BRANCH  11  17
ATOM     17  CG1 0ZZ d   1      47.825  26.374  96.068  0.00  0.00    -0.071 C 
ATOM     18  H7  0ZZ d   1      46.904  25.784  96.187  0.00  0.00     0.028 H 
ATOM     19  H8  0ZZ d   1      47.662  27.390  96.457  0.00  0.00     0.028 H 
ATOM     20  H9  0ZZ d   1      48.642  25.894  96.626  0.00  0.00     0.028 H 
ENDBRANCH  11  17
ENDBRANCH   1  11
BRANCH   1  21
ATOM     21  C   0ZZ d   1      49.900  27.070  92.956  0.00  0.00     0.241 C 
ATOM     22  O   0ZZ d   1      49.740  27.966  92.118  0.00  0.00    -0.271 OA
ATOM     23  N   0ZZ d   1      50.432  25.882  92.660  0.00  0.00    -0.351 N 
ATOM     24  H13 0ZZ d   1      50.549  25.211  93.392  0.00  0.00     0.163 HD
BRANCH  23  25
ATOM     25  CA  0ZZ d   1      50.850  25.525  91.304  0.00  0.00     0.052 C 
ATOM     26  H14 0ZZ d   1      50.856  26.436  90.688  0.00  0.00     0.077 H 
BRANCH  25  27
ATOM     27  CB  0ZZ d   1      52.258  24.939  91.323  0.00  0.00     0.037 C 
ATOM     28  H16 0ZZ d   1      52.381  24.287  90.446  0.00  0.00     0.052 H 
ATOM     29  H17 0ZZ d   1      52.382  24.346  92.241  0.00  0.00     0.052 H 
BRANCH  27  30
ATOM     30  CG  0ZZ d   1      53.319  26.000  91.288  0.00  0.00     0.174 C 
ATOM     31  OD2 0ZZ d   1      53.643  26.542  92.347  0.00  0.00    -0.648 OA
ATOM     32  OD1 0ZZ d   1      53.824  26.305  90.200  0.00  0.00    -0.648 OA
ENDBRANCH  27  30
ENDBRANCH  25  27
BRANCH  25  33
ATOM     33  C   0ZZ d   1      49.862  24.512  90.677  0.00  0.00     0.122 C 
ATOM     34  O   0ZZ d   1      50.412  24.059  89.426  0.00  0.00    -0.230 OA
ATOM     35  H15 0ZZ d   1      48.913  24.196  91.108  0.00  0.00     0.095 H 
ENDBRANCH  25  33
ENDBRANCH  23  25
ENDBRANCH   1  21
TORSDOF 10
