REMARK  23 active torsions:
REMARK  status: ('A' for Active; 'I' for Inactive)
REMARK    1  A    between atoms: C25_2  and  O8_13 
REMARK    2  A    between atoms: C20_3  and  C19_16 
REMARK    3  A    between atoms: C22_5  and  C26_7 
REMARK    4  A    between atoms: C27_8  and  C28_9 
REMARK    5  A    between atoms: C28_9  and  O7_10 
REMARK    6  A    between atoms: O7_10  and  C29_12 
REMARK    7  A    between atoms: O8_13  and  C30_14 
REMARK    8  A    between atoms: C30_14  and  C31_15 
REMARK    9  A    between atoms: C19_16  and  C18_17 
REMARK       I    between atoms: C18_17  and  N2_18 
REMARK   10  A    between atoms: N2_18  and  C14_20 
REMARK   11  A    between atoms: C14_20  and  C13_21 
REMARK   12  A    between atoms: C14_20  and  C15_22 
REMARK       I    between atoms: C13_21  and  N1_26 
REMARK   13  A    between atoms: C15_22  and  C17_23 
REMARK   14  A    between atoms: C15_22  and  C16_24 
REMARK   15  A    between atoms: N1_26  and  C10_27 
REMARK   16  A    between atoms: C10_27  and  C9_28 
REMARK   17  A    between atoms: C10_27  and  C11_29 
REMARK   18  A    between atoms: C9_28  and  C8_33 
REMARK   19  A    between atoms: C9_28  and  O1_34 
REMARK   20  A    between atoms: C11_29  and  C12_30 
REMARK   21  A    between atoms: C8_33  and  S1_35 
REMARK   22  A    between atoms: S1_35  and  C7_36 
REMARK   23  A    between atoms: C7_36  and  C6_37 
ROOT
ATOM      1  C14 CNE d   1      76.311 -19.760  98.731  0.00  0.00     0.092 C 
ATOM      2  H17 CNE d   1      76.556 -19.234  99.665  0.00  0.00     0.088 H 
ENDROOT
BRANCH   1   3
ATOM      3  N2  CNE d   1      76.755 -21.169  98.818  0.00  0.00    -0.347 N 
ATOM      4  C18 CNE d   1      76.570 -21.933  99.968  0.00  0.00     0.222 C 
ATOM      5  O5  CNE d   1      76.035 -21.526 100.998  0.00  0.00    -0.273 OA
ATOM      6  H16 CNE d   1      77.202 -21.586  98.026  0.00  0.00     0.163 HD
BRANCH   4   7
ATOM      7  C19 CNE d   1      77.093 -23.387  99.848  0.00  0.00     0.036 C 
ATOM      8  H14 CNE d   1      76.466 -24.046 100.467  0.00  0.00     0.054 H 
ATOM      9  H15 CNE d   1      77.031 -23.704  98.797  0.00  0.00     0.054 H 
BRANCH   7  10
ATOM     10  C20 CNE d   1      78.530 -23.494 100.312  0.00  0.00    -0.015 A 
ATOM     11  C25 CNE d   1      79.578 -23.563  99.332  0.00  0.00     0.075 A 
ATOM     12  C24 CNE d   1      80.940 -23.664  99.752  0.00  0.00    -0.049 A 
ATOM     13  C23 CNE d   1      81.279 -23.701 101.126  0.00  0.00    -0.070 A 
ATOM     14  H1  CNE d   1      81.726 -23.713  99.007  0.00  0.00     0.087 H 
ATOM     15  C22 CNE d   1      80.264 -23.634 102.112  0.00  0.00    -0.035 A 
ATOM     16  H3  CNE d   1      82.318 -23.781 101.424  0.00  0.00     0.084 H 
ATOM     17  C21 CNE d   1      78.903 -23.535 101.697  0.00  0.00    -0.064 A 
ATOM     18  H2  CNE d   1      78.126 -23.489 102.451  0.00  0.00     0.085 H 
BRANCH  11  19
ATOM     19  O8  CNE d   1      79.399 -23.543  97.932  0.00  0.00    -0.351 OA
BRANCH  19  20
ATOM     20  C30 CNE d   1      79.569 -22.341  97.201  0.00  0.00     0.023 C 
ATOM     21  H9  CNE d   1      80.601 -21.979  97.318  0.00  0.00     0.074 H 
ATOM     22  H10 CNE d   1      78.868 -21.579  97.572  0.00  0.00     0.074 H 
BRANCH  20  23
ATOM     23  C31 CNE d   1      79.285 -22.627  95.715  0.00  0.00    -0.056 C 
ATOM     24  H11 CNE d   1      79.413 -21.703  95.133  0.00  0.00     0.030 H 
ATOM     25  H12 CNE d   1      78.253 -22.991  95.602  0.00  0.00     0.030 H 
ATOM     26  H13 CNE d   1      79.986 -23.391  95.348  0.00  0.00     0.030 H 
ENDBRANCH  20  23
ENDBRANCH  19  20
ENDBRANCH  11  19
BRANCH  15  27
ATOM     27  C26 CNE d   1      80.649 -23.680 103.536  0.00  0.00    -0.067 C 
ATOM     28  C27 CNE d   1      80.100 -22.916 104.512  0.00  0.00    -0.010 C 
ATOM     29  H5  CNE d   1      79.314 -22.208 104.254  0.00  0.00     0.092 H 
ATOM     30  H4  CNE d   1      81.432 -24.380 103.824  0.00  0.00     0.085 H 
BRANCH  28  31
ATOM     31  C28 CNE d   1      80.547 -23.022 105.929  0.00  0.00     0.282 C 
ATOM     32  O6  CNE d   1      80.018 -22.318 106.734  0.00  0.00    -0.260 OA
BRANCH  31  33
ATOM     33  O7  CNE d   1      81.518 -23.887 106.265  0.00  0.00    -0.323 OA
BRANCH  33  34
ATOM     34  C29 CNE d   1      81.953 -23.987 107.633  0.00  0.00     0.013 C 
ATOM     35  H6  CNE d   1      82.749 -24.743 107.710  0.00  0.00     0.067 H 
ATOM     36  H7  CNE d   1      81.104 -24.282 108.267  0.00  0.00     0.067 H 
ATOM     37  H8  CNE d   1      82.339 -23.013 107.967  0.00  0.00     0.067 H 
ENDBRANCH  33  34
ENDBRANCH  31  33
ENDBRANCH  28  31
ENDBRANCH  15  27
ENDBRANCH   7  10
ENDBRANCH   4   7
ENDBRANCH   1   3
BRANCH   1  38
ATOM     38  C13 CNE d   1      74.807 -19.806  98.536  0.00  0.00     0.241 C 
ATOM     39  O4  CNE d   1      74.197 -20.864  98.452  0.00  0.00    -0.271 OA
ATOM     40  N1  CNE d   1      74.242 -18.590  98.475  0.00  0.00    -0.352 N 
ATOM     41  H25 CNE d   1      74.797 -17.763  98.561  0.00  0.00     0.163 HD
BRANCH  40  42
ATOM     42  C10 CNE d   1      72.814 -18.504  98.283  0.00  0.00     0.047 C 
ATOM     43  H26 CNE d   1      72.455 -19.470  97.897  0.00  0.00     0.077 H 
BRANCH  42  44
ATOM     44  C9  CNE d   1      72.381 -17.403  97.253  0.00  0.00     0.063 C 
ATOM     45  H27 CNE d   1      72.652 -16.411  97.643  0.00  0.00     0.087 H 
BRANCH  44  46
ATOM     46  C8  CNE d   1      73.022 -17.590  95.854  0.00  0.00     0.003 C 
ATOM     47  H30 CNE d   1      72.760 -18.588  95.472  0.00  0.00     0.052 H 
ATOM     48  H31 CNE d   1      74.115 -17.508  95.948  0.00  0.00     0.052 H 
BRANCH  46  49
ATOM     49  S1  CNE d   1      72.441 -16.346  94.688  0.00  0.00    -0.162 SA
BRANCH  49  50
ATOM     50  C7  CNE d   1      73.274 -16.740  93.141  0.00  0.00     0.005 C 
ATOM     51  H33 CNE d   1      73.042 -17.777  92.857  0.00  0.00     0.056 H 
ATOM     52  H34 CNE d   1      74.360 -16.631  93.274  0.00  0.00     0.056 H 
BRANCH  50  53
ATOM     53  C6  CNE d   1      72.803 -15.796  92.037  0.00  0.00     0.011 A 
ATOM     54  C5  CNE d   1      72.379 -16.336  90.780  0.00  0.00     0.125 A 
ATOM     55  C4  CNE d   1      71.923 -15.528  89.717  0.00  0.00    -0.045 A 
ATOM     56  F1  CNE d   1      72.392 -17.662  90.561  0.00  0.00    -0.205 F 
ATOM     57  C3  CNE d   1      71.882 -14.123  89.873  0.00  0.00    -0.078 A 
ATOM     58  H35 CNE d   1      71.606 -15.982  88.785  0.00  0.00     0.088 H 
ATOM     59  C2  CNE d   1      72.292 -13.538  91.091  0.00  0.00    -0.061 A 
ATOM     60  H36 CNE d   1      71.536 -13.496  89.059  0.00  0.00     0.083 H 
ATOM     61  C1  CNE d   1      72.749 -14.351  92.159  0.00  0.00     0.044 A 
ATOM     62  H37 CNE d   1      72.257 -12.461  91.210  0.00  0.00     0.086 H 
ATOM     63 CL1  CNE d   1      73.228 -13.488  93.607  0.00  0.00    -0.084 Cl
ENDBRANCH  50  53
ENDBRANCH  49  50
ENDBRANCH  46  49
ENDBRANCH  44  46
BRANCH  44  64
ATOM     64  O1  CNE d   1      70.993 -17.512  97.116  0.00  0.00    -0.393 OA
ATOM     65  H32 CNE d   1      70.776 -18.369  96.769  0.00  0.00     0.210 HD
ENDBRANCH  44  64
ENDBRANCH  42  44
BRANCH  42  66
ATOM     66  C11 CNE d   1      72.199 -18.272  99.708  0.00  0.00     0.037 C 
ATOM     67  H28 CNE d   1      71.897 -17.216  99.778  0.00  0.00     0.052 H 
ATOM     68  H29 CNE d   1      72.982 -18.480 100.452  0.00  0.00     0.052 H 
BRANCH  66  69
ATOM     69  C12 CNE d   1      70.993 -19.125 100.051  0.00  0.00     0.174 C 
ATOM     70  O2  CNE d   1      70.507 -19.049 101.170  0.00  0.00    -0.648 OA
ATOM     71  O3  CNE d   1      70.520 -19.852  99.249  0.00  0.00    -0.648 OA
ENDBRANCH  66  69
ENDBRANCH  42  66
ENDBRANCH  40  42
ENDBRANCH   1  38
BRANCH   1  72
ATOM     72  C15 CNE d   1      76.978 -19.018  97.543  0.00  0.00    -0.033 C 
ATOM     73  H18 CNE d   1      76.578 -17.993  97.531  0.00  0.00     0.042 H 
BRANCH  72  74
ATOM     74  C17 CNE d   1      76.677 -19.644  96.172  0.00  0.00    -0.071 C 
ATOM     75  H19 CNE d   1      77.182 -19.064  95.385  0.00  0.00     0.028 H 
ATOM     76  H20 CNE d   1      75.591 -19.634  95.995  0.00  0.00     0.028 H 
ATOM     77  H21 CNE d   1      77.042 -20.682  96.155  0.00  0.00     0.028 H 
ENDBRANCH  72  74
BRANCH  72  78
ATOM     78  C16 CNE d   1      78.490 -18.935  97.754  0.00  0.00    -0.071 C 
ATOM     79  H22 CNE d   1      78.699 -18.486  98.736  0.00  0.00     0.028 H 
ATOM     80  H23 CNE d   1      78.937 -18.313  96.964  0.00  0.00     0.028 H 
ATOM     81  H24 CNE d   1      78.922 -19.946  97.713  0.00  0.00     0.028 H 
ENDBRANCH  72  78
ENDBRANCH   1  72
TORSDOF 23
