REMARK  16 active torsions:
REMARK  status: ('A' for Active; 'I' for Inactive)
REMARK    1  A    between atoms: C7_7  and  C6_6 
REMARK    2  A    between atoms: S1_8  and  C7_7 
REMARK    3  A    between atoms: C8_9  and  S1_8 
REMARK    4  A    between atoms: C9_10  and  C8_9 
REMARK    5  A    between atoms: C10_11  and  C9_10 
REMARK    6  A    between atoms: C9_10  and  O1_12 
REMARK    7  A    between atoms: N1_13  and  C10_11 
REMARK    8  A    between atoms: C10_11  and  C11_14 
REMARK       I    between atoms: C13_18  and  N1_13 
REMARK    9  A    between atoms: C11_14  and  C12_15 
REMARK   10  A    between atoms: C14_22  and  C13_18 
REMARK   11  A    between atoms: C24_31  and  N3_34 
REMARK       I    between atoms: N3_34  and  C26_35 
REMARK   12  A    between atoms: C26_35  and  C27_36 
REMARK   13  A    between atoms: C27_36  and  N4_38 
REMARK   14  A    between atoms: C27_36  and  C28_42 
REMARK       I    between atoms: N4_38  and  C30_39 
REMARK   15  A    between atoms: C30_39  and  C31_40 
REMARK   16  A    between atoms: C28_42  and  C29_43 
ROOT
ATOM      1  C21 3CY d   1      76.800 -21.077  96.944  0.00  0.00     0.051 A 
ATOM      2  N2  3CY d   1      76.250 -20.824  98.176  0.00  0.00    -0.301 N 
ATOM      3  C14 3CY d   1      75.842 -19.409  98.170  0.00  0.00     0.101 C 
ATOM      4  C15 3CY d   1      76.872 -18.742  97.167  0.00  0.00    -0.011 C 
ATOM      5  C16 3CY d   1      77.193 -19.920  96.325  0.00  0.00    -0.028 A 
ATOM      6  C17 3CY d   1      77.808 -19.954  95.056  0.00  0.00    -0.075 A 
ATOM      7  C18 3CY d   1      78.000 -21.207  94.423  0.00  0.00    -0.082 A 
ATOM      8  C19 3CY d   1      77.574 -22.413  95.056  0.00  0.00    -0.075 A 
ATOM      9  C20 3CY d   1      76.954 -22.379  96.340  0.00  0.00    -0.030 A 
ATOM     10  C22 3CY d   1      76.430 -23.643  97.053  0.00  0.00    -0.037 C 
ATOM     11  C23 3CY d   1      76.662 -23.933  98.553  0.00  0.00    -0.034 C 
ATOM     12  C24 3CY d   1      77.236 -22.790  99.368  0.00  0.00     0.090 C 
ATOM     13  C25 3CY d   1      76.349 -21.531  99.355  0.00  0.00     0.248 C 
ATOM     14  O5  3CY d   1      75.782 -21.193 100.433  0.00  0.00    -0.271 OA
ATOM     15  H16 3CY d   1      75.982 -18.965  99.167  0.00  0.00     0.089 H 
ATOM     16  H17 3CY d   1      77.760 -18.356  97.688  0.00  0.00     0.044 H 
ATOM     17  H18 3CY d   1      76.410 -17.933  96.582  0.00  0.00     0.044 H 
ATOM     18  H19 3CY d   1      78.128 -19.038  94.573  0.00  0.00     0.084 H 
ATOM     19  H20 3CY d   1      78.475 -21.250  93.449  0.00  0.00     0.083 H 
ATOM     20  H21 3CY d   1      77.723 -23.363  94.556  0.00  0.00     0.084 H 
ATOM     21  H22 3CY d   1      76.864 -24.496  96.511  0.00  0.00     0.040 H 
ATOM     22  H23 3CY d   1      75.339 -23.637  96.913  0.00  0.00     0.040 H 
ATOM     23  H24 3CY d   1      77.357 -24.783  98.629  0.00  0.00     0.037 H 
ATOM     24  H25 3CY d   1      75.694 -24.210  98.996  0.00  0.00     0.037 H 
ATOM     25  H26 3CY d   1      78.211 -22.531  98.930  0.00  0.00     0.087 H 
ENDROOT
BRANCH   3  26
ATOM     26  C13 3CY d   1      74.353 -19.307  97.824  0.00  0.00     0.241 C 
ATOM     27  N1  3CY d   1      73.783 -18.142  98.093  0.00  0.00    -0.352 N 
ATOM     28  H13 3CY d   1      74.316 -17.378  98.457  0.00  0.00     0.163 HD
ATOM     29  O4  3CY d   1      73.750 -20.315  97.349  0.00  0.00    -0.271 OA
BRANCH  27  30
ATOM     30  C10 3CY d   1      72.374 -18.013  97.845  0.00  0.00     0.047 C 
ATOM     31  H11 3CY d   1      72.014 -18.990  97.491  0.00  0.00     0.077 H 
BRANCH  30  32
ATOM     32  C9  3CY d   1      71.990 -16.980  96.754  0.00  0.00     0.063 C 
ATOM     33  H10 3CY d   1      72.216 -15.976  97.143  0.00  0.00     0.087 H 
BRANCH  32  34
ATOM     34  C8  3CY d   1      72.744 -17.196  95.422  0.00  0.00     0.003 C 
ATOM     35  H8  3CY d   1      73.822 -17.061  95.597  0.00  0.00     0.052 H 
ATOM     36  H9  3CY d   1      72.555 -18.220  95.067  0.00  0.00     0.052 H 
BRANCH  34  37
ATOM     37  S1  3CY d   1      72.207 -16.031  94.156  0.00  0.00    -0.162 SA
BRANCH  37  38
ATOM     38  C7  3CY d   1      73.170 -16.548  92.727  0.00  0.00     0.001 C 
ATOM     39  H6  3CY d   1      74.237 -16.392  92.942  0.00  0.00     0.056 H 
ATOM     40  H7  3CY d   1      72.986 -17.616  92.541  0.00  0.00     0.056 H 
BRANCH  38  41
ATOM     41  C6  3CY d   1      72.796 -15.756  91.475  0.00  0.00    -0.049 A 
ATOM     42  C1  3CY d   1      73.744 -15.472  90.453  0.00  0.00    -0.076 A 
ATOM     43  C2  3CY d   1      73.365 -14.738  89.295  0.00  0.00    -0.082 A 
ATOM     44  H1  3CY d   1      74.766 -15.819  90.558  0.00  0.00     0.084 H 
ATOM     45  C3  3CY d   1      72.027 -14.277  89.153  0.00  0.00    -0.083 A 
ATOM     46  H2  3CY d   1      74.095 -14.530  88.521  0.00  0.00     0.083 H 
ATOM     47  C4  3CY d   1      71.067 -14.554  90.161  0.00  0.00    -0.082 A 
ATOM     48  H3  3CY d   1      71.740 -13.713  88.273  0.00  0.00     0.083 H 
ATOM     49  C5  3CY d   1      71.452 -15.285  91.311  0.00  0.00    -0.076 A 
ATOM     50  H4  3CY d   1      70.046 -14.208  90.051  0.00  0.00     0.083 H 
ATOM     51  H5  3CY d   1      70.718 -15.492  92.081  0.00  0.00     0.084 H 
ENDBRANCH  38  41
ENDBRANCH  37  38
ENDBRANCH  34  37
ENDBRANCH  32  34
BRANCH  32  52
ATOM     52  O1  3CY d   1      70.748 -17.050  96.440  0.00  0.00    -0.393 OA
ATOM     53  H12 3CY d   1      70.555 -17.919  96.107  0.00  0.00     0.210 HD
ENDBRANCH  32  52
ENDBRANCH  30  32
BRANCH  30  54
ATOM     54  C11 3CY d   1      71.672 -17.707  99.213  0.00  0.00     0.037 C 
ATOM     55  H14 3CY d   1      71.163 -16.736  99.124  0.00  0.00     0.052 H 
ATOM     56  H15 3CY d   1      72.450 -17.644  99.988  0.00  0.00     0.052 H 
BRANCH  54  57
ATOM     57  C12 3CY d   1      70.641 -18.741  99.663  0.00  0.00     0.174 C 
ATOM     58  O2  3CY d   1      70.255 -18.753 100.812  0.00  0.00    -0.648 OA
ATOM     59  O3  3CY d   1      70.209 -19.543  98.881  0.00  0.00    -0.648 OA
ENDBRANCH  54  57
ENDBRANCH  30  54
ENDBRANCH  27  30
ENDBRANCH   3  26
BRANCH  12  60
ATOM     60  N3  3CY d   1      77.438 -23.166 100.770  0.00  0.00    -0.346 N 
ATOM     61  C26 3CY d   1      78.535 -23.826 101.154  0.00  0.00     0.241 C 
ATOM     62  O6  3CY d   1      79.484 -24.197 100.392  0.00  0.00    -0.271 OA
ATOM     63  H27 3CY d   1      76.745 -22.925 101.449  0.00  0.00     0.163 HD
BRANCH  61  64
ATOM     64  C27 3CY d   1      78.619 -24.106 102.662  0.00  0.00     0.098 C 
ATOM     65  H28 3CY d   1      77.628 -23.961 103.118  0.00  0.00     0.088 H 
BRANCH  64  66
ATOM     66  N4  3CY d   1      79.048 -25.500 102.889  0.00  0.00    -0.348 N 
ATOM     67  C30 3CY d   1      78.169 -26.537 102.922  0.00  0.00     0.214 C 
ATOM     68  O9  3CY d   1      76.906 -26.438 102.766  0.00  0.00    -0.274 OA
ATOM     69  H29 3CY d   1      80.021 -25.689 103.023  0.00  0.00     0.163 HD
BRANCH  67  70
ATOM     70  C31 3CY d   1      78.840 -27.894 103.173  0.00  0.00    -0.003 C 
ATOM     71  H30 3CY d   1      78.075 -28.684 103.187  0.00  0.00     0.040 H 
ATOM     72  H31 3CY d   1      79.362 -27.872 104.141  0.00  0.00     0.040 H 
ATOM     73  H32 3CY d   1      79.564 -28.099 102.371  0.00  0.00     0.040 H 
ENDBRANCH  67  70
ENDBRANCH  64  66
BRANCH  64  74
ATOM     74  C28 3CY d   1      79.616 -23.097 103.283  0.00  0.00     0.043 C 
ATOM     75  H33 3CY d   1      79.246 -22.081 103.082  0.00  0.00     0.052 H 
ATOM     76  H34 3CY d   1      80.592 -23.235 102.795  0.00  0.00     0.052 H 
BRANCH  74  77
ATOM     77  C29 3CY d   1      79.812 -23.242 104.786  0.00  0.00     0.175 C 
ATOM     78  O8  3CY d   1      80.934 -23.308 105.241  0.00  0.00    -0.648 OA
ATOM     79  O7  3CY d   1      78.849 -23.280 105.526  0.00  0.00    -0.648 OA
ENDBRANCH  74  77
ENDBRANCH  64  74
ENDBRANCH  61  64
ENDBRANCH  12  60
TORSDOF 16
