REMARK  6 active torsions:
REMARK  status: ('A' for Active; 'I' for Inactive)
REMARK    1  A    between atoms: C1_1  and  O1_7 
REMARK    2  A    between atoms: C2_2  and  O2_8 
REMARK    3  A    between atoms: C3_3  and  O3_9 
REMARK    4  A    between atoms: C4_4  and  O4_10 
REMARK    5  A    between atoms: C5_5  and  C6_6 
REMARK    6  A    between atoms: C6_6  and  O6_12 
ROOT
ATOM      1  C1  MAN d   1      15.493   5.779  24.463  0.00  0.00     0.156 C 
ATOM      2  C2  MAN d   1      16.059   5.319  25.811  0.00  0.00     0.110 C 
ATOM      3  C3  MAN d   1      16.768   6.485  26.476  0.00  0.00     0.092 C 
ATOM      4  C4  MAN d   1      17.841   6.976  25.566  0.00  0.00     0.090 C 
ATOM      5  C5  MAN d   1      17.234   7.358  24.237  0.00  0.00     0.089 C 
ATOM      6  O5  MAN d   1      16.580   6.237  23.665  0.00  0.00    -0.349 OA
ATOM      7  H1  MAN d   1      15.039   4.908  23.968  0.00  0.00     0.133 H 
ATOM      8  H2  MAN d   1      15.221   5.010  26.453  0.00  0.00     0.094 H 
ATOM      9  H3  MAN d   1      16.039   7.294  26.630  0.00  0.00     0.091 H 
ATOM     10  H4  MAN d   1      18.592   6.187  25.416  0.00  0.00     0.091 H 
ATOM     11  H5  MAN d   1      16.500   8.161  24.404  0.00  0.00     0.090 H 
ENDROOT
BRANCH   5  12
ATOM     12  C6  MAN d   1      18.278   7.845  23.264  0.00  0.00     0.043 C 
ATOM     13  H6  MAN d   1      18.932   8.563  23.781  0.00  0.00     0.078 H 
ATOM     14  H7  MAN d   1      17.771   8.347  22.427  0.00  0.00     0.078 H 
BRANCH  12  15
ATOM     15  O6  MAN d   1      19.067   6.810  22.752  0.00  0.00    -0.398 OA
ATOM     16  H12 MAN d   1      19.516   6.373  23.466  0.00  0.00     0.209 HD
ENDBRANCH  12  15
ENDBRANCH   5  12
BRANCH   4  17
ATOM     17  O4  MAN d   1      18.443   8.098  26.145  0.00  0.00    -0.390 OA
ATOM     18  H11 MAN d   1      19.124   8.424  25.568  0.00  0.00     0.210 HD
ENDBRANCH   4  17
BRANCH   3  19
ATOM     19  O3  MAN d   1      17.304   6.131  27.739  0.00  0.00    -0.390 OA
ATOM     20  H10 MAN d   1      17.715   6.892  28.132  0.00  0.00     0.210 HD
ENDBRANCH   3  19
BRANCH   1  21
ATOM     21  O1  MAN d   1      14.473   6.784  24.586  0.00  0.00    -0.369 OA
ATOM     22  H8  MAN d   1      14.841   7.559  24.994  0.00  0.00     0.212 HD
ENDBRANCH   1  21
BRANCH   2  23
ATOM     23  O2  MAN d   1      16.932   4.197  25.654  0.00  0.00    -0.388 OA
ATOM     24  H9  MAN d   1      17.241   3.916  26.507  0.00  0.00     0.210 HD
ENDBRANCH   2  23
TORSDOF 6
