REMARK  13 active torsions:
REMARK  status: ('A' for Active; 'I' for Inactive)
REMARK       I    between atoms: N1_1  and  C4_4 
REMARK    1  A    between atoms: C3_3  and  C8_8 
REMARK    2  A    between atoms: C4_4  and  C9_9 
REMARK       I    between atoms: C8_8  and  N13_13 
REMARK    3  A    between atoms: C9_9  and  C15_15 
REMARK    4  A    between atoms: C9_9  and  N16_16 
REMARK    5  A    between atoms: C12_12  and  O18_18 
REMARK    6  A    between atoms: N13_13  and  C19_19 
REMARK    7  A    between atoms: C15_15  and  C20_20 
REMARK       I    between atoms: N16_16  and  C21_21 
REMARK    8  A    between atoms: C19_19  and  C22_22 
REMARK    9  A    between atoms: C21_21  and  C25_25 
REMARK   10  A    between atoms: C22_22  and  C27_27 
REMARK   11  A    between atoms: C25_25  and  C30_30 
REMARK   12  A    between atoms: C25_25  and  O31_31 
REMARK   13  A    between atoms: C30_30  and  C35_35 
REMARK       I    between atoms: N36_36  and  C40_40 
REMARK       I    between atoms: C40_40  and  N43_43 
ROOT
ATOM      1  N1  OSC d   1      18.405 -13.548  21.865  0.00  0.00    -0.332 N 
ATOM      2  C2  OSC d   1      19.490 -14.384  21.258  0.00  0.00     0.021 C 
ATOM      3  C3  OSC d   1      18.381 -12.247  21.149  0.00  0.00     0.092 C 
ATOM      4  C4  OSC d   1      17.584 -13.915  22.906  0.00  0.00     0.244 C 
ATOM      5  C5  OSC d   1      20.493 -13.319  20.759  0.00  0.00    -0.032 C 
ATOM      6  C6  OSC d   1      18.924 -15.308  20.127  0.00  0.00    -0.022 C 
ATOM      7  C7  OSC d   1      19.520 -12.306  20.109  0.00  0.00    -0.033 C 
ATOM      8  O10 OSC d   1      16.726 -13.146  23.322  0.00  0.00    -0.271 OA
ATOM      9  C11 OSC d   1      21.471 -13.836  19.681  0.00  0.00    -0.058 C 
ATOM     10  C12 OSC d   1      20.035 -15.917  19.243  0.00  0.00     0.037 C 
ATOM     11  C17 OSC d   1      20.840 -14.758  18.594  0.00  0.00    -0.041 C 
ATOM     12  H1  OSC d   1      19.963 -15.020  22.021  0.00  0.00     0.073 H 
ATOM     13  H2  OSC d   1      18.554 -11.425  21.859  0.00  0.00     0.087 H 
ATOM     14  H3  OSC d   1      21.060 -12.880  21.594  0.00  0.00     0.043 H 
ATOM     15  H4  OSC d   1      18.253 -14.713  19.489  0.00  0.00     0.039 H 
ATOM     16  H5  OSC d   1      18.356 -16.127  20.593  0.00  0.00     0.039 H 
ATOM     17  H6  OSC d   1      19.995 -11.322  19.979  0.00  0.00     0.037 H 
ATOM     18  H7  OSC d   1      19.156 -12.669  19.137  0.00  0.00     0.037 H 
ATOM     19  H9  OSC d   1      22.266 -14.403  20.188  0.00  0.00     0.033 H 
ATOM     20  H10 OSC d   1      21.909 -12.964  19.174  0.00  0.00     0.033 H 
ATOM     21  H11 OSC d   1      19.576 -16.529  18.453  0.00  0.00     0.083 H 
ATOM     22  H16 OSC d   1      21.642 -15.182  17.973  0.00  0.00     0.036 H 
ATOM     23  H17 OSC d   1      20.165 -14.161  17.964  0.00  0.00     0.036 H 
ENDROOT
BRANCH   3  24
ATOM     24  C8  OSC d   1      17.069 -12.027  20.446  0.00  0.00     0.240 C 
ATOM     25  N13 OSC d   1      16.595 -10.768  20.288  0.00  0.00    -0.359 N 
ATOM     26  H12 OSC d   1      17.117  -9.994  20.648  0.00  0.00     0.162 HD
ATOM     27  O14 OSC d   1      16.452 -12.984  20.021  0.00  0.00    -0.271 OA
BRANCH  25  28
ATOM     28  C19 OSC d   1      15.324 -10.527  19.595  0.00  0.00    -0.001 C 
ATOM     29  H19 OSC d   1      14.813 -11.487  19.430  0.00  0.00     0.064 H 
ATOM     30  H20 OSC d   1      15.524 -10.046  18.626  0.00  0.00     0.064 H 
BRANCH  28  31
ATOM     31  C22 OSC d   1      14.423  -9.610  20.441  0.00  0.00    -0.025 C 
ATOM     32  H21 OSC d   1      13.696  -9.116  19.779  0.00  0.00     0.042 H 
ATOM     33  H22 OSC d   1      15.049  -8.849  20.930  0.00  0.00     0.042 H 
BRANCH  31  34
ATOM     34  C27 OSC d   1      13.667 -10.386  21.509  0.00  0.00    -0.039 C 
ATOM     35  C32 OSC d   1      13.104  -9.760  22.755  0.00  0.00     0.008 C 
ATOM     36  N36 OSC d   1      12.235 -10.791  23.350  0.00  0.00    -0.169 N 
ATOM     37  H31 OSC d   1      13.297  -8.758  23.136  0.00  0.00     0.114 H 
ATOM     38  C37 OSC d   1      12.632 -12.066  22.722  0.00  0.00     0.002 C 
ATOM     39  C40 OSC d   1      11.262 -10.605  24.304  0.00  0.00     0.675 C 
ATOM     40  C33 OSC d   1      13.400 -11.667  21.492  0.00  0.00    -0.059 C 
ATOM     41  H34 OSC d   1      12.416 -13.074  23.072  0.00  0.00     0.113 H 
ATOM     42  H32 OSC d   1      13.694 -12.350  20.697  0.00  0.00     0.086 H 
ATOM     43  N43 OSC d   1      10.589 -11.687  24.821  0.00  0.00    -0.234 N 
ATOM     44  N44 OSC d   1      10.972  -9.403  24.719  0.00  0.00    -0.234 N 
ATOM     45  H39 OSC d   1       9.860 -11.547  25.535  0.00  0.00     0.174 HD
ATOM     46  H40 OSC d   1      10.813 -12.637  24.494  0.00  0.00     0.174 HD
ATOM     47  H41 OSC d   1      11.474  -8.590  24.334  0.00  0.00     0.174 HD
ATOM     48  H42 OSC d   1      10.241  -9.267  25.432  0.00  0.00     0.174 HD
ENDBRANCH  31  34
ENDBRANCH  28  31
ENDBRANCH  25  28
ENDBRANCH   3  24
BRANCH   4  49
ATOM     49  C9  OSC d   1      17.736 -15.277  23.556  0.00  0.00     0.093 C 
ATOM     50  H8  OSC d   1      18.497 -15.851  23.007  0.00  0.00     0.088 H 
BRANCH  49  51
ATOM     51  C15 OSC d   1      18.188 -15.147  25.026  0.00  0.00    -0.014 C 
ATOM     52  H13 OSC d   1      18.100 -16.125  25.522  0.00  0.00     0.043 H 
ATOM     53  H14 OSC d   1      17.547 -14.416  25.541  0.00  0.00     0.043 H 
BRANCH  51  54
ATOM     54  C20 OSC d   1      19.635 -14.680  25.088  0.00  0.00    -0.056 A 
ATOM     55  C23 OSC d   1      19.947 -13.418  25.640  0.00  0.00    -0.077 A 
ATOM     56  C28 OSC d   1      21.289 -12.979  25.694  0.00  0.00    -0.082 A 
ATOM     57  H23 OSC d   1      19.155 -12.785  26.023  0.00  0.00     0.084 H 
ATOM     58  C34 OSC d   1      22.321 -13.801  25.195  0.00  0.00    -0.083 A 
ATOM     59  H26 OSC d   1      21.526 -12.010  26.119  0.00  0.00     0.083 H 
ATOM     60  C29 OSC d   1      22.016 -15.064  24.643  0.00  0.00    -0.082 A 
ATOM     61  H33 OSC d   1      23.350 -13.462  25.235  0.00  0.00     0.083 H 
ATOM     62  C24 OSC d   1      20.678 -15.505  24.588  0.00  0.00    -0.077 A 
ATOM     63  H27 OSC d   1      22.811 -15.695  24.261  0.00  0.00     0.083 H 
ATOM     64  H24 OSC d   1      20.445 -16.475  24.164  0.00  0.00     0.084 H 
ENDBRANCH  51  54
ENDBRANCH  49  51
BRANCH  49  65
ATOM     65  N16 OSC d   1      16.458 -15.976  23.466  0.00  0.00    -0.345 N 
ATOM     66  C21 OSC d   1      16.359 -17.146  22.783  0.00  0.00     0.247 C 
ATOM     67  O26 OSC d   1      17.337 -17.639  22.238  0.00  0.00    -0.271 OA
ATOM     68  H15 OSC d   1      15.649 -15.591  23.910  0.00  0.00     0.163 HD
BRANCH  66  69
ATOM     69  C25 OSC d   1      15.027 -17.834  22.689  0.00  0.00     0.116 C 
ATOM     70  H25 OSC d   1      14.920 -18.269  21.684  0.00  0.00     0.098 H 
BRANCH  69  71
ATOM     71  C30 OSC d   1      14.920 -18.958  23.730  0.00  0.00    -0.009 C 
ATOM     72  H28 OSC d   1      14.759 -18.524  24.728  0.00  0.00     0.044 H 
ATOM     73  H29 OSC d   1      15.848 -19.549  23.733  0.00  0.00     0.044 H 
BRANCH  71  74
ATOM     74  C35 OSC d   1      13.751 -19.849  23.369  0.00  0.00    -0.055 A 
ATOM     75  C38 OSC d   1      13.923 -20.932  22.474  0.00  0.00    -0.077 A 
ATOM     76  C41 OSC d   1      12.823 -21.755  22.141  0.00  0.00    -0.082 A 
ATOM     77  H35 OSC d   1      14.898 -21.130  22.044  0.00  0.00     0.084 H 
ATOM     78  C45 OSC d   1      11.554 -21.492  22.702  0.00  0.00    -0.083 A 
ATOM     79  H37 OSC d   1      12.953 -22.586  21.457  0.00  0.00     0.083 H 
ATOM     80  C42 OSC d   1      11.385 -20.415  23.593  0.00  0.00    -0.082 A 
ATOM     81  H43 OSC d   1      10.709 -22.120  22.446  0.00  0.00     0.083 H 
ATOM     82  C39 OSC d   1      12.483 -19.595  23.925  0.00  0.00    -0.077 A 
ATOM     83  H38 OSC d   1      10.410 -20.216  24.024  0.00  0.00     0.083 H 
ATOM     84  H36 OSC d   1      12.350 -18.766  24.611  0.00  0.00     0.084 H 
ENDBRANCH  71  74
ENDBRANCH  69  71
BRANCH  69  85
ATOM     85  O31 OSC d   1      13.984 -16.874  22.899  0.00  0.00    -0.386 OA
ATOM     86  H30 OSC d   1      14.057 -16.182  22.252  0.00  0.00     0.210 HD
ENDBRANCH  69  85
ENDBRANCH  66  69
ENDBRANCH  49  65
ENDBRANCH   4  49
BRANCH  10  87
ATOM     87  O18 OSC d   1      20.903 -16.743  20.027  0.00  0.00    -0.396 OA
ATOM     88  H18 OSC d   1      20.400 -17.447  20.418  0.00  0.00     0.210 HD
ENDBRANCH  10  87
TORSDOF 13
