REMARK WARNING: 32 MAX_TORS EXCEEDED!!!
REMARK  35 active torsions:
REMARK  status: ('A' for Active; 'I' for Inactive)
REMARK    1  A    between atoms: N_1  and  CA_2 
REMARK    2  A    between atoms: CA_2  and  C_3 
REMARK    3  A    between atoms: CA_2  and  CB_5 
REMARK       I    between atoms: C_3  and  N_27 
REMARK    4  A    between atoms: CB_5  and  CG_6 
REMARK    5  A    between atoms: CG_6  and  CD_7 
REMARK    6  A    between atoms: CD_7  and  NE_8 
REMARK       I    between atoms: NE_8  and  CZ_9 
REMARK       I    between atoms: CZ_9  and  NH1_10 
REMARK       I    between atoms: CZ_9  and  NH2_11 
REMARK    7  A    between atoms: N_27  and  CA_28 
REMARK    8  A    between atoms: CA_28  and  C_29 
REMARK    9  A    between atoms: CA_28  and  CB_31 
REMARK       I    between atoms: C_29  and  N_37 
REMARK   10  A    between atoms: N_37  and  CA_38 
REMARK   11  A    between atoms: CA_38  and  C_39 
REMARK   12  A    between atoms: CA_38  and  CB_41 
REMARK       I    between atoms: C_39  and  N_56 
REMARK   13  A    between atoms: CB_41  and  CG_42 
REMARK   14  A    between atoms: CG_42  and  CD1_43 
REMARK   15  A    between atoms: CG_42  and  CD2_44 
REMARK   16  A    between atoms: CA_57  and  C_58 
REMARK       I    between atoms: C_58  and  N_70 
REMARK   17  A    between atoms: CA_71  and  C_72 
REMARK       I    between atoms: C_72  and  N_84 
REMARK   18  A    between atoms: N_84  and  CA_85 
REMARK   19  A    between atoms: CA_85  and  C_86 
REMARK   20  A    between atoms: CA_85  and  CB_88 
REMARK       I    between atoms: C_86  and  N_103 
REMARK   21  A    between atoms: CB_88  and  CG_89 
REMARK   22  A    between atoms: CG_89  and  CD1_90 
REMARK   23  A    between atoms: CG_89  and  CD2_91 
REMARK   24  A    between atoms: CA_104  and  C_105 
REMARK       I    between atoms: C_105  and  N_117 
REMARK   25  A    between atoms: N_117  and  CA_118 
REMARK   26  A    between atoms: CA_118  and  C_119 
REMARK   27  A    between atoms: CA_118  and  CB_121 
REMARK       I    between atoms: C_119  and  N_141 
REMARK   28  A    between atoms: CB_121  and  CG_122 
REMARK   29  A    between atoms: CG_122  and  CD_123 
REMARK   30  A    between atoms: CD_123  and  NE_124 
REMARK       I    between atoms: NE_124  and  CZ_125 
REMARK       I    between atoms: CZ_125  and  NH1_126 
REMARK   31  A    between atoms: N_141  and  CA_142 
REMARK   32  A    between atoms: CA_142  and  C_143 
REMARK   33  A    between atoms: CA_142  and  CB_145 
REMARK   34  A    between atoms: CB_145  and  CG_146 
REMARK   35  A    between atoms: CZ_151  and  OH_152 
ROOT
ATOM      1  C   PRO d   1       3.452   0.097  -3.502  0.00  0.00     0.243 C 
ATOM      2  O   PRO d   1       3.351  -0.886  -4.210  0.00  0.00    -0.271 OA
ATOM      3  N   PRO d   1       2.811   0.243  -2.368  0.00  0.00    -0.337 N 
ATOM      4  CA  PRO d   1       1.898  -0.789  -1.846  0.00  0.00     0.091 A 
ATOM      5  CB  PRO d   1       1.424  -0.249  -0.491  0.00  0.00    -0.036 A 
ATOM      6  CG  PRO d   1       2.066   1.148  -0.290  0.00  0.00    -0.048 A 
ATOM      7  CD  PRO d   1       2.949   1.437  -1.515  0.00  0.00    -0.001 A 
ATOM      8  H39 PRO d   1       2.422  -1.748  -1.721  0.00  0.00     0.087 H 
ATOM      9  H40 PRO d   1       1.742  -0.927   0.315  0.00  0.00     0.036 H 
ATOM     10  H41 PRO d   1       0.328  -0.162  -0.485  0.00  0.00     0.036 H 
ATOM     11  H42 PRO d   1       2.679   1.151   0.623  0.00  0.00     0.035 H 
ATOM     12  H43 PRO d   1       1.280   1.913  -0.206  0.00  0.00     0.035 H 
ATOM     13  H44 PRO d   1       2.596   2.334  -2.044  0.00  0.00     0.064 H 
ATOM     14  H45 PRO d   1       3.997   1.578  -1.213  0.00  0.00     0.064 H 
ENDROOT
BRANCH   4  15
ATOM     15  C   PRO d   1       0.710  -0.969  -2.795  0.00  0.00     0.241 C 
ATOM     16  O   PRO d   1       0.192  -0.017  -3.345  0.00  0.00    -0.271 OA
ATOM     17  N   LEU d   1       0.276  -2.183  -2.992  0.00  0.00    -0.346 N 
ATOM     18  H46 LEU d   1       0.717  -2.953  -2.531  0.00  0.00     0.163 HD
BRANCH  17  19
ATOM     19  CA  LEU d   1      -0.877  -2.422  -3.905  0.00  0.00     0.090 C 
ATOM     20  H47 LEU d   1      -0.650  -2.013  -4.901  0.00  0.00     0.087 H 
BRANCH  19  21
ATOM     21  C   LEU d   1      -2.123  -1.730  -3.340  0.00  0.00     0.243 C 
ATOM     22  O   LEU d   1      -2.174  -1.413  -2.169  0.00  0.00    -0.271 OA
ATOM     23  N   PRO d   1      -3.093  -1.514  -4.195  0.00  0.00    -0.337 N 
ATOM     24  CA  PRO d   1      -4.353  -0.858  -3.800  0.00  0.00     0.091 A 
ATOM     25  CD  PRO d   1      -3.013  -1.906  -5.615  0.00  0.00    -0.001 A 
ATOM     26  CB  PRO d   1      -5.219  -0.875  -5.067  0.00  0.00    -0.036 A 
ATOM     27  H57 PRO d   1      -4.167   0.175  -3.472  0.00  0.00     0.087 H 
ATOM     28  CG  PRO d   1      -4.374  -1.503  -6.207  0.00  0.00    -0.048 A 
ATOM     29  H58 PRO d   1      -5.508   0.151  -5.337  0.00  0.00     0.036 H 
ATOM     30  H59 PRO d   1      -6.123  -1.478  -4.895  0.00  0.00     0.036 H 
ATOM     31  H60 PRO d   1      -4.229  -0.769  -7.013  0.00  0.00     0.035 H 
ATOM     32  H61 PRO d   1      -4.886  -2.391  -6.607  0.00  0.00     0.035 H 
ATOM     33  H62 PRO d   1      -2.854  -2.990  -5.710  0.00  0.00     0.064 H 
ATOM     34  H63 PRO d   1      -2.196  -1.370  -6.120  0.00  0.00     0.064 H 
BRANCH  24  35
ATOM     35  C   PRO d   1      -5.029  -1.640  -2.670  0.00  0.00     0.241 C 
ATOM     36  O   PRO d   1      -4.590  -2.709  -2.294  0.00  0.00    -0.271 OA
ATOM     37  N   ARG d   1      -6.093  -1.115  -2.123  0.00  0.00    -0.346 N 
ATOM     38  H64 ARG d   1      -6.439  -0.234  -2.445  0.00  0.00     0.163 HD
BRANCH  37  39
ATOM     39  CA  ARG d   1      -6.790  -1.832  -1.018  0.00  0.00     0.089 C 
ATOM     40  H65 ARG d   1      -6.209  -1.724  -0.090  0.00  0.00     0.087 H 
BRANCH  39  41
ATOM     41  C   ARG d   1      -6.915  -3.315  -1.371  0.00  0.00     0.241 C 
ATOM     42  O   ARG d   1      -7.459  -3.676  -2.396  0.00  0.00    -0.271 OA
ATOM     43  N   TYR d   1      -6.415  -4.177  -0.529  0.00  0.00    -0.344 N 
ATOM     44  H77 TYR d   1      -5.972  -3.858   0.309  0.00  0.00     0.163 HD
BRANCH  43  45
ATOM     45  CA  TYR d   1      -6.504  -5.636  -0.816  0.00  0.00     0.100 C 
ATOM     46  H78 TYR d   1      -7.449  -5.851  -1.336  0.00  0.00     0.090 H 
BRANCH  45  47
ATOM     47  C   TYR d   1      -6.456  -6.416   0.499  0.00  0.00     0.197 C 
ATOM     48  O   TYR d   1      -6.676  -7.616   0.462  0.00  0.00    -0.646 OA
ATOM     49  OXT TYR d   1      -6.199  -5.801   1.520  0.00  0.00    -0.646 OA
ENDBRANCH  45  47
BRANCH  45  50
ATOM     50  CB  TYR d   1      -5.329  -6.055  -1.702  0.00  0.00    -0.013 C 
ATOM     51  H79 TYR d   1      -4.882  -6.978  -1.305  0.00  0.00     0.043 H 
ATOM     52  H80 TYR d   1      -4.573  -5.256  -1.711  0.00  0.00     0.043 H 
BRANCH  50  53
ATOM     53  CG  TYR d   1      -5.827  -6.301  -3.127  0.00  0.00    -0.056 A 
ATOM     54  CD1 TYR d   1      -6.043  -5.242  -3.987  0.00  0.00    -0.074 A 
ATOM     55  CE1 TYR d   1      -6.493  -5.465  -5.272  0.00  0.00    -0.051 A 
ATOM     56  H81 TYR d   1      -5.858  -4.229  -3.650  0.00  0.00     0.084 H 
ATOM     57  CZ  TYR d   1      -6.735  -6.748  -5.718  0.00  0.00     0.065 A 
ATOM     58  H83 TYR d   1      -6.658  -4.625  -5.937  0.00  0.00     0.087 H 
ATOM     59  CE2 TYR d   1      -6.520  -7.806  -4.858  0.00  0.00    -0.051 A 
ATOM     60  CD2 TYR d   1      -6.069  -7.584  -3.573  0.00  0.00    -0.074 A 
ATOM     61  H84 TYR d   1      -6.707  -8.819  -5.195  0.00  0.00     0.087 H 
ATOM     62  H82 TYR d   1      -5.904  -8.424  -2.909  0.00  0.00     0.084 H 
BRANCH  57  63
ATOM     63  OH  TYR d   1      -7.184  -6.970  -7.003  0.00  0.00    -0.361 OA
ATOM     64  H85 TYR d   1      -7.277  -6.138  -7.453  0.00  0.00     0.217 HD
ENDBRANCH  57  63
ENDBRANCH  50  53
ENDBRANCH  45  50
ENDBRANCH  43  45
ENDBRANCH  39  41
BRANCH  39  65
ATOM     65  CB  ARG d   1      -8.186  -1.238  -0.815  0.00  0.00    -0.036 C 
ATOM     66  H66 ARG d   1      -8.877  -1.661  -1.558  0.00  0.00     0.036 H 
ATOM     67  H67 ARG d   1      -8.142  -0.145  -0.935  0.00  0.00     0.036 H 
BRANCH  65  68
ATOM     68  CG  ARG d   1      -8.678  -1.579   0.594  0.00  0.00    -0.048 C 
ATOM     69  H68 ARG d   1      -8.352  -0.795   1.294  0.00  0.00     0.035 H 
ATOM     70  H69 ARG d   1      -8.255  -2.546   0.904  0.00  0.00     0.035 H 
BRANCH  68  71
ATOM     71  CD  ARG d   1     -10.206  -1.667   0.606  0.00  0.00     0.009 C 
ATOM     72  H70 ARG d   1     -10.546  -1.988   1.602  0.00  0.00     0.064 H 
ATOM     73  H71 ARG d   1     -10.537  -2.397  -0.147  0.00  0.00     0.064 H 
BRANCH  71  74
ATOM     74  NE  ARG d   1     -10.788  -0.328   0.289  0.00  0.00    -0.227 N 
ATOM     75  CZ  ARG d   1     -11.208  -0.038  -0.919  0.00  0.00     0.665 C 
ATOM     76  NH1 ARG d   1     -11.109  -0.903  -1.896  0.00  0.00    -0.235 N 
ATOM     77  NH2 ARG d   1     -11.726   1.137  -1.153  0.00  0.00    -0.235 N 
ATOM     78  H73 ARG d   1     -11.445  -0.656  -2.838  0.00  0.00     0.174 HD
ATOM     79  H74 ARG d   1     -10.695  -1.830  -1.723  0.00  0.00     0.174 HD
ATOM     80  H75 ARG d   1     -11.808   1.825  -0.391  0.00  0.00     0.174 HD
ATOM     81  H76 ARG d   1     -12.053   1.377  -2.100  0.00  0.00     0.174 HD
ATOM     82  H72 ARG d   1     -10.861   0.381   1.033  0.00  0.00     0.177 HD
ENDBRANCH  71  74
ENDBRANCH  68  71
ENDBRANCH  65  68
ENDBRANCH  39  65
ENDBRANCH  37  39
ENDBRANCH  24  35
ENDBRANCH  19  21
BRANCH  19  83
ATOM     83  CB  LEU d   1      -1.130  -3.926  -4.016  0.00  0.00    -0.035 C 
ATOM     84  H48 LEU d   1      -2.131  -4.100  -4.437  0.00  0.00     0.037 H 
ATOM     85  H49 LEU d   1      -1.068  -4.383  -3.018  0.00  0.00     0.037 H 
BRANCH  83  86
ATOM     86  CG  LEU d   1      -0.075  -4.552  -4.931  0.00  0.00    -0.059 C 
ATOM     87  H50 LEU d   1       0.929  -4.319  -4.546  0.00  0.00     0.038 H 
BRANCH  86  88
ATOM     88  CD1 LEU d   1      -0.267  -6.069  -4.968  0.00  0.00    -0.073 C 
ATOM     89  H51 LEU d   1       0.491  -6.519  -5.626  0.00  0.00     0.028 H 
ATOM     90  H52 LEU d   1      -1.271  -6.302  -5.353  0.00  0.00     0.028 H 
ATOM     91  H53 LEU d   1      -0.160  -6.477  -3.952  0.00  0.00     0.028 H 
ENDBRANCH  86  88
BRANCH  86  92
ATOM     92  CD2 LEU d   1      -0.224  -3.984  -6.344  0.00  0.00    -0.073 C 
ATOM     93  H54 LEU d   1      -0.086  -2.893  -6.317  0.00  0.00     0.028 H 
ATOM     94  H55 LEU d   1      -1.228  -4.217  -6.729  0.00  0.00     0.028 H 
ATOM     95  H56 LEU d   1       0.534  -4.434  -7.002  0.00  0.00     0.028 H 
ENDBRANCH  86  92
ENDBRANCH  83  86
ENDBRANCH  19  83
ENDBRANCH  17  19
ENDBRANCH   4  15
BRANCH   1  96
ATOM     96  CA  PRO d   1       4.368   1.258  -3.913  0.00  0.00     0.092 A 
ATOM     97  N   PRO d   1       5.615   0.739  -4.501  0.00  0.00    -0.337 N 
ATOM     98  C   LEU d   1       6.468   0.023  -3.811  0.00  0.00     0.243 C 
ATOM     99  CD  PRO d   1       5.827   1.087  -5.918  0.00  0.00    -0.001 A 
ATOM    100  O   LEU d   1       6.309  -0.275  -2.643  0.00  0.00    -0.271 OA
ATOM    101  CG  PRO d   1       4.609   1.947  -6.293  0.00  0.00    -0.048 A 
ATOM    102  H37 PRO d   1       5.868   0.180  -6.539  0.00  0.00     0.064 H 
ATOM    103  H38 PRO d   1       6.759   1.658  -6.042  0.00  0.00     0.064 H 
ATOM    104  CB  PRO d   1       3.721   2.082  -5.028  0.00  0.00    -0.036 A 
ATOM    105  H35 PRO d   1       4.941   2.942  -6.626  0.00  0.00     0.035 H 
ATOM    106  H36 PRO d   1       4.041   1.461  -7.100  0.00  0.00     0.035 H 
ATOM    107  H33 PRO d   1       3.659   3.138  -4.725  0.00  0.00     0.036 H 
ATOM    108  H34 PRO d   1       2.711   1.700  -5.237  0.00  0.00     0.036 H 
ATOM    109  H32 PRO d   1       4.582   1.888  -3.037  0.00  0.00     0.087 H 
BRANCH  98 110
ATOM    110  CA  LEU d   1       7.716  -0.440  -4.570  0.00  0.00     0.090 C 
ATOM    111  H22 LEU d   1       8.078   0.376  -5.213  0.00  0.00     0.087 H 
BRANCH 110 112
ATOM    112  N   LEU d   1       8.779  -0.814  -3.595  0.00  0.00    -0.346 N 
ATOM    113  C   ALA d   1       9.327   0.101  -2.842  0.00  0.00     0.240 C 
ATOM    114  O   ALA d   1       8.986   1.265  -2.916  0.00  0.00    -0.271 OA
ATOM    115  H21 LEU d   1       9.073  -1.767  -3.517  0.00  0.00     0.163 HD
BRANCH 113 116
ATOM    116  CA  ALA d   1      10.413  -0.349  -1.862  0.00  0.00     0.086 C 
ATOM    117  H17 ALA d   1      10.939  -1.223  -2.273  0.00  0.00     0.086 H 
BRANCH 116 118
ATOM    118  N   ALA d   1      11.384   0.761  -1.652  0.00  0.00    -0.346 N 
ATOM    119  C   ARG d   1      11.978   1.313  -2.675  0.00  0.00     0.248 C 
ATOM    120  O   ARG d   1      11.757   0.940  -3.810  0.00  0.00    -0.271 OA
ATOM    121  H16 ALA d   1      11.581   1.084  -0.726  0.00  0.00     0.163 HD
BRANCH 119 122
ATOM    122  CA  ARG d   1      12.964   2.447  -2.390  0.00  0.00     0.176 C 
ATOM    123  H4  ARG d   1      12.552   3.103  -1.609  0.00  0.00     0.099 H 
BRANCH 122 124
ATOM    124  N   ARG d   1      14.259   1.874  -1.926  0.00  0.00    -0.067 N 
ATOM    125  H1  ARG d   1      14.909   2.621  -1.738  0.00  0.00     0.275 HD
ATOM    126  H2  ARG d   1      14.636   1.273  -2.642  0.00  0.00     0.275 HD
ATOM    127  H3  ARG d   1      14.108   1.341  -1.084  0.00  0.00     0.275 HD
ENDBRANCH 122 124
BRANCH 122 128
ATOM    128  CB  ARG d   1      13.194   3.259  -3.667  0.00  0.00    -0.029 C 
ATOM    129  H5  ARG d   1      13.060   2.609  -4.544  0.00  0.00     0.036 H 
ATOM    130  H6  ARG d   1      14.216   3.665  -3.664  0.00  0.00     0.036 H 
BRANCH 128 131
ATOM    131  CG  ARG d   1      12.188   4.410  -3.727  0.00  0.00    -0.047 C 
ATOM    132  H7  ARG d   1      11.166   4.006  -3.692  0.00  0.00     0.035 H 
ATOM    133  H8  ARG d   1      12.328   4.971  -4.662  0.00  0.00     0.035 H 
BRANCH 131 134
ATOM    134  CD  ARG d   1      12.409   5.343  -2.534  0.00  0.00     0.009 C 
ATOM    135  H9  ARG d   1      13.311   5.032  -1.987  0.00  0.00     0.064 H 
ATOM    136  H10 ARG d   1      11.539   5.293  -1.863  0.00  0.00     0.064 H 
BRANCH 134 137
ATOM    137  NE  ARG d   1      12.581   6.740  -3.022  0.00  0.00    -0.227 N 
ATOM    138  CZ  ARG d   1      11.544   7.429  -3.420  0.00  0.00     0.665 C 
ATOM    139  NH1 ARG d   1      10.352   6.896  -3.390  0.00  0.00    -0.235 N 
ATOM    140  NH2 ARG d   1      11.699   8.651  -3.848  0.00  0.00    -0.235 N 
ATOM    141  H12 ARG d   1       9.536   7.441  -3.704  0.00  0.00     0.174 HD
ATOM    142  H13 ARG d   1      10.228   5.931  -3.052  0.00  0.00     0.174 HD
ATOM    143  H14 ARG d   1      12.638   9.073  -3.872  0.00  0.00     0.174 HD
ATOM    144  H15 ARG d   1      10.882   9.194  -4.162  0.00  0.00     0.174 HD
ATOM    145  H11 ARG d   1      13.519   7.164  -3.046  0.00  0.00     0.177 HD
ENDBRANCH 134 137
ENDBRANCH 131 134
ENDBRANCH 128 131
ENDBRANCH 122 128
ENDBRANCH 119 122
ENDBRANCH 116 118
BRANCH 116 146
ATOM    146  CB  ALA d   1       9.769  -0.723  -0.525  0.00  0.00    -0.049 C 
ATOM    147  H18 ALA d   1       9.052  -1.543  -0.680  0.00  0.00     0.030 H 
ATOM    148  H19 ALA d   1       9.243   0.151  -0.114  0.00  0.00     0.030 H 
ATOM    149  H20 ALA d   1      10.549  -1.047   0.180  0.00  0.00     0.030 H 
ENDBRANCH 116 146
ENDBRANCH 113 116
ENDBRANCH 110 112
BRANCH 110 150
ATOM    150  CB  LEU d   1       7.368  -1.654  -5.434  0.00  0.00    -0.035 C 
ATOM    151  H23 LEU d   1       6.402  -1.484  -5.933  0.00  0.00     0.037 H 
ATOM    152  H24 LEU d   1       7.300  -2.549  -4.798  0.00  0.00     0.037 H 
BRANCH 150 153
ATOM    153  CG  LEU d   1       8.458  -1.858  -6.488  0.00  0.00    -0.059 C 
ATOM    154  H25 LEU d   1       9.424  -1.516  -6.088  0.00  0.00     0.038 H 
BRANCH 153 155
ATOM    155  CD1 LEU d   1       8.551  -3.343  -6.845  0.00  0.00    -0.073 C 
ATOM    156  H26 LEU d   1       9.335  -3.490  -7.603  0.00  0.00     0.028 H 
ATOM    157  H27 LEU d   1       7.585  -3.685  -7.245  0.00  0.00     0.028 H 
ATOM    158  H28 LEU d   1       8.800  -3.922  -5.944  0.00  0.00     0.028 H 
ENDBRANCH 153 155
BRANCH 153 159
ATOM    159  CD2 LEU d   1       8.112  -1.053  -7.742  0.00  0.00    -0.073 C 
ATOM    160  H29 LEU d   1       8.045   0.015  -7.486  0.00  0.00     0.028 H 
ATOM    161  H30 LEU d   1       7.146  -1.395  -8.143  0.00  0.00     0.028 H 
ATOM    162  H31 LEU d   1       8.896  -1.200  -8.500  0.00  0.00     0.028 H 
ENDBRANCH 153 159
ENDBRANCH 150 153
ENDBRANCH 110 150
ENDBRANCH  98 110
ENDBRANCH   1  96
TORSDOF 35
