REMARK  18 active torsions:
REMARK  status: ('A' for Active; 'I' for Inactive)
REMARK    1  A    between atoms: C5A_1  and  N5A_8 
REMARK    2  A    between atoms: C4A_2  and  O4A_7 
REMARK    3  A    between atoms: C2A_3  and  C1A_15 
REMARK    4  A    between atoms: O1A_18  and  C2A_3 
REMARK    5  A    between atoms: C6A_5  and  C7A_9 
REMARK       I    between atoms: N5A_8  and  C10_39 
REMARK    6  A    between atoms: C7A_9  and  C8A_10 
REMARK    7  A    between atoms: C7A_9  and  O7A_14 
REMARK    8  A    between atoms: C8A_10  and  C9A_11 
REMARK    9  A    between atoms: C8A_10  and  O8A_13 
REMARK   10  A    between atoms: C9A_11  and  O9A_12 
REMARK   11  A    between atoms: PA_31  and  O1A_18 
REMARK   12  A    between atoms: C28_28  and  N1_20 
REMARK   13  A    between atoms: C26_26  and  O34_34 
REMARK   14  A    between atoms: C27_27  and  O35_35 
REMARK   15  A    between atoms: C33_33  and  C30_30 
REMARK   16  A    between atoms: O32_32  and  PA_31 
REMARK   17  A    between atoms: O32_32  and  C33_33 
REMARK   18  A    between atoms: C10_39  and  C11_41 
ROOT
ATOM      1  C5A CSF d   1      22.077  -5.518  11.477  0.00  0.00     0.067 C 
ATOM      2  C4A CSF d   1      21.997  -4.022  11.188  0.00  0.00     0.092 C 
ATOM      3  C2A CSF d   1      20.749  -3.758  13.493  0.00  0.00     0.299 C 
ATOM      4  O6A CSF d   1      21.441  -4.983  13.835  0.00  0.00    -0.334 OA
ATOM      5  C6A CSF d   1      22.411  -5.659  12.988  0.00  0.00     0.091 C 
ATOM      6  C3A CSF d   1      20.881  -3.279  12.016  0.00  0.00     0.170 C 
ATOM      7  F3A CSF d   1      19.654  -3.712  11.591  0.00  0.00    -0.240 F 
ATOM      8  H1  CSF d   1      21.097  -5.967  11.259  0.00  0.00     0.080 H 
ATOM      9  H2  CSF d   1      22.969  -3.554  11.404  0.00  0.00     0.091 H 
ATOM     10  H3  CSF d   1      23.409  -5.217  13.122  0.00  0.00     0.090 H 
ATOM     11  H4  CSF d   1      21.015  -2.190  11.939  0.00  0.00     0.105 H 
ENDROOT
BRANCH   3  12
ATOM     12  C1A CSF d   1      19.775  -3.108  14.355  0.00  0.00     0.242 C 
ATOM     13  OBA CSF d   1      19.349  -1.847  14.100  0.00  0.00    -0.644 OA
ATOM     14  OAA CSF d   1      19.348  -3.751  15.265  0.00  0.00    -0.644 OA
ENDBRANCH   3  12
BRANCH   3  15
ATOM     15  O1A CSF d   1      21.864  -2.854  13.965  0.00  0.00    -0.238 OA
BRANCH  15  16
ATOM     16  PA  CSF d   1      23.459  -2.690  14.377  0.00  0.00     0.411 P 
ATOM     17  O2A CSF d   1      24.426  -2.900  13.269  0.00  0.00    -0.624 OA
ATOM     18  O3A CSF d   1      23.820  -3.633  15.351  0.00  0.00    -0.624 OA
BRANCH  16  19
ATOM     19  O32 CSF d   1      24.028  -1.367  15.010  0.00  0.00    -0.287 OA
BRANCH  19  20
ATOM     20  C33 CSF d   1      23.244  -0.898  16.127  0.00  0.00     0.058 C 
ATOM     21  H20 CSF d   1      22.416  -1.602  16.295  0.00  0.00     0.079 H 
ATOM     22  H21 CSF d   1      23.887  -0.868  17.019  0.00  0.00     0.079 H 
BRANCH  20  23
ATOM     23  C30 CSF d   1      22.685   0.440  15.907  0.00  0.00     0.089 C 
ATOM     24  C26 CSF d   1      21.791   0.538  14.654  0.00  0.00     0.091 C 
ATOM     25  C27 CSF d   1      22.002   1.964  14.231  0.00  0.00     0.105 C 
ATOM     26  H16 CSF d   1      22.094  -0.167  13.866  0.00  0.00     0.091 H 
ATOM     27  C28 CSF d   1      23.419   2.311  14.662  0.00  0.00     0.141 C 
ATOM     28  H17 CSF d   1      21.873   2.063  13.143  0.00  0.00     0.093 H 
ATOM     29  O29 CSF d   1      23.782   1.349  15.683  0.00  0.00    -0.353 OA
ATOM     30  H18 CSF d   1      23.377   3.309  15.122  0.00  0.00     0.123 H 
ATOM     31  H19 CSF d   1      22.108   0.739  16.794  0.00  0.00     0.090 H 
BRANCH  24  32
ATOM     32  O34 CSF d   1      20.440   0.287  15.054  0.00  0.00    -0.390 OA
ATOM     33  H22 CSF d   1      20.380  -0.582  15.434  0.00  0.00     0.210 HD
ENDBRANCH  24  32
BRANCH  25  34
ATOM     34  O35 CSF d   1      21.132   2.885  14.920  0.00  0.00    -0.388 OA
ATOM     35  H23 CSF d   1      20.230   2.706  14.681  0.00  0.00     0.210 HD
ENDBRANCH  25  34
BRANCH  27  36
ATOM     36  N1  CSF d   1      24.528   2.384  13.573  0.00  0.00    -0.278 N 
ATOM     37  C2  CSF d   1      24.451   3.481  12.614  0.00  0.00     0.352 A 
ATOM     38  N3  CSF d   1      25.506   3.544  11.596  0.00  0.00    -0.177 NA
ATOM     39  O2  CSF d   1      23.518   4.369  12.630  0.00  0.00    -0.244 OA
ATOM     40  C4  CSF d   1      26.547   2.595  11.537  0.00  0.00     0.128 A 
ATOM     41  C5  CSF d   1      26.633   1.446  12.532  0.00  0.00    -0.024 A 
ATOM     42  N4  CSF d   1      27.447   2.714  10.607  0.00  0.00    -0.384 N 
ATOM     43  C6  CSF d   1      25.616   1.412  13.491  0.00  0.00    -0.009 A 
ATOM     44  H14 CSF d   1      27.429   0.704  12.499  0.00  0.00     0.091 H 
ATOM     45  H15 CSF d   1      25.636   0.608  14.225  0.00  0.00     0.112 H 
ATOM     46  H24 CSF d   1      28.217   2.032  10.545  0.00  0.00     0.157 HD
ATOM     47  H25 CSF d   1      27.391   3.490   9.932  0.00  0.00     0.157 HD
ENDBRANCH  27  36
ENDBRANCH  20  23
ENDBRANCH  19  20
ENDBRANCH  16  19
ENDBRANCH  15  16
ENDBRANCH   3  15
BRANCH   5  48
ATOM     48  C7A CSF d   1      22.391  -7.041  13.669  0.00  0.00     0.089 C 
ATOM     49  H7  CSF d   1      23.169  -7.632  13.163  0.00  0.00     0.091 H 
BRANCH  48  50
ATOM     50  C8A CSF d   1      22.671  -7.191  15.129  0.00  0.00     0.083 C 
ATOM     51  H8  CSF d   1      21.812  -6.757  15.662  0.00  0.00     0.090 H 
BRANCH  50  52
ATOM     52  C9A CSF d   1      22.883  -8.631  15.629  0.00  0.00     0.043 C 
ATOM     53  H9  CSF d   1      23.837  -9.013  15.236  0.00  0.00     0.078 H 
ATOM     54  H10 CSF d   1      22.058  -9.263  15.268  0.00  0.00     0.078 H 
BRANCH  52  55
ATOM     55  O9A CSF d   1      22.914  -8.671  17.025  0.00  0.00    -0.398 OA
ATOM     56  H11 CSF d   1      23.627  -8.128  17.340  0.00  0.00     0.209 HD
ENDBRANCH  52  55
ENDBRANCH  50  52
BRANCH  50  57
ATOM     57  O8A CSF d   1      23.872  -6.521  15.543  0.00  0.00    -0.391 OA
ATOM     58  H12 CSF d   1      23.834  -5.611  15.275  0.00  0.00     0.210 HD
ENDBRANCH  50  57
ENDBRANCH  48  50
BRANCH  48  59
ATOM     59  O7A CSF d   1      21.090  -7.648  13.369  0.00  0.00    -0.390 OA
ATOM     60  H13 CSF d   1      20.905  -7.556  12.442  0.00  0.00     0.210 HD
ENDBRANCH  48  59
ENDBRANCH   5  48
BRANCH   2  61
ATOM     61  O4A CSF d   1      21.690  -3.920   9.781  0.00  0.00    -0.390 OA
ATOM     62  H5  CSF d   1      22.361  -4.367   9.278  0.00  0.00     0.210 HD
ENDBRANCH   2  61
BRANCH   1  63
ATOM     63  N5A CSF d   1      23.068  -6.243  10.766  0.00  0.00    -0.352 N 
ATOM     64  C10 CSF d   1      23.015  -7.500  10.280  0.00  0.00     0.214 C 
ATOM     65  O10 CSF d   1      22.008  -8.201  10.426  0.00  0.00    -0.274 OA
ATOM     66  H6  CSF d   1      23.925  -5.754  10.602  0.00  0.00     0.163 HD
BRANCH  64  67
ATOM     67  C11 CSF d   1      24.234  -8.020   9.551  0.00  0.00    -0.003 C 
ATOM     68  H26 CSF d   1      24.048  -9.050   9.213  0.00  0.00     0.040 H 
ATOM     69  H27 CSF d   1      25.100  -8.007  10.229  0.00  0.00     0.040 H 
ATOM     70  H28 CSF d   1      24.441  -7.381   8.680  0.00  0.00     0.040 H 
ENDBRANCH  64  67
ENDBRANCH   1  63
TORSDOF 18
