REMARK  11 active torsions:
REMARK  status: ('A' for Active; 'I' for Inactive)
REMARK    1  A    between atoms: N1_1  and  C9_12 
REMARK    2  A    between atoms: C9_12  and  C10_13 
REMARK    3  A    between atoms: C10_13  and  C11_14 
REMARK    4  A    between atoms: C11_14  and  C12_15 
REMARK    5  A    between atoms: C11_14  and  C28_33 
REMARK    6  A    between atoms: C12_15  and  C13_16 
REMARK    7  A    between atoms: C13_16  and  C14_18 
REMARK    8  A    between atoms: C17_21  and  C20_24 
REMARK    9  A    between atoms: C23_27  and  O4_30 
REMARK   10  A    between atoms: O4_30  and  C26_31 
REMARK   11  A    between atoms: C26_31  and  C27_32 
ROOT
ATOM      1  C13 DEO d   1      55.553  81.113   6.219  0.00  0.00     0.160 C 
ATOM      2  O3  DEO d   1      56.546  81.101   5.498  0.00  0.00    -0.292 OA
ENDROOT
BRANCH   1   3
ATOM      3  C12 DEO d   1      55.766  81.298   7.740  0.00  0.00     0.007 C 
ATOM      4  H10 DEO d   1      54.873  80.921   8.259  0.00  0.00     0.046 H 
ATOM      5  H11 DEO d   1      56.642  80.703   8.038  0.00  0.00     0.046 H 
BRANCH   3   6
ATOM      6  C11 DEO d   1      56.003  82.764   8.191  0.00  0.00     0.038 C 
ATOM      7  H9  DEO d   1      56.655  83.260   7.458  0.00  0.00     0.057 H 
BRANCH   6   8
ATOM      8  C10 DEO d   1      56.711  82.798   9.569  0.00  0.00    -0.037 C 
ATOM      9  H7  DEO d   1      55.996  82.415  10.312  0.00  0.00     0.036 H 
ATOM     10  H8  DEO d   1      57.575  82.120   9.508  0.00  0.00     0.036 H 
BRANCH   8  11
ATOM     11  C9  DEO d   1      57.232  84.157  10.092  0.00  0.00     0.007 C 
ATOM     12  H5  DEO d   1      57.875  83.956  10.962  0.00  0.00     0.065 H 
ATOM     13  H6  DEO d   1      57.831  84.615   9.291  0.00  0.00     0.065 H 
BRANCH  11  14
ATOM     14  N1  DEO d   1      56.214  85.138  10.506  0.00  0.00    -0.280 N 
ATOM     15  C1  DEO d   1      56.011  86.358   9.888  0.00  0.00     0.261 A 
ATOM     16  C2  DEO d   1      54.939  87.001  10.615  0.00  0.00     0.048 A 
ATOM     17  O2  DEO d   1      56.616  86.797   8.917  0.00  0.00    -0.267 OA
ATOM     18  C3  DEO d   1      54.548  86.157  11.641  0.00  0.00     0.048 A 
ATOM     19  C7  DEO d   1      54.349  88.268  10.429  0.00  0.00    -0.067 A 
ATOM     20  C4  DEO d   1      53.505  86.505  12.534  0.00  0.00    -0.067 A 
ATOM     21  C8  DEO d   1      55.355  84.950  11.566  0.00  0.00     0.261 A 
ATOM     22  C5  DEO d   1      52.888  87.774  12.365  0.00  0.00    -0.082 A 
ATOM     23  H1  DEO d   1      53.189  85.827  13.319  0.00  0.00     0.085 H 
ATOM     24  C6  DEO d   1      53.303  88.646  11.320  0.00  0.00    -0.082 A 
ATOM     25  H2  DEO d   1      52.095  88.080  13.038  0.00  0.00     0.083 H 
ATOM     26  H3  DEO d   1      52.818  89.608  11.200  0.00  0.00     0.083 H 
ATOM     27  O1  DEO d   1      55.307  83.981  12.301  0.00  0.00    -0.267 OA
ATOM     28  H4  DEO d   1      54.679  88.930   9.637  0.00  0.00     0.085 H 
ENDBRANCH  11  14
ENDBRANCH   8  11
ENDBRANCH   6   8
BRANCH   6  29
ATOM     29  C28 DEO d   1      54.640  83.503   8.217  0.00  0.00     0.177 C 
ATOM     30  O5  DEO d   1      53.777  83.282   9.034  0.00  0.00    -0.648 OA
ATOM     31  O6  DEO d   1      54.516  84.431   7.254  0.00  0.00    -0.648 OA
ENDBRANCH   6  29
ENDBRANCH   3   6
ENDBRANCH   1   3
BRANCH   1  32
ATOM     32  C14 DEO d   1      54.163  80.950   5.699  0.00  0.00     0.010 A 
ATOM     33  C15 DEO d   1      53.062  80.561   6.511  0.00  0.00    -0.069 A 
ATOM     34  C16 DEO d   1      51.773  80.413   5.963  0.00  0.00    -0.071 A 
ATOM     35  H12 DEO d   1      53.217  80.376   7.568  0.00  0.00     0.085 H 
ATOM     36  C17 DEO d   1      51.502  80.643   4.591  0.00  0.00    -0.026 A 
ATOM     37  H13 DEO d   1      50.960  80.113   6.614  0.00  0.00     0.084 H 
ATOM     38  C18 DEO d   1      52.609  81.036   3.786  0.00  0.00    -0.071 A 
ATOM     39  C19 DEO d   1      53.911  81.189   4.320  0.00  0.00    -0.069 A 
ATOM     40  H14 DEO d   1      52.450  81.224   2.730  0.00  0.00     0.084 H 
ATOM     41  H15 DEO d   1      54.725  81.492   3.671  0.00  0.00     0.085 H 
BRANCH  36  42
ATOM     42  C20 DEO d   1      50.114  80.453   4.014  0.00  0.00    -0.026 A 
ATOM     43  C21 DEO d   1      49.915  80.316   2.619  0.00  0.00    -0.070 A 
ATOM     44  C22 DEO d   1      48.649  80.111   2.054  0.00  0.00    -0.050 A 
ATOM     45  H16 DEO d   1      50.776  80.372   1.962  0.00  0.00     0.085 H 
ATOM     46  C23 DEO d   1      47.486  80.027   2.869  0.00  0.00     0.068 A 
ATOM     47  H17 DEO d   1      48.554  80.015   0.978  0.00  0.00     0.087 H 
ATOM     48  C24 DEO d   1      47.659  80.169   4.268  0.00  0.00    -0.050 A 
ATOM     49  C25 DEO d   1      48.949  80.377   4.829  0.00  0.00    -0.070 A 
ATOM     50  H18 DEO d   1      46.795  80.118   4.921  0.00  0.00     0.087 H 
ATOM     51  H19 DEO d   1      49.048  80.480   5.904  0.00  0.00     0.085 H 
BRANCH  46  52
ATOM     52  O4  DEO d   1      46.175  79.810   2.414  0.00  0.00    -0.352 OA
BRANCH  52  53
ATOM     53  C26 DEO d   1      45.962  79.654   1.013  0.00  0.00     0.023 C 
ATOM     54  H20 DEO d   1      46.536  78.790   0.647  0.00  0.00     0.074 H 
ATOM     55  H21 DEO d   1      46.290  80.563   0.487  0.00  0.00     0.074 H 
BRANCH  53  56
ATOM     56  C27 DEO d   1      44.474  79.424   0.758  0.00  0.00    -0.056 C 
ATOM     57  H22 DEO d   1      44.301  79.303  -0.322  0.00  0.00     0.030 H 
ATOM     58  H23 DEO d   1      43.901  80.288   1.126  0.00  0.00     0.030 H 
ATOM     59  H24 DEO d   1      44.148  78.516   1.286  0.00  0.00     0.030 H 
ENDBRANCH  53  56
ENDBRANCH  52  53
ENDBRANCH  46  52
ENDBRANCH  36  42
ENDBRANCH   1  32
TORSDOF 11
