REMARK  6 active torsions:
REMARK  status: ('A' for Active; 'I' for Inactive)
REMARK    1  A    between atoms: C1_1  and  C2_4 
REMARK    2  A    between atoms: C2_4  and  C3_5 
REMARK    3  A    between atoms: C3_5  and  O7_6 
REMARK    4  A    between atoms: C3_5  and  C4_7 
REMARK    5  A    between atoms: C3_5  and  C6_11 
REMARK    6  A    between atoms: C4_7  and  C5_8 
ROOT
ATOM      1  C3  CIT d   1      -8.446  41.545   3.490  0.00  0.00     0.164 C 
ENDROOT
BRANCH   1   2
ATOM      2  C2  CIT d   1      -9.955  41.783   3.327  0.00  0.00     0.054 C 
ATOM      3  H1  CIT d   1     -10.104  42.675   2.701  0.00  0.00     0.054 H 
ATOM      4  H2  CIT d   1     -10.397  40.907   2.829  0.00  0.00     0.054 H 
BRANCH   2   5
ATOM      5  C1  CIT d   1     -10.658  41.995   4.643  0.00  0.00     0.176 C 
ATOM      6  O1  CIT d   1     -11.346  41.066   5.125  0.00  0.00    -0.648 OA
ATOM      7  O2  CIT d   1     -10.577  43.084   5.265  0.00  0.00    -0.648 OA
ENDBRANCH   2   5
ENDBRANCH   1   2
BRANCH   1   8
ATOM      8  O7  CIT d   1      -7.845  42.684   4.163  0.00  0.00    -0.378 OA
ATOM      9  H3  CIT d   1      -7.988  43.468   3.646  0.00  0.00     0.211 HD
ENDBRANCH   1   8
BRANCH   1  10
ATOM     10  C4  CIT d   1      -8.218  40.266   4.301  0.00  0.00     0.054 C 
ATOM     11  H4  CIT d   1      -8.626  39.414   3.736  0.00  0.00     0.054 H 
ATOM     12  H5  CIT d   1      -8.749  40.358   5.260  0.00  0.00     0.054 H 
BRANCH  10  13
ATOM     13  C5  CIT d   1      -6.765  40.006   4.580  0.00  0.00     0.176 C 
ATOM     14  O3  CIT d   1      -6.466  39.441   5.671  0.00  0.00    -0.648 OA
ATOM     15  O4  CIT d   1      -5.895  40.314   3.734  0.00  0.00    -0.648 OA
ENDBRANCH  10  13
ENDBRANCH   1  10
BRANCH   1  16
ATOM     16  C6  CIT d   1      -7.899  41.436   2.067  0.00  0.00     0.210 C 
ATOM     17  O5  CIT d   1      -8.045  40.390   1.404  0.00  0.00    -0.646 OA
ATOM     18  O6  CIT d   1      -7.329  42.402   1.509  0.00  0.00    -0.646 OA
ENDBRANCH   1  16
TORSDOF 6
