REMARK  2 active torsions:
REMARK  status: ('A' for Active; 'I' for Inactive)
REMARK    1  A    between atoms: N8_8  and  C12_12 
REMARK    2  A    between atoms: C16_16  and  C18_18 
ROOT
ATOM      1  N1  A45 d   1      33.621  53.881  59.995  0.00  0.00    -0.233 N 
ATOM      2  C2  A45 d   1      33.902  54.657  61.076  0.00  0.00     0.702 A 
ATOM      3  N3  A45 d   1      32.832  55.234  61.807  0.00  0.00    -0.164 N 
ATOM      4  C4  A45 d   1      33.041  56.022  62.879  0.00  0.00     0.228 A 
ATOM      5  O5  A45 d   1      31.955  56.555  63.555  0.00  0.00    -0.169 OA
ATOM      6  C6  A45 d   1      34.439  56.312  63.339  0.00  0.00     0.183 A 
ATOM      7  N7  A45 d   1      34.983  57.022  64.321  0.00  0.00    -0.141 NA
ATOM      8  N8  A45 d   1      36.428  56.895  64.222  0.00  0.00    -0.148 N 
ATOM      9  N9  A45 d   1      36.693  56.034  63.062  0.00  0.00    -0.126 NA
ATOM     10  C10 A45 d   1      35.535  55.677  62.529  0.00  0.00     0.225 A 
ATOM     11  N11 A45 d   1      35.174  54.864  61.410  0.00  0.00    -0.041 NA
ATOM     12  H1  A45 d   1      32.642  53.711  59.723  0.00  0.00     0.174 HD
ATOM     13  H2  A45 d   1      34.387  53.463  59.448  0.00  0.00     0.174 HD
ATOM     14  H3  A45 d   1      31.893  55.050  61.517  0.00  0.00     0.186 HD
ENDROOT
BRANCH   8  15
ATOM     15  C12 A45 d   1      37.397  57.481  65.074  0.00  0.00     0.080 A 
ATOM     16  C13 A45 d   1      37.838  58.817  64.842  0.00  0.00    -0.053 A 
ATOM     17  C14 A45 d   1      38.816  59.412  65.715  0.00  0.00    -0.080 A 
ATOM     18  H4  A45 d   1      37.437  59.384  64.009  0.00  0.00     0.087 H 
ATOM     19  C15 A45 d   1      39.371  58.659  66.800  0.00  0.00    -0.066 A 
ATOM     20  H5  A45 d   1      39.134  60.435  65.550  0.00  0.00     0.083 H 
ATOM     21  C16 A45 d   1      38.931  57.315  67.028  0.00  0.00     0.043 A 
ATOM     22  H6  A45 d   1      40.120  59.104  67.445  0.00  0.00     0.085 H 
ATOM     23  C17 A45 d   1      37.948  56.726  66.161  0.00  0.00    -0.037 A 
ATOM     24  H7  A45 d   1      37.622  55.706  66.330  0.00  0.00     0.088 H 
BRANCH  21  25
ATOM     25  C18 A45 d   1      39.490  56.520  68.152  0.00  0.00     0.209 C 
ATOM     26  O19 A45 d   1      39.109  55.376  68.351  0.00  0.00    -0.644 OA
ATOM     27  O20 A45 d   1      40.402  57.041  68.952  0.00  0.00    -0.644 OA
ENDBRANCH  21  25
ENDBRANCH   8  15
TORSDOF 2
