REMARK  2 active torsions:
REMARK  status: ('A' for Active; 'I' for Inactive)
REMARK    1  A    between atoms: C1_1  and  N2_2 
REMARK    2  A    between atoms: C9_9  and  N10_10 
ROOT
ATOM      1  N2  9MG d   1      50.029  46.490  74.533  0.00  0.00    -0.328 N 
ATOM      2  C3  9MG d   1      49.601  47.450  73.639  0.00  0.00     0.068 A 
ATOM      3  N4  9MG d   1      48.443  47.960  74.028  0.00  0.00    -0.235 NA
ATOM      4  C5  9MG d   1      48.055  47.339  75.222  0.00  0.00     0.159 A 
ATOM      5  C6  9MG d   1      46.948  47.437  76.102  0.00  0.00     0.226 A 
ATOM      6  O7  9MG d   1      45.932  48.324  75.840  0.00  0.00    -0.169 OA
ATOM      7  N8  9MG d   1      46.915  46.638  77.230  0.00  0.00    -0.164 N 
ATOM      8  C9  9MG d   1      47.931  45.748  77.507  0.00  0.00     0.702 A 
ATOM      9  N11 9MG d   1      48.983  45.635  76.672  0.00  0.00    -0.044 NA
ATOM     10  C12 9MG d   1      49.077  46.398  75.552  0.00  0.00     0.183 A 
ATOM     11  H4  9MG d   1      50.140  47.746  72.740  0.00  0.00     0.143 H 
ATOM     12  H5  9MG d   1      46.139  46.707  77.857  0.00  0.00     0.186 HD
ENDROOT
BRANCH   1  13
ATOM     13  C1  9MG d   1      51.267  45.684  74.457  0.00  0.00    -0.012 C 
ATOM     14  H1  9MG d   1      51.830  45.961  73.554  0.00  0.00     0.057 H 
ATOM     15  H2  9MG d   1      51.007  44.616  74.414  0.00  0.00     0.057 H 
ATOM     16  H3  9MG d   1      51.884  45.875  75.347  0.00  0.00     0.057 H 
ENDBRANCH   1  13
BRANCH   8  17
ATOM     17  N10 9MG d   1      47.878  44.953  78.664  0.00  0.00    -0.233 N 
ATOM     18  H6  9MG d   1      48.639  44.289  78.868  0.00  0.00     0.174 HD
ATOM     19  H7  9MG d   1      47.078  45.034  79.308  0.00  0.00     0.174 HD
ENDBRANCH   8  17
TORSDOF 2
