REMARK  5 active torsions:
REMARK  status: ('A' for Active; 'I' for Inactive)
REMARK    1  A    between atoms: C1_1  and  C2_2 
REMARK    2  A    between atoms: C2_2  and  O3_3 
REMARK    3  A    between atoms: O3_3  and  C4_4 
REMARK    4  A    between atoms: C4_4  and  C6_6 
REMARK    5  A    between atoms: C9_9  and  N10_10 
ROOT
ATOM      1  C6  204 d   1      48.406  46.772  75.291  0.00  0.00     0.112 A 
ATOM      2  C7  204 d   1      49.253  45.729  75.722  0.00  0.00     0.041 A 
ATOM      3  N8  204 d   1      48.987  45.036  76.864  0.00  0.00    -0.076 NA
ATOM      4  C9  204 d   1      47.904  45.321  77.611  0.00  0.00     0.699 A 
ATOM      5  N11 204 d   1      47.060  46.307  77.234  0.00  0.00    -0.165 N 
ATOM      6  C12 204 d   1      47.272  47.046  76.110  0.00  0.00     0.211 A 
ATOM      7  O13 204 d   1      46.385  48.041  75.774  0.00  0.00    -0.170 OA
ATOM      8  H6  204 d   1      50.133  45.474  75.133  0.00  0.00     0.117 H 
ATOM      9  H9  204 d   1      46.256  46.499  77.797  0.00  0.00     0.186 HD
ENDROOT
BRANCH   1  10
ATOM     10  C4  204 d   1      48.698  47.525  74.039  0.00  0.00     0.299 C 
ATOM     11  O5  204 d   1      47.960  48.438  73.674  0.00  0.00    -0.259 OA
BRANCH  10  12
ATOM     12  O3  204 d   1      49.793  47.180  73.311  0.00  0.00    -0.318 OA
BRANCH  12  13
ATOM     13  C2  204 d   1      50.095  47.867  72.101  0.00  0.00     0.026 C 
ATOM     14  H4  204 d   1      49.257  47.762  71.396  0.00  0.00     0.074 H 
ATOM     15  H5  204 d   1      50.265  48.933  72.312  0.00  0.00     0.074 H 
BRANCH  13  16
ATOM     16  C1  204 d   1      51.345  47.259  71.503  0.00  0.00    -0.056 C 
ATOM     17  H1  204 d   1      51.593  47.779  70.566  0.00  0.00     0.030 H 
ATOM     18  H2  204 d   1      51.171  46.193  71.296  0.00  0.00     0.030 H 
ATOM     19  H3  204 d   1      52.179  47.364  72.212  0.00  0.00     0.030 H 
ENDBRANCH  13  16
ENDBRANCH  12  13
ENDBRANCH  10  12
ENDBRANCH   1  10
BRANCH   4  20
ATOM     20  N10 204 d   1      47.652  44.587  78.777  0.00  0.00    -0.233 N 
ATOM     21  H7  204 d   1      48.297  43.836  79.062  0.00  0.00     0.174 HD
ATOM     22  H8  204 d   1      46.822  44.798  79.349  0.00  0.00     0.174 HD
ENDBRANCH   4  20
TORSDOF 5
