REMARK  3 active torsions:
REMARK  status: ('A' for Active; 'I' for Inactive)
REMARK    1  A    between atoms: N1_1  and  C15_12 
REMARK    2  A    between atoms: N5_5  and  C11_11 
REMARK    3  A    between atoms: C8_8  and  N10_10 
ROOT
ATOM      1  N1  209 d   1      48.084  47.970  74.081  0.00  0.00    -0.269 N 
ATOM      2  C2  209 d   1      47.325  47.743  75.234  0.00  0.00     0.282 A 
ATOM      3  C3  209 d   1      47.794  46.725  76.185  0.00  0.00     0.162 A 
ATOM      4  C4  209 d   1      48.905  46.044  75.949  0.00  0.00     0.160 A 
ATOM      5  N5  209 d   1      49.674  46.326  74.711  0.00  0.00    -0.287 N 
ATOM      6  C6  209 d   1      49.261  47.286  73.782  0.00  0.00     0.332 A 
ATOM      7  N7  209 d   1      47.217  46.267  77.454  0.00  0.00    -0.183 N 
ATOM      8  C8  209 d   1      48.048  45.313  77.912  0.00  0.00     0.678 A 
ATOM      9  N9  209 d   1      49.105  45.099  77.069  0.00  0.00    -0.174 N 
ATOM     10  O19 209 d   1      49.913  47.510  72.747  0.00  0.00    -0.246 OA
ATOM     11  O20 209 d   1      46.275  48.311  75.549  0.00  0.00    -0.265 OA
ATOM     12  H1  209 d   1      46.354  46.606  77.902  0.00  0.00     0.184 HD
ATOM     13  H2  209 d   1      49.874  44.425  77.189  0.00  0.00     0.186 HD
ENDROOT
BRANCH   1  14
ATOM     14  C15 209 d   1      47.626  48.990  73.115  0.00  0.00    -0.007 C 
ATOM     15  H8  209 d   1      46.693  49.445  73.477  0.00  0.00     0.057 H 
ATOM     16  H9  209 d   1      47.448  48.516  72.138  0.00  0.00     0.057 H 
ATOM     17  H10 209 d   1      48.397  49.768  73.010  0.00  0.00     0.057 H 
ENDBRANCH   1  14
BRANCH   5  18
ATOM     18  C11 209 d   1      50.905  45.581  74.429  0.00  0.00    -0.008 C 
ATOM     19  H5  209 d   1      51.097  44.868  75.245  0.00  0.00     0.057 H 
ATOM     20  H6  209 d   1      51.748  46.283  74.349  0.00  0.00     0.057 H 
ATOM     21  H7  209 d   1      50.793  45.033  73.482  0.00  0.00     0.057 H 
ENDBRANCH   5  18
BRANCH   8  22
ATOM     22  N10 209 d   1      47.865  44.640  79.035  0.00  0.00    -0.234 N 
ATOM     23  H3  209 d   1      47.050  44.844  79.631  0.00  0.00     0.174 HD
ATOM     24  H4  209 d   1      48.537  43.911  79.314  0.00  0.00     0.174 HD
ENDBRANCH   8  22
TORSDOF 3
