REMARK  4 active torsions:
REMARK  status: ('A' for Active; 'I' for Inactive)
REMARK    1  A    between atoms: N8_8  and  C12_12 
REMARK    2  A    between atoms: C16_16  and  C18_18 
REMARK       I    between atoms: C18_18  and  N20_20 
REMARK    3  A    between atoms: N20_20  and  C21_21 
REMARK    4  A    between atoms: C21_21  and  C22_22 
ROOT
ATOM      1  C12 45P d   1      51.411  46.559  72.892  0.00  0.00     0.080 A 
ATOM      2  C13 45P d   1      51.964  47.810  72.594  0.00  0.00    -0.053 A 
ATOM      3  C14 45P d   1      52.915  47.930  71.573  0.00  0.00    -0.080 A 
ATOM      4  C15 45P d   1      53.312  46.800  70.851  0.00  0.00    -0.068 A 
ATOM      5  C16 45P d   1      52.759  45.549  71.148  0.00  0.00     0.034 A 
ATOM      6  C17 45P d   1      51.809  45.429  72.169  0.00  0.00    -0.038 A 
ATOM      7  H4  45P d   1      51.656  48.686  73.154  0.00  0.00     0.087 H 
ATOM      8  H5  45P d   1      53.343  48.899  71.342  0.00  0.00     0.083 H 
ATOM      9  H6  45P d   1      54.048  46.893  70.061  0.00  0.00     0.085 H 
ATOM     10  H7  45P d   1      51.381  44.460  72.400  0.00  0.00     0.088 H 
ENDROOT
BRANCH   5  11
ATOM     11  C18 45P d   1      53.180  44.353  70.384  0.00  0.00     0.252 C 
ATOM     12  O19 45P d   1      53.867  44.479  69.373  0.00  0.00    -0.268 OA
ATOM     13  N20 45P d   1      52.814  43.141  70.793  0.00  0.00    -0.353 N 
ATOM     14  H8  45P d   1      52.215  43.041  71.588  0.00  0.00     0.163 HD
BRANCH  13  15
ATOM     15  C21 45P d   1      53.290  41.949  70.076  0.00  0.00     0.019 C 
ATOM     16  H9  45P d   1      52.865  41.937  69.061  0.00  0.00     0.071 H 
ATOM     17  H10 45P d   1      52.973  41.045  70.617  0.00  0.00     0.071 H 
BRANCH  15  18
ATOM     18  C22 45P d   1      54.797  41.982  69.990  0.00  0.00    -0.037 A 
ATOM     19  C23 45P d   1      55.428  41.955  68.740  0.00  0.00    -0.054 A 
ATOM     20  C24 45P d   1      56.824  41.987  68.659  0.00  0.00     0.036 A 
ATOM     21  H11 45P d   1      54.834  41.909  67.834  0.00  0.00     0.086 H 
ATOM     22 CL1  45P d   1      57.608  41.953  67.106  0.00  0.00    -0.084 Cl
ATOM     23  C26 45P d   1      57.592  42.045  69.830  0.00  0.00    -0.041 A 
ATOM     24  C27 45P d   1      56.962  42.072  71.079  0.00  0.00     0.036 A 
ATOM     25  H12 45P d   1      58.674  42.069  69.768  0.00  0.00     0.088 H 
ATOM     26 CL2  45P d   1      57.915  42.145  72.533  0.00  0.00    -0.084 Cl
ATOM     27  C29 45P d   1      55.564  42.040  71.160  0.00  0.00    -0.054 A 
ATOM     28  H13 45P d   1      55.076  42.060  72.128  0.00  0.00     0.086 H 
ENDBRANCH  15  18
ENDBRANCH  13  15
ENDBRANCH   5  11
BRANCH   1  29
ATOM     29  N8  45P d   1      50.450  46.438  73.923  0.00  0.00    -0.148 N 
ATOM     30  N7  45P d   1      49.138  47.053  73.966  0.00  0.00    -0.141 NA
ATOM     31  C6  45P d   1      48.550  46.695  75.092  0.00  0.00     0.183 A 
ATOM     32  C4  45P d   1      47.239  46.975  75.719  0.00  0.00     0.228 A 
ATOM     33  C10 45P d   1      49.470  45.815  75.848  0.00  0.00     0.225 A 
ATOM     34  N3  45P d   1      46.941  46.450  76.892  0.00  0.00    -0.164 N 
ATOM     35  O5  45P d   1      46.334  47.782  75.080  0.00  0.00    -0.169 OA
ATOM     36  C2  45P d   1      47.844  45.623  77.569  0.00  0.00     0.702 A 
ATOM     37  H3  45P d   1      46.052  46.647  77.305  0.00  0.00     0.186 HD
ATOM     38  N1  45P d   1      47.482  45.110  78.776  0.00  0.00    -0.233 N 
ATOM     39  N11 45P d   1      49.034  45.321  77.083  0.00  0.00    -0.041 NA
ATOM     40  H1  45P d   1      46.558  45.333  79.174  0.00  0.00     0.174 HD
ATOM     41  H2  45P d   1      48.132  44.499  79.292  0.00  0.00     0.174 HD
ATOM     42  N9  45P d   1      50.580  45.674  75.149  0.00  0.00    -0.126 NA
ENDBRANCH   1  29
TORSDOF 4
