REMARK  9 active torsions:
REMARK  status: ('A' for Active; 'I' for Inactive)
REMARK    1  A    between atoms: N1_1  and  C2_2 
REMARK    2  A    between atoms: N8_8  and  C12_12 
REMARK    3  A    between atoms: C16_16  and  C18_18 
REMARK       I    between atoms: C18_18  and  N20_20 
REMARK    4  A    between atoms: N20_20  and  C21_21 
REMARK    5  A    between atoms: C21_21  and  C22_22 
REMARK    6  A    between atoms: C27_27  and  S28_28 
REMARK    7  A    between atoms: S28_28  and  C29_29 
REMARK    8  A    between atoms: C34_34  and  C35_35 
REMARK    9  A    between atoms: C35_35  and  O36_36 
ROOT
ATOM      1  C21 PSB d   1      53.769  42.590  69.676  0.00  0.00     0.021 C 
ATOM      2  H9  PSB d   1      53.663  42.475  68.587  0.00  0.00     0.071 H 
ATOM      3  H10 PSB d   1      52.948  42.061  70.182  0.00  0.00     0.071 H 
ENDROOT
BRANCH   1   4
ATOM      4  N20 PSB d   1      53.735  44.052  70.040  0.00  0.00    -0.353 N 
ATOM      5  C18 PSB d   1      52.611  44.354  70.309  0.00  0.00     0.252 C 
ATOM      6  O19 PSB d   1      51.639  43.508  70.140  0.00  0.00    -0.268 OA
ATOM      7  H8  PSB d   1      54.523  44.667  70.054  0.00  0.00     0.163 HD
BRANCH   5   8
ATOM      8  C16 PSB d   1      52.472  45.559  71.053  0.00  0.00     0.034 A 
ATOM      9  C15 PSB d   1      53.524  46.566  71.166  0.00  0.00    -0.068 A 
ATOM     10  C14 PSB d   1      53.354  47.716  71.993  0.00  0.00    -0.080 A 
ATOM     11  H6  PSB d   1      54.448  46.438  70.613  0.00  0.00     0.085 H 
ATOM     12  C13 PSB d   1      52.173  47.828  72.771  0.00  0.00    -0.053 A 
ATOM     13  H5  PSB d   1      54.113  48.489  72.026  0.00  0.00     0.083 H 
ATOM     14  C12 PSB d   1      51.203  46.787  72.669  0.00  0.00     0.080 A 
ATOM     15  H4  PSB d   1      52.013  48.679  73.423  0.00  0.00     0.087 H 
ATOM     16  C17 PSB d   1      51.317  45.732  71.823  0.00  0.00    -0.038 A 
ATOM     17  H7  PSB d   1      50.506  45.017  71.743  0.00  0.00     0.088 H 
BRANCH  14  18
ATOM     18  N8  PSB d   1      50.214  46.767  73.542  0.00  0.00    -0.148 N 
ATOM     19  N7  PSB d   1      48.981  47.478  73.675  0.00  0.00    -0.140 NA
ATOM     20  C6  PSB d   1      48.513  46.933  74.966  0.00  0.00     0.197 A 
ATOM     21  C4  PSB d   1      47.347  47.062  75.927  0.00  0.00     0.294 A 
ATOM     22  C10 PSB d   1      49.497  45.972  75.405  0.00  0.00     0.226 A 
ATOM     23  N3  PSB d   1      47.304  46.317  77.112  0.00  0.00    -0.152 N 
ATOM     24  O5  PSB d   1      46.391  47.858  75.695  0.00  0.00    -0.265 OA
ATOM     25  C2  PSB d   1      48.317  45.417  77.470  0.00  0.00     0.703 A 
ATOM     26  H3  PSB d   1      46.522  46.431  77.725  0.00  0.00     0.187 HD
ATOM     27  N11 PSB d   1      49.347  45.257  76.677  0.00  0.00    -0.041 NA
ATOM     28  N9  PSB d   1      50.326  45.927  74.674  0.00  0.00    -0.126 NA
BRANCH  25  29
ATOM     29  N1  PSB d   1      48.243  44.685  78.785  0.00  0.00    -0.233 N 
ATOM     30  H1  PSB d   1      47.429  44.817  79.403  0.00  0.00     0.174 HD
ATOM     31  H2  PSB d   1      49.006  44.053  79.066  0.00  0.00     0.174 HD
ENDBRANCH  25  29
ENDBRANCH  14  18
ENDBRANCH   5   8
ENDBRANCH   1   4
BRANCH   1  32
ATOM     32  C22 PSB d   1      55.112  42.014  70.129  0.00  0.00    -0.023 A 
ATOM     33  C23 PSB d   1      55.329  42.432  71.576  0.00  0.00    -0.074 A 
ATOM     34  C24 PSB d   1      56.421  41.982  72.349  0.00  0.00    -0.082 A 
ATOM     35  H11 PSB d   1      54.613  43.105  72.034  0.00  0.00     0.084 H 
ATOM     36  C25 PSB d   1      57.348  41.154  71.814  0.00  0.00    -0.082 A 
ATOM     37  H12 PSB d   1      56.518  42.303  73.380  0.00  0.00     0.083 H 
ATOM     38  C26 PSB d   1      57.211  40.740  70.434  0.00  0.00    -0.066 A 
ATOM     39  H13 PSB d   1      58.183  40.805  72.411  0.00  0.00     0.083 H 
ATOM     40  C27 PSB d   1      56.002  41.226  69.577  0.00  0.00     0.013 A 
ATOM     41  H14 PSB d   1      57.955  40.087  69.992  0.00  0.00     0.085 H 
BRANCH  40  42
ATOM     42  S28 PSB d   1      55.775  40.729  67.954  0.00  0.00    -0.089 SA
BRANCH  42  43
ATOM     43  C29 PSB d   1      57.287  40.362  67.242  0.00  0.00     0.014 A 
ATOM     44  C30 PSB d   1      58.291  39.660  67.989  0.00  0.00    -0.066 A 
ATOM     45  C31 PSB d   1      59.506  39.357  67.404  0.00  0.00    -0.082 A 
ATOM     46  H15 PSB d   1      58.096  39.367  69.014  0.00  0.00     0.085 H 
ATOM     47  C32 PSB d   1      59.754  39.741  66.047  0.00  0.00    -0.082 A 
ATOM     48  H16 PSB d   1      60.267  38.831  67.969  0.00  0.00     0.083 H 
ATOM     49  C33 PSB d   1      58.745  40.449  65.303  0.00  0.00    -0.073 A 
ATOM     50  H17 PSB d   1      60.702  39.499  65.580  0.00  0.00     0.083 H 
ATOM     51  C34 PSB d   1      57.518  40.751  65.914  0.00  0.00    -0.018 A 
ATOM     52  H18 PSB d   1      58.932  40.747  64.278  0.00  0.00     0.084 H 
BRANCH  51  53
ATOM     53  C35 PSB d   1      56.409  41.508  65.140  0.00  0.00     0.042 C 
ATOM     54  H19 PSB d   1      55.426  41.173  65.503  0.00  0.00     0.081 H 
ATOM     55  H20 PSB d   1      56.501  41.279  64.068  0.00  0.00     0.081 H 
BRANCH  53  56
ATOM     56  O36 PSB d   1      56.514  42.898  65.322  0.00  0.00    -0.396 OA
ATOM     57  H21 PSB d   1      55.823  43.333  64.837  0.00  0.00     0.209 HD
ENDBRANCH  53  56
ENDBRANCH  51  53
ENDBRANCH  42  43
ENDBRANCH  40  42
ENDBRANCH   1  32
TORSDOF 9
