REMARK  2 active torsions:
REMARK  status: ('A' for Active; 'I' for Inactive)
REMARK    1  A    between atoms: N1_1  and  C2_2 
REMARK    2  A    between atoms: C4_4  and  C10_10 
ROOT
ATOM      1  C2  977 d   1      47.866  45.647  77.872  0.00  0.00     0.701 A 
ATOM      2  N3  977 d   1      48.941  45.555  77.097  0.00  0.00    -0.063 NA
ATOM      3  C4  977 d   1      49.055  46.302  75.926  0.00  0.00     0.109 A 
ATOM      4  C5  977 d   1      48.025  47.178  75.514  0.00  0.00     0.109 A 
ATOM      5 BR6  977 d   1      48.146  48.212  73.881  0.00  0.00    -0.043 Br
ATOM      6  C7  977 d   1      46.804  47.264  76.403  0.00  0.00     0.279 A 
ATOM      7  O8  977 d   1      45.835  48.011  76.134  0.00  0.00    -0.266 OA
ATOM      8  N9  977 d   1      46.800  46.492  77.533  0.00  0.00    -0.153 N 
ATOM      9  H3  977 d   1      46.006  46.532  78.140  0.00  0.00     0.187 HD
ENDROOT
BRANCH   3  10
ATOM     10  C10 977 d   1      50.273  46.118  75.111  0.00  0.00    -0.005 A 
ATOM     11  C11 977 d   1      51.251  47.138  75.015  0.00  0.00    -0.071 A 
ATOM     12  C12 977 d   1      52.399  46.952  74.201  0.00  0.00    -0.082 A 
ATOM     13  H4  977 d   1      51.123  48.063  75.565  0.00  0.00     0.084 H 
ATOM     14  C13 977 d   1      52.565  45.741  73.475  0.00  0.00    -0.083 A 
ATOM     15  H5  977 d   1      53.148  47.733  74.133  0.00  0.00     0.083 H 
ATOM     16  C14 977 d   1      51.591  44.712  73.574  0.00  0.00    -0.082 A 
ATOM     17  H6  977 d   1      53.436  45.603  72.845  0.00  0.00     0.083 H 
ATOM     18  C15 977 d   1      50.448  44.894  74.385  0.00  0.00    -0.071 A 
ATOM     19  H7  977 d   1      51.724  43.786  73.027  0.00  0.00     0.083 H 
ATOM     20  H8  977 d   1      49.704  44.109  74.458  0.00  0.00     0.084 H 
ENDBRANCH   3  10
BRANCH   1  21
ATOM     21  N1  977 d   1      47.801  44.901  78.994  0.00  0.00    -0.233 N 
ATOM     22  H1  977 d   1      48.583  44.279  79.245  0.00  0.00     0.174 HD
ATOM     23  H2  977 d   1      46.969  44.953  79.600  0.00  0.00     0.174 HD
ENDBRANCH   1  21
TORSDOF 2
