REMARK  31 active torsions:
REMARK  status: ('A' for Active; 'I' for Inactive)
REMARK    1  A    between atoms: N_1  and  CA_2 
REMARK    2  A    between atoms: CA_2  and  C_3 
REMARK    3  A    between atoms: CA_2  and  CB_5 
REMARK       I    between atoms: C_3  and  N_9 
REMARK    4  A    between atoms: N_9  and  CA_10 
REMARK    5  A    between atoms: CA_10  and  C_11 
REMARK    6  A    between atoms: CA_10  and  CB_13 
REMARK       I    between atoms: C_11  and  N_25 
REMARK    7  A    between atoms: CB_13  and  CG_14 
REMARK    8  A    between atoms: N_25  and  CA_26 
REMARK    9  A    between atoms: CA_26  and  C_27 
REMARK   10  A    between atoms: CA_26  and  CB_29 
REMARK       I    between atoms: C_27  and  N_42 
REMARK   11  A    between atoms: CB_29  and  CG_30 
REMARK   12  A    between atoms: CG_30  and  CD_31 
REMARK   13  A    between atoms: CD_31  and  NE_32 
REMARK       I    between atoms: NE_32  and  CZ_33 
REMARK       I    between atoms: CZ_33  and  NH1_34 
REMARK   14  A    between atoms: N_42  and  CA_43 
REMARK   15  A    between atoms: CA_43  and  C_44 
REMARK   16  A    between atoms: CA_43  and  CB_46 
REMARK       I    between atoms: C_44  and  N_55 
REMARK   17  A    between atoms: CB_46  and  CG_47 
REMARK   18  A    between atoms: CA_56  and  C_57 
REMARK       I    between atoms: C_57  and  N_62 
REMARK   19  A    between atoms: N_62  and  CA_63 
REMARK   20  A    between atoms: CA_63  and  C_64 
REMARK   21  A    between atoms: CA_63  and  CB_66 
REMARK       I    between atoms: C_64  and  N_74 
REMARK   22  A    between atoms: CB_66  and  CG_67 
REMARK   23  A    between atoms: CG_67  and  CD_68 
REMARK       I    between atoms: CD_68  and  NE2_70 
REMARK   24  A    between atoms: N_74  and  CA_75 
REMARK   25  A    between atoms: CA_75  and  C_76 
REMARK   26  A    between atoms: CA_75  and  CB_78 
REMARK       I    between atoms: C_76  and  N_86 
REMARK   27  A    between atoms: CB_78  and  CG_79 
REMARK   28  A    between atoms: N_86  and  CA_87 
REMARK   29  A    between atoms: CA_87  and  C_88 
REMARK       I    between atoms: C_88  and  N_91 
REMARK   30  A    between atoms: N_91  and  CA_92 
REMARK   31  A    between atoms: CA_92  and  C_93 
ROOT
ATOM      1  CA  HIS d   1      10.264   1.766  72.167  0.00  0.00     0.095 C 
ATOM      2  H32 HIS d   1      10.063   2.645  71.537  0.00  0.00     0.088 H 
ENDROOT
BRANCH   1   3
ATOM      3  N   HIS d   1      10.076   0.546  71.416  0.00  0.00    -0.346 N 
ATOM      4  C   ARG d   1      10.637   0.389  70.231  0.00  0.00     0.241 C 
ATOM      5  O   ARG d   1      11.280   1.274  69.676  0.00  0.00    -0.271 OA
ATOM      6  H31 HIS d   1       9.514  -0.188  71.798  0.00  0.00     0.163 HD
BRANCH   4   7
ATOM      7  CA  ARG d   1      10.394  -0.948  69.565  0.00  0.00     0.089 C 
ATOM      8  H19 ARG d   1       9.865  -1.589  70.286  0.00  0.00     0.087 H 
BRANCH   7   9
ATOM      9  N   ARG d   1       9.565  -0.851  68.378  0.00  0.00    -0.346 N 
ATOM     10  C   TRP d   1       8.332  -0.360  68.438  0.00  0.00     0.241 C 
ATOM     11  O   TRP d   1       7.809   0.010  69.506  0.00  0.00    -0.271 OA
ATOM     12  H18 ARG d   1       9.928  -1.159  67.499  0.00  0.00     0.163 HD
BRANCH  10  13
ATOM     13  CA  TRP d   1       7.535  -0.339  67.109  0.00  0.00     0.093 C 
ATOM     14  H9  TRP d   1       7.923  -1.154  66.480  0.00  0.00     0.088 H 
BRANCH  13  15
ATOM     15  N   TRP d   1       6.115  -0.594  67.365  0.00  0.00    -0.346 N 
ATOM     16  C   ALA d   1       5.670  -1.658  68.044  0.00  0.00     0.248 C 
ATOM     17  O   ALA d   1       6.402  -2.500  68.580  0.00  0.00    -0.271 OA
ATOM     18  H8  TRP d   1       5.444   0.060  67.015  0.00  0.00     0.163 HD
BRANCH  16  19
ATOM     19  CA  ALA d   1       4.163  -1.734  68.212  0.00  0.00     0.172 C 
ATOM     20  H4  ALA d   1       3.869  -2.735  68.561  0.00  0.00     0.098 H 
BRANCH  19  21
ATOM     21  N   ALA d   1       3.821  -0.710  69.242  0.00  0.00    -0.067 N 
ATOM     22  H1  ALA d   1       2.825  -0.711  69.400  0.00  0.00     0.275 HD
ATOM     23  H2  ALA d   1       4.109   0.201  68.919  0.00  0.00     0.275 HD
ATOM     24  H3  ALA d   1       4.298  -0.927  70.103  0.00  0.00     0.275 HD
ENDBRANCH  19  21
BRANCH  19  25
ATOM     25  CB  ALA d   1       3.452  -1.435  66.868  0.00  0.00    -0.042 C 
ATOM     26  H5  ALA d   1       3.723  -2.205  66.131  0.00  0.00     0.030 H 
ATOM     27  H6  ALA d   1       3.766  -0.447  66.499  0.00  0.00     0.030 H 
ATOM     28  H7  ALA d   1       2.363  -1.440  67.020  0.00  0.00     0.030 H 
ENDBRANCH  19  25
ENDBRANCH  16  19
ENDBRANCH  13  15
BRANCH  13  29
ATOM     29  CB  TRP d   1       7.691   0.985  66.309  0.00  0.00    -0.012 C 
ATOM     30  H10 TRP d   1       6.694   1.276  65.948  0.00  0.00     0.044 H 
ATOM     31  H11 TRP d   1       8.347   0.780  65.450  0.00  0.00     0.044 H 
BRANCH  29  32
ATOM     32  CG  TRP d   1       8.266   2.157  67.051  0.00  0.00    -0.028 A 
ATOM     33  CD1 TRP d   1       9.397   2.854  66.723  0.00  0.00    -0.015 A 
ATOM     34  NE1 TRP d   1       9.648   3.825  67.668  0.00  0.00    -0.365 N 
ATOM     35  H12 TRP d   1      10.010   2.668  65.842  0.00  0.00     0.112 H 
ATOM     36  CE2 TRP d   1       8.670   3.778  68.628  0.00  0.00     0.042 A 
ATOM     37  H13 TRP d   1      10.442   4.481  67.655  0.00  0.00     0.165 HD
ATOM     38  CD2 TRP d   1       7.775   2.743  68.272  0.00  0.00    -0.002 A 
ATOM     39  CZ2 TRP d   1       8.495   4.559  69.778  0.00  0.00    -0.056 A 
ATOM     40  CE3 TRP d   1       6.667   2.486  69.105  0.00  0.00    -0.070 A 
ATOM     41  CZ3 TRP d   1       6.495   3.260  70.246  0.00  0.00    -0.082 A 
ATOM     42  H14 TRP d   1       5.963   1.699  68.860  0.00  0.00     0.084 H 
ATOM     43  CH2 TRP d   1       7.405   4.284  70.570  0.00  0.00    -0.081 A 
ATOM     44  H16 TRP d   1       5.648   3.073  70.896  0.00  0.00     0.083 H 
ATOM     45  H17 TRP d   1       7.242   4.871  71.467  0.00  0.00     0.083 H 
ATOM     46  H15 TRP d   1       9.192   5.349  70.033  0.00  0.00     0.086 H 
ENDBRANCH  29  32
ENDBRANCH  13  29
ENDBRANCH  10  13
ENDBRANCH   7   9
BRANCH   7  47
ATOM     47  CB  ARG d   1      11.724  -1.605  69.234  0.00  0.00    -0.036 C 
ATOM     48  H20 ARG d   1      12.531  -0.972  69.632  0.00  0.00     0.036 H 
ATOM     49  H21 ARG d   1      11.815  -1.669  68.140  0.00  0.00     0.036 H 
BRANCH  47  50
ATOM     50  CG  ARG d   1      11.884  -2.982  69.801  0.00  0.00    -0.048 C 
ATOM     51  H22 ARG d   1      12.911  -3.330  69.614  0.00  0.00     0.035 H 
ATOM     52  H23 ARG d   1      11.172  -3.659  69.306  0.00  0.00     0.035 H 
BRANCH  50  53
ATOM     53  CD  ARG d   1      11.624  -2.994  71.283  0.00  0.00     0.009 C 
ATOM     54  H24 ARG d   1      10.551  -2.836  71.464  0.00  0.00     0.064 H 
ATOM     55  H25 ARG d   1      12.199  -2.186  71.759  0.00  0.00     0.064 H 
BRANCH  53  56
ATOM     56  NE  ARG d   1      12.026  -4.276  71.859  0.00  0.00    -0.227 N 
ATOM     57  CZ  ARG d   1      11.353  -5.422  71.725  0.00  0.00     0.665 C 
ATOM     58  NH1 ARG d   1      10.214  -5.470  71.029  0.00  0.00    -0.235 N 
ATOM     59  NH2 ARG d   1      11.836  -6.536  72.277  0.00  0.00    -0.235 N 
ATOM     60  H27 ARG d   1       9.706  -6.361  70.934  0.00  0.00     0.174 HD
ATOM     61  H28 ARG d   1       9.844  -4.616  70.587  0.00  0.00     0.174 HD
ATOM     62  H29 ARG d   1      12.714  -6.505  72.815  0.00  0.00     0.174 HD
ATOM     63  H30 ARG d   1      11.331  -7.427  72.165  0.00  0.00     0.174 HD
ATOM     64  H26 ARG d   1      12.895  -4.297  72.411  0.00  0.00     0.177 HD
ENDBRANCH  53  56
ENDBRANCH  50  53
ENDBRANCH  47  50
ENDBRANCH   7  47
ENDBRANCH   4   7
ENDBRANCH   1   3
BRANCH   1  65
ATOM     65  C   HIS d   1      11.729   1.760  72.625  0.00  0.00     0.243 C 
ATOM     66  O   HIS d   1      12.265   0.703  72.963  0.00  0.00    -0.271 OA
ATOM     67  N   PRO d   1      12.379   2.944  72.688  0.00  0.00    -0.337 N 
ATOM     68  CA  PRO d   1      13.779   3.005  73.117  0.00  0.00     0.091 C 
ATOM     69  CD  PRO d   1      11.931   4.251  72.183  0.00  0.00    -0.001 C 
ATOM     70  CB  PRO d   1      14.138   4.484  72.988  0.00  0.00    -0.036 C 
ATOM     71  H38 PRO d   1      14.384   2.422  72.407  0.00  0.00     0.087 H 
ATOM     72  CG  PRO d   1      12.817   5.192  72.919  0.00  0.00    -0.048 C 
ATOM     73  H39 PRO d   1      14.722   4.663  72.073  0.00  0.00     0.036 H 
ATOM     74  H40 PRO d   1      14.714   4.821  73.863  0.00  0.00     0.036 H 
ATOM     75  H41 PRO d   1      12.913   6.143  72.374  0.00  0.00     0.035 H 
ATOM     76  H42 PRO d   1      12.426   5.386  73.929  0.00  0.00     0.035 H 
ATOM     77  H43 PRO d   1      10.872   4.430  72.423  0.00  0.00     0.064 H 
ATOM     78  H44 PRO d   1      12.079   4.331  71.096  0.00  0.00     0.064 H 
BRANCH  68  79
ATOM     79  C   PRO d   1      14.086   2.461  74.504  0.00  0.00     0.241 C 
ATOM     80  O   PRO d   1      15.230   2.119  74.791  0.00  0.00    -0.271 OA
ATOM     81  N   GLN d   1      13.085   2.407  75.382  0.00  0.00    -0.346 N 
ATOM     82  H45 GLN d   1      12.175   2.728  75.120  0.00  0.00     0.163 HD
BRANCH  81  83
ATOM     83  CA  GLN d   1      13.312   1.881  76.727  0.00  0.00     0.090 C 
ATOM     84  H46 GLN d   1      14.114   2.468  77.198  0.00  0.00     0.087 H 
BRANCH  83  85
ATOM     85  C   GLN d   1      13.732   0.426  76.671  0.00  0.00     0.241 C 
ATOM     86  O   GLN d   1      14.493  -0.040  77.512  0.00  0.00    -0.271 OA
ATOM     87  N   PHE d   1      13.240  -0.278  75.656  0.00  0.00    -0.346 N 
ATOM     88  H53 PHE d   1      12.676   0.189  74.974  0.00  0.00     0.163 HD
BRANCH  87  89
ATOM     89  CA  PHE d   1      13.491  -1.695  75.502  0.00  0.00     0.093 C 
ATOM     90  H54 PHE d   1      13.940  -2.041  76.445  0.00  0.00     0.088 H 
BRANCH  89  91
ATOM     91  C   PHE d   1      14.474  -2.083  74.400  0.00  0.00     0.241 C 
ATOM     92  O   PHE d   1      14.391  -3.171  73.836  0.00  0.00    -0.271 OA
ATOM     93  N   GLY d   1      15.460  -1.223  74.172  0.00  0.00    -0.351 N 
ATOM     94  H62 GLY d   1      15.509  -0.378  74.704  0.00  0.00     0.163 HD
BRANCH  93  95
ATOM     95  CA  GLY d   1      16.466  -1.491  73.165  0.00  0.00     0.069 C 
ATOM     96  H63 GLY d   1      16.712  -2.563  73.184  0.00  0.00     0.078 H 
ATOM     97  H64 GLY d   1      17.367  -0.904  73.397  0.00  0.00     0.078 H 
BRANCH  95  98
ATOM     98  C   GLY d   1      15.986  -1.124  71.780  0.00  0.00     0.235 C 
ATOM     99  O   GLY d   1      16.601  -1.518  70.788  0.00  0.00    -0.272 OA
ATOM    100  N   GLY d   1      14.861  -0.412  71.719  0.00  0.00    -0.350 N 
ATOM    101  H65 GLY d   1      14.389  -0.170  72.567  0.00  0.00     0.163 HD
BRANCH 100 102
ATOM    102  CA  GLY d   1      14.306   0.019  70.454  0.00  0.00     0.075 C 
ATOM    103  H66 GLY d   1      13.240   0.248  70.600  0.00  0.00     0.080 H 
ATOM    104  H67 GLY d   1      14.409  -0.802  69.729  0.00  0.00     0.080 H 
BRANCH 102 105
ATOM    105  C   GLY d   1      14.995   1.255  69.888  0.00  0.00     0.191 C 
ATOM    106  O   GLY d   1      14.666   1.619  68.742  0.00  0.00    -0.647 OA
ATOM    107  OXT GLY d   1      15.865   1.860  70.570  0.00  0.00    -0.647 OA
ENDBRANCH 102 105
ENDBRANCH 100 102
ENDBRANCH  95  98
ENDBRANCH  93  95
ENDBRANCH  89  91
BRANCH  89 108
ATOM    108  CB  PHE d   1      12.147  -2.405  75.346  0.00  0.00    -0.014 C 
ATOM    109  H55 PHE d   1      12.310  -3.489  75.438  0.00  0.00     0.043 H 
ATOM    110  H56 PHE d   1      11.744  -2.178  74.348  0.00  0.00     0.043 H 
BRANCH 108 111
ATOM    111  CG  PHE d   1      11.134  -1.981  76.381  0.00  0.00    -0.056 A 
ATOM    112  CD1 PHE d   1      11.188  -2.486  77.677  0.00  0.00    -0.077 A 
ATOM    113  CE1 PHE d   1      10.307  -2.030  78.656  0.00  0.00    -0.082 A 
ATOM    114  H57 PHE d   1      11.923  -3.242  77.928  0.00  0.00     0.084 H 
ATOM    115  CZ  PHE d   1       9.366  -1.070  78.337  0.00  0.00    -0.083 A 
ATOM    116  H59 PHE d   1      10.360  -2.427  79.663  0.00  0.00     0.083 H 
ATOM    117  CE2 PHE d   1       9.300  -0.562  77.041  0.00  0.00    -0.082 A 
ATOM    118  H61 PHE d   1       8.679  -0.712  79.095  0.00  0.00     0.083 H 
ATOM    119  CD2 PHE d   1      10.177  -1.020  76.078  0.00  0.00    -0.077 A 
ATOM    120  H60 PHE d   1       8.562   0.191  76.790  0.00  0.00     0.083 H 
ATOM    121  H58 PHE d   1      10.118  -0.624  75.071  0.00  0.00     0.084 H 
ENDBRANCH 108 111
ENDBRANCH  89 108
ENDBRANCH  87  89
ENDBRANCH  83  85
BRANCH  83 122
ATOM    122  CB  GLN d   1      12.047   1.984  77.593  0.00  0.00    -0.030 C 
ATOM    123  H47 GLN d   1      11.233   1.446  77.084  0.00  0.00     0.037 H 
ATOM    124  H48 GLN d   1      11.779   3.046  77.692  0.00  0.00     0.037 H 
BRANCH 122 125
ATOM    125  CG  GLN d   1      12.213   1.393  79.000  0.00  0.00     0.011 C 
ATOM    126  H49 GLN d   1      13.097   1.853  79.465  0.00  0.00     0.047 H 
ATOM    127  H50 GLN d   1      12.372   0.309  78.902  0.00  0.00     0.047 H 
BRANCH 125 128
ATOM    128  CD  GLN d   1      11.016   1.620  79.920  0.00  0.00     0.215 C 
ATOM    129  OE1 GLN d   1      10.799   0.871  80.882  0.00  0.00    -0.274 OA
ATOM    130  NE2 GLN d   1      10.219   2.626  79.612  0.00  0.00    -0.370 N 
ATOM    131  H51 GLN d   1       9.419   2.822  80.179  0.00  0.00     0.159 HD
ATOM    132  H52 GLN d   1      10.415   3.192  78.811  0.00  0.00     0.159 HD
ENDBRANCH 125 128
ENDBRANCH 122 125
ENDBRANCH  83 122
ENDBRANCH  81  83
ENDBRANCH  68  79
ENDBRANCH   1  65
BRANCH   1 133
ATOM    133  CB  HIS d   1       9.317   1.767  73.375  0.00  0.00     0.004 C 
ATOM    134  H33 HIS d   1       9.589   0.926  74.030  0.00  0.00     0.046 H 
ATOM    135  H34 HIS d   1       8.289   1.629  73.010  0.00  0.00     0.046 H 
BRANCH 133 136
ATOM    136  CG  HIS d   1       9.366   3.027  74.180  0.00  0.00     0.053 A 
ATOM    137  ND1 HIS d   1      10.340   3.269  75.123  0.00  0.00    -0.247 NA
ATOM    138  CE1 HIS d   1      10.180   4.486  75.610  0.00  0.00     0.064 A 
ATOM    139  NE2 HIS d   1       9.131   5.038  75.027  0.00  0.00    -0.359 N 
ATOM    140  H36 HIS d   1      10.808   4.956  76.366  0.00  0.00     0.143 H 
ATOM    141  CD2 HIS d   1       8.601   4.145  74.131  0.00  0.00     0.002 A 
ATOM    142  H37 HIS d   1       8.770   5.984  75.215  0.00  0.00     0.166 HD
ATOM    143  H35 HIS d   1       7.729   4.304  73.499  0.00  0.00     0.114 H 
ENDBRANCH 133 136
ENDBRANCH   1 133
TORSDOF 31
