REMARK  9 active torsions:
REMARK  status: ('A' for Active; 'I' for Inactive)
REMARK    1  A    between atoms: C13_15  and  C1_1 
REMARK    2  A    between atoms: C7_7  and  C13_15 
REMARK    3  A    between atoms: N8_8  and  C17_19 
REMARK    4  A    between atoms: C12_14  and  C14_16 
REMARK    5  A    between atoms: C14_16  and  C15_17 
REMARK    6  A    between atoms: C14_16  and  C16_18 
REMARK    7  A    between atoms: C17_19  and  O17_20 
REMARK    8  A    between atoms: O17_20  and  C18_21 
REMARK    9  A    between atoms: C18_21  and  C19_22 
ROOT
ATOM      1  C7  MKC d   1      -1.847 -34.886  24.622  0.00  0.00     0.035 A 
ATOM      2  N8  MKC d   1      -2.680 -34.017  23.950  0.00  0.00    -0.280 N 
ATOM      3  C9  MKC d   1      -2.833 -34.057  22.571  0.00  0.00     0.331 A 
ATOM      4  O9  MKC d   1      -3.627 -33.334  21.968  0.00  0.00    -0.246 OA
ATOM      5  N10 MKC d   1      -2.084 -34.997  21.911  0.00  0.00    -0.275 N 
ATOM      6  C11 MKC d   1      -1.204 -35.894  22.496  0.00  0.00     0.257 A 
ATOM      7  O11 MKC d   1      -0.547 -36.670  21.810  0.00  0.00    -0.267 OA
ATOM      8  C12 MKC d   1      -1.119 -35.815  23.921  0.00  0.00     0.037 A 
ATOM      9  H6  MKC d   1      -2.182 -35.039  20.917  0.00  0.00     0.173 HD
ENDROOT
BRANCH   1  10
ATOM     10  C13 MKC d   1      -1.856 -34.852  26.139  0.00  0.00    -0.002 C 
ATOM     11  H7  MKC d   1      -2.902 -34.771  26.469  0.00  0.00     0.049 H 
ATOM     12  H8  MKC d   1      -1.430 -35.800  26.500  0.00  0.00     0.049 H 
BRANCH  10  13
ATOM     13  C1  MKC d   1      -1.083 -33.726  26.773  0.00  0.00    -0.053 A 
ATOM     14  C2  MKC d   1      -1.574 -33.107  27.914  0.00  0.00    -0.076 A 
ATOM     15  C3  MKC d   1      -0.797 -32.196  28.614  0.00  0.00    -0.082 A 
ATOM     16  H1  MKC d   1      -2.575 -33.338  28.262  0.00  0.00     0.084 H 
ATOM     17  C4  MKC d   1       0.488 -31.887  28.179  0.00  0.00    -0.083 A 
ATOM     18  H2  MKC d   1      -1.193 -31.722  29.505  0.00  0.00     0.083 H 
ATOM     19  C5  MKC d   1       0.987 -32.487  27.045  0.00  0.00    -0.082 A 
ATOM     20  H3  MKC d   1       1.093 -31.177  28.731  0.00  0.00     0.083 H 
ATOM     21  C6  MKC d   1       0.204 -33.402  26.341  0.00  0.00    -0.076 A 
ATOM     22  H4  MKC d   1       1.987 -32.249  26.700  0.00  0.00     0.083 H 
ATOM     23  H5  MKC d   1       0.601 -33.868  25.446  0.00  0.00     0.084 H 
ENDBRANCH  10  13
ENDBRANCH   1  10
BRANCH   2  24
ATOM     24  C17 MKC d   1      -3.351 -32.919  24.674  0.00  0.00     0.088 C 
ATOM     25  H16 MKC d   1      -3.672 -32.158  23.948  0.00  0.00     0.108 H 
ATOM     26  H17 MKC d   1      -2.638 -32.472  25.383  0.00  0.00     0.108 H 
BRANCH  24  27
ATOM     27  O17 MKC d   1      -4.493 -33.378  25.396  0.00  0.00    -0.372 OA
BRANCH  27  28
ATOM     28  C18 MKC d   1      -5.705 -33.516  24.638  0.00  0.00     0.018 C 
ATOM     29  H18 MKC d   1      -5.462 -34.073  23.721  0.00  0.00     0.073 H 
ATOM     30  H19 MKC d   1      -6.048 -32.505  24.373  0.00  0.00     0.073 H 
BRANCH  28  31
ATOM     31  C19 MKC d   1      -6.836 -34.214  25.300  0.00  0.00    -0.056 C 
ATOM     32  H20 MKC d   1      -7.696 -34.251  24.615  0.00  0.00     0.030 H 
ATOM     33  H21 MKC d   1      -7.118 -33.670  26.214  0.00  0.00     0.030 H 
ATOM     34  H22 MKC d   1      -6.532 -35.238  25.562  0.00  0.00     0.030 H 
ENDBRANCH  28  31
ENDBRANCH  27  28
ENDBRANCH  24  27
ENDBRANCH   2  24
BRANCH   8  35
ATOM     35  C14 MKC d   1      -0.214 -36.877  24.521  0.00  0.00    -0.028 C 
ATOM     36  H9  MKC d   1       0.322 -37.274  23.646  0.00  0.00     0.046 H 
BRANCH  35  37
ATOM     37  C15 MKC d   1      -0.937 -38.087  25.073  0.00  0.00    -0.069 C 
ATOM     38  H10 MKC d   1      -0.204 -38.797  25.484  0.00  0.00     0.028 H 
ATOM     39  H11 MKC d   1      -1.506 -38.573  24.267  0.00  0.00     0.028 H 
ATOM     40  H12 MKC d   1      -1.627 -37.770  25.869  0.00  0.00     0.028 H 
ENDBRANCH  35  37
BRANCH  35  41
ATOM     41  C16 MKC d   1       0.891 -36.369  25.402  0.00  0.00    -0.069 C 
ATOM     42  H13 MKC d   1       1.362 -35.494  24.931  0.00  0.00     0.028 H 
ATOM     43  H14 MKC d   1       1.643 -37.160  25.541  0.00  0.00     0.028 H 
ATOM     44  H15 MKC d   1       0.477 -36.081  26.380  0.00  0.00     0.028 H 
ENDBRANCH  35  41
ENDBRANCH   8  35
TORSDOF 9
