REMARK  9 active torsions:
REMARK  status: ('A' for Active; 'I' for Inactive)
REMARK    1  A    between atoms: C13_15  and  C1_1 
REMARK    2  A    between atoms: C7_7  and  C13_15 
REMARK    3  A    between atoms: N8_8  and  C17_19 
REMARK    4  A    between atoms: C12_14  and  C14_16 
REMARK    5  A    between atoms: C14_16  and  C15_17 
REMARK    6  A    between atoms: C14_16  and  C16_18 
REMARK    7  A    between atoms: C17_19  and  O17_20 
REMARK    8  A    between atoms: O17_20  and  C18_21 
REMARK    9  A    between atoms: C18_21  and  C19_22 
ROOT
ATOM      1  C7  TNK d   1      -1.806 -35.593  24.390  0.00  0.00     0.035 A 
ATOM      2  N8  TNK d   1      -2.573 -34.877  23.531  0.00  0.00    -0.280 N 
ATOM      3  C9  TNK d   1      -2.470 -35.029  22.130  0.00  0.00     0.331 A 
ATOM      4  O9  TNK d   1      -3.143 -34.409  21.323  0.00  0.00    -0.246 OA
ATOM      5  N10 TNK d   1      -1.547 -35.927  21.682  0.00  0.00    -0.275 N 
ATOM      6  C11 TNK d   1      -0.718 -36.681  22.467  0.00  0.00     0.257 A 
ATOM      7  O11 TNK d   1       0.085 -37.431  21.923  0.00  0.00    -0.267 OA
ATOM      8  C12 TNK d   1      -0.896 -36.466  23.918  0.00  0.00     0.037 A 
ATOM      9  H6  TNK d   1      -1.469 -36.045  20.692  0.00  0.00     0.173 HD
ENDROOT
BRANCH   2  10
ATOM     10  C17 TNK d   1      -3.517 -33.915  24.082  0.00  0.00     0.088 C 
ATOM     11  H16 TNK d   1      -3.167 -32.895  23.867  0.00  0.00     0.108 H 
ATOM     12  H17 TNK d   1      -3.590 -34.056  25.170  0.00  0.00     0.108 H 
BRANCH  10  13
ATOM     13  O17 TNK d   1      -4.776 -34.107  23.502  0.00  0.00    -0.367 OA
BRANCH  13  14
ATOM     14  C18 TNK d   1      -5.909 -33.888  24.330  0.00  0.00     0.045 C 
ATOM     15  H18 TNK d   1      -6.326 -32.900  24.086  0.00  0.00     0.081 H 
ATOM     16  H19 TNK d   1      -5.574 -33.896  25.378  0.00  0.00     0.081 H 
BRANCH  14  17
ATOM     17  C19 TNK d   1      -6.989 -34.893  24.183  0.00  0.00    -0.035 A 
ATOM     18  C20 TNK d   1      -6.896 -35.868  23.190  0.00  0.00    -0.075 A 
ATOM     19  C21 TNK d   1      -7.842 -36.852  23.077  0.00  0.00    -0.082 A 
ATOM     20  H20 TNK d   1      -6.062 -35.847  22.497  0.00  0.00     0.084 H 
ATOM     21  C22 TNK d   1      -8.907 -36.882  23.958  0.00  0.00    -0.083 A 
ATOM     22  H21 TNK d   1      -7.756 -37.604  22.301  0.00  0.00     0.083 H 
ATOM     23  C23 TNK d   1      -9.020 -35.914  24.951  0.00  0.00    -0.082 A 
ATOM     24  H22 TNK d   1      -9.656 -37.661  23.875  0.00  0.00     0.083 H 
ATOM     25  C24 TNK d   1      -8.058 -34.918  25.059  0.00  0.00    -0.075 A 
ATOM     26  H23 TNK d   1      -9.857 -35.937  25.639  0.00  0.00     0.083 H 
ATOM     27  H24 TNK d   1      -8.145 -34.161  25.830  0.00  0.00     0.084 H 
ENDBRANCH  14  17
ENDBRANCH  13  14
ENDBRANCH  10  13
ENDBRANCH   2  10
BRANCH   1  28
ATOM     28  C13 TNK d   1      -2.067 -35.485  25.871  0.00  0.00    -0.002 C 
ATOM     29  H7  TNK d   1      -3.116 -35.184  26.010  0.00  0.00     0.049 H 
ATOM     30  H8  TNK d   1      -1.908 -36.478  26.317  0.00  0.00     0.049 H 
BRANCH  28  31
ATOM     31  C1  TNK d   1      -1.210 -34.512  26.598  0.00  0.00    -0.053 A 
ATOM     32  C2  TNK d   1      -1.706 -33.843  27.700  0.00  0.00    -0.076 A 
ATOM     33  C3  TNK d   1      -0.901 -32.971  28.424  0.00  0.00    -0.082 A 
ATOM     34  H1  TNK d   1      -2.735 -34.000  28.004  0.00  0.00     0.084 H 
ATOM     35  C4  TNK d   1       0.410 -32.759  28.051  0.00  0.00    -0.083 A 
ATOM     36  H2  TNK d   1      -1.306 -32.455  29.287  0.00  0.00     0.083 H 
ATOM     37  C5  TNK d   1       0.921 -33.417  26.948  0.00  0.00    -0.082 A 
ATOM     38  H3  TNK d   1       1.036 -32.081  28.619  0.00  0.00     0.083 H 
ATOM     39  C6  TNK d   1       0.110 -34.291  26.223  0.00  0.00    -0.076 A 
ATOM     40  H4  TNK d   1       1.950 -33.254  26.647  0.00  0.00     0.083 H 
ATOM     41  H5  TNK d   1       0.514 -34.803  25.357  0.00  0.00     0.084 H 
ENDBRANCH  28  31
ENDBRANCH   1  28
BRANCH   8  42
ATOM     42  C14 TNK d   1      -0.019 -37.266  24.848  0.00  0.00    -0.028 C 
ATOM     43  H9  TNK d   1      -0.042 -36.733  25.810  0.00  0.00     0.046 H 
BRANCH  42  44
ATOM     44  C15 TNK d   1      -0.578 -38.637  25.127  0.00  0.00    -0.069 C 
ATOM     45  H10 TNK d   1       0.097 -39.177  25.808  0.00  0.00     0.028 H 
ATOM     46  H11 TNK d   1      -0.670 -39.195  24.183  0.00  0.00     0.028 H 
ATOM     47  H12 TNK d   1      -1.569 -38.541  25.594  0.00  0.00     0.028 H 
ENDBRANCH  42  44
BRANCH  42  48
ATOM     48  C16 TNK d   1       1.456 -37.292  24.428  0.00  0.00    -0.069 C 
ATOM     49  H13 TNK d   1       1.802 -36.265  24.240  0.00  0.00     0.028 H 
ATOM     50  H14 TNK d   1       1.566 -37.889  23.511  0.00  0.00     0.028 H 
ATOM     51  H15 TNK d   1       2.058 -37.740  25.232  0.00  0.00     0.028 H 
ENDBRANCH  42  48
ENDBRANCH   8  42
TORSDOF 9
