REMARK  5 active torsions:
REMARK  status: ('A' for Active; 'I' for Inactive)
REMARK    1  A    between atoms: O5'_1  and  C5'_2 
REMARK    2  A    between atoms: C5'_2  and  C4'_3 
REMARK    3  A    between atoms: C3'_5  and  O3'_6 
REMARK    4  A    between atoms: C2'_7  and  O2'_8 
REMARK    5  A    between atoms: C1'_9  and  C9_10 
ROOT
ATOM      1  C4' IMH d   1       3.168  19.587  23.269  0.00  0.00     0.149 A 
ATOM      2  N4' IMH d   1       3.774  19.716  24.568  0.00  0.00    -0.055 N 
ATOM      3  C3' IMH d   1       3.067  18.131  22.934  0.00  0.00     0.092 A 
ATOM      4  C2' IMH d   1       3.680  17.424  24.105  0.00  0.00     0.094 A 
ATOM      5  C1' IMH d   1       4.104  18.462  25.184  0.00  0.00     0.158 A 
ATOM      6  H4  IMH d   1       3.821  20.077  22.532  0.00  0.00     0.091 H 
ATOM      7  H5  IMH d   1       3.131  20.206  25.171  0.00  0.00     0.278 HD
ATOM      8  H6  IMH d   1       4.621  20.254  24.471  0.00  0.00     0.278 HD
ATOM      9  H7  IMH d   1       2.028  17.806  22.779  0.00  0.00     0.090 H 
ATOM     10  H9  IMH d   1       2.938  16.738  24.540  0.00  0.00     0.090 H 
ATOM     11  H11 IMH d   1       5.176  18.373  25.413  0.00  0.00     0.096 H 
ENDROOT
BRANCH   5  12
ATOM     12  C9  IMH d   1       3.274  18.396  26.482  0.00  0.00     0.022 A 
ATOM     13  C8  IMH d   1       3.184  19.433  27.411  0.00  0.00    -0.012 A 
ATOM     14  N7  IMH d   1       2.417  19.189  28.437  0.00  0.00    -0.359 N 
ATOM     15  H12 IMH d   1       3.715  20.376  27.288  0.00  0.00     0.112 H 
ATOM     16  C5  IMH d   1       1.935  17.901  28.231  0.00  0.00     0.130 A 
ATOM     17  H13 IMH d   1       2.212  19.815  29.229  0.00  0.00     0.165 HD
ATOM     18  C6  IMH d   1       1.037  17.122  29.036  0.00  0.00     0.275 A 
ATOM     19  C4  IMH d   1       2.436  17.372  27.038  0.00  0.00     0.100 A 
ATOM     20  O6  IMH d   1       0.519  17.460  30.093  0.00  0.00    -0.266 OA
ATOM     21  N1  IMH d   1       0.770  15.847  28.507  0.00  0.00    -0.316 N 
ATOM     22  C2  IMH d   1       1.306  15.363  27.309  0.00  0.00     0.067 A 
ATOM     23  H14 IMH d   1       0.157  15.247  29.021  0.00  0.00     0.170 HD
ATOM     24  N3  IMH d   1       2.155  16.101  26.533  0.00  0.00    -0.241 NA
ATOM     25  H15 IMH d   1       1.036  14.360  26.982  0.00  0.00     0.143 H 
ENDBRANCH   5  12
BRANCH   4  26
ATOM     26  O2' IMH d   1       4.819  16.665  23.669  0.00  0.00    -0.390 OA
ATOM     27  H10 IMH d   1       5.460  17.251  23.283  0.00  0.00     0.210 HD
ENDBRANCH   4  26
BRANCH   1  28
ATOM     28  C5' IMH d   1       1.833  20.221  23.190  0.00  0.00     0.046 C 
ATOM     29  H2  IMH d   1       1.433  20.117  22.171  0.00  0.00     0.077 H 
ATOM     30  H3  IMH d   1       1.149  19.737  23.903  0.00  0.00     0.077 H 
BRANCH  28  31
ATOM     31  O5' IMH d   1       1.969  21.596  23.514  0.00  0.00    -0.399 OA
ATOM     32  H1  IMH d   1       1.119  22.017  23.467  0.00  0.00     0.209 HD
ENDBRANCH  28  31
ENDBRANCH   1  28
BRANCH   3  33
ATOM     33  O3' IMH d   1       3.837  17.975  21.732  0.00  0.00    -0.391 OA
ATOM     34  H8  IMH d   1       4.735  18.237  21.896  0.00  0.00     0.210 HD
ENDBRANCH   3  33
TORSDOF 5
