REMARK  4 active torsions:
REMARK  status: ('A' for Active; 'I' for Inactive)
REMARK    1  A    between atoms: N6_8  and  C12_9 
REMARK    2  A    between atoms: C9_13  and  N_14 
REMARK    3  A    between atoms: N11_19  and  C14_20 
REMARK    4  A    between atoms: C14_20  and  C15_21 
ROOT
ATOM      1  N1  U05 d   1      -1.553 -35.620  23.186  0.00  0.00    -0.242 NA
ATOM      2  C2  U05 d   1      -2.482 -35.052  22.341  0.00  0.00     0.004 A 
ATOM      3  C3  U05 d   1      -3.446 -34.136  22.804  0.00  0.00    -0.065 A 
ATOM      4  C4  U05 d   1      -3.446 -33.779  24.204  0.00  0.00    -0.062 A 
ATOM      5  C4A U05 d   1      -2.488 -34.349  25.045  0.00  0.00     0.078 A 
ATOM      6  C5  U05 d   1      -2.463 -33.954  26.520  0.00  0.00     0.261 C 
ATOM      7  O13 U05 d   1      -3.545 -33.685  27.040  0.00  0.00    -0.267 OA
ATOM      8  N6  U05 d   1      -1.308 -33.846  27.231  0.00  0.00    -0.316 N 
ATOM      9  C6A U05 d   1       0.077 -34.053  26.776  0.00  0.00     0.064 A 
ATOM     10  C7  U05 d   1       1.131 -33.275  27.292  0.00  0.00    -0.052 A 
ATOM     11  C8  U05 d   1       2.460 -33.435  26.796  0.00  0.00    -0.049 A 
ATOM     12  C9  U05 d   1       2.737 -34.370  25.789  0.00  0.00     0.105 A 
ATOM     13  C10 U05 d   1       1.685 -35.150  25.305  0.00  0.00    -0.023 A 
ATOM     14  C11 U05 d   1       0.374 -34.997  25.807  0.00  0.00     0.065 A 
ATOM     15  N11 U05 d   1      -0.667 -35.844  25.433  0.00  0.00    -0.329 N 
ATOM     16  C1A U05 d   1      -1.567 -35.272  24.508  0.00  0.00     0.145 A 
ATOM     17  H1  U05 d   1      -2.470 -35.318  21.290  0.00  0.00     0.114 H 
ATOM     18  H2  U05 d   1      -4.173 -33.707  22.124  0.00  0.00     0.085 H 
ATOM     19  H3  U05 d   1      -4.177 -33.081  24.595  0.00  0.00     0.085 H 
ATOM     20  H7  U05 d   1       0.932 -32.549  28.072  0.00  0.00     0.087 H 
ATOM     21  H8  U05 d   1       3.262 -32.828  27.201  0.00  0.00     0.087 H 
ATOM     22  H9  U05 d   1       1.878 -35.885  24.532  0.00  0.00     0.090 H 
ENDROOT
BRANCH  15  23
ATOM     23  C14 U05 d   1      -0.372 -37.368  25.413  0.00  0.00    -0.002 C 
ATOM     24  H10 U05 d   1      -1.210 -37.884  25.904  0.00  0.00     0.064 H 
ATOM     25  H11 U05 d   1       0.551 -37.544  25.984  0.00  0.00     0.064 H 
BRANCH  23  26
ATOM     26  C15 U05 d   1      -0.198 -37.954  24.075  0.00  0.00    -0.061 C 
ATOM     27  H12 U05 d   1       0.005 -39.031  24.170  0.00  0.00     0.029 H 
ATOM     28  H13 U05 d   1       0.646 -37.465  23.567  0.00  0.00     0.029 H 
ATOM     29  H14 U05 d   1      -1.116 -37.805  23.487  0.00  0.00     0.029 H 
ENDBRANCH  23  26
ENDBRANCH  15  23
BRANCH   8  30
ATOM     30  C12 U05 d   1      -1.415 -33.561  28.691  0.00  0.00    -0.011 C 
ATOM     31  H4  U05 d   1      -2.472 -33.418  28.960  0.00  0.00     0.057 H 
ATOM     32  H5  U05 d   1      -0.849 -32.648  28.929  0.00  0.00     0.057 H 
ATOM     33  H6  U05 d   1      -1.003 -34.407  29.261  0.00  0.00     0.057 H 
ENDBRANCH   8  30
BRANCH  12  34
ATOM     34  N   U05 d   1       4.155 -34.534  25.215  0.00  0.00    -0.116 N 
ATOM     35  O2  U05 d   1       5.034 -33.902  25.742  0.00  0.00    -0.532 OA
ATOM     36  O1  U05 d   1       4.345 -35.310  24.277  0.00  0.00    -0.532 OA
ENDBRANCH  12  34
TORSDOF 4
