REMARK  8 active torsions:
REMARK  status: ('A' for Active; 'I' for Inactive)
REMARK    1  A    between atoms: N1_1  and  CM_10 
REMARK    2  A    between atoms: C5_7  and  CM5_9 
REMARK    3  A    between atoms: C6_8  and  S'_15 
REMARK    4  A    between atoms: CM_10  and  OM_11 
REMARK    5  A    between atoms: OM_11  and  CE1_12 
REMARK    6  A    between atoms: CE1_12  and  CE2_13 
REMARK    7  A    between atoms: CE2_13  and  OE_14 
REMARK    8  A    between atoms: S'_15  and  C1'_16 
ROOT
ATOM      1  N1  HEF d   1      -2.833 -34.654  23.823  0.00  0.00    -0.271 N 
ATOM      2  C2  HEF d   1      -2.690 -34.894  22.457  0.00  0.00     0.332 A 
ATOM      3  O2  HEF d   1      -3.327 -34.273  21.605  0.00  0.00    -0.246 OA
ATOM      4  N3  HEF d   1      -1.777 -35.880  22.112  0.00  0.00    -0.275 N 
ATOM      5  C4  HEF d   1      -1.011 -36.631  22.996  0.00  0.00     0.258 A 
ATOM      6  O4  HEF d   1      -0.235 -37.484  22.569  0.00  0.00    -0.267 OA
ATOM      7  C5  HEF d   1      -1.223 -36.310  24.401  0.00  0.00     0.040 A 
ATOM      8  C6  HEF d   1      -2.108 -35.350  24.760  0.00  0.00     0.094 A 
ATOM      9  H1  HEF d   1      -1.659 -36.068  21.137  0.00  0.00     0.173 HD
ENDROOT
BRANCH   1  10
ATOM     10  CM  HEF d   1      -3.817 -33.641  24.248  0.00  0.00     0.088 C 
ATOM     11  H5  HEF d   1      -3.658 -32.721  23.666  0.00  0.00     0.108 H 
ATOM     12  H6  HEF d   1      -3.672 -33.428  25.317  0.00  0.00     0.108 H 
BRANCH  10  13
ATOM     13  OM  HEF d   1      -5.157 -34.097  24.042  0.00  0.00    -0.369 OA
BRANCH  13  14
ATOM     14  CE1 HEF d   1      -6.010 -33.727  25.132  0.00  0.00     0.041 C 
ATOM     15  H7  HEF d   1      -5.853 -32.663  25.363  0.00  0.00     0.077 H 
ATOM     16  H8  HEF d   1      -5.750 -34.335  26.011  0.00  0.00     0.077 H 
BRANCH  14  17
ATOM     17  CE2 HEF d   1      -7.482 -33.948  24.796  0.00  0.00     0.036 C 
ATOM     18  H9  HEF d   1      -7.824 -33.134  24.140  0.00  0.00     0.077 H 
ATOM     19  H10 HEF d   1      -8.066 -33.937  25.728  0.00  0.00     0.077 H 
BRANCH  17  20
ATOM     20  OE  HEF d   1      -7.690 -35.187  24.138  0.00  0.00    -0.399 OA
ATOM     21  H11 HEF d   1      -7.193 -35.202  23.329  0.00  0.00     0.209 HD
ENDBRANCH  17  20
ENDBRANCH  14  17
ENDBRANCH  13  14
ENDBRANCH  10  13
ENDBRANCH   1  10
BRANCH   8  22
ATOM     22  S'  HEF d   1      -2.354 -34.935  26.517  0.00  0.00    -0.072 SA
BRANCH  22  23
ATOM     23  C1' HEF d   1      -0.893 -33.968  27.015  0.00  0.00     0.007 A 
ATOM     24  C2' HEF d   1      -0.748 -33.568  28.338  0.00  0.00    -0.066 A 
ATOM     25  C3' HEF d   1       0.386 -32.869  28.737  0.00  0.00    -0.082 A 
ATOM     26  H12 HEF d   1      -1.521 -33.802  29.061  0.00  0.00     0.085 H 
ATOM     27  C4' HEF d   1       1.379 -32.566  27.811  0.00  0.00    -0.083 A 
ATOM     28  H13 HEF d   1       0.496 -32.560  29.770  0.00  0.00     0.083 H 
ATOM     29  C5' HEF d   1       1.236 -32.965  26.488  0.00  0.00    -0.082 A 
ATOM     30  H14 HEF d   1       2.263 -32.020  28.121  0.00  0.00     0.083 H 
ATOM     31  C6' HEF d   1       0.098 -33.665  26.090  0.00  0.00    -0.066 A 
ATOM     32  H15 HEF d   1       2.009 -32.732  25.765  0.00  0.00     0.083 H 
ATOM     33  H16 HEF d   1      -0.014 -33.973  25.057  0.00  0.00     0.085 H 
ENDBRANCH  22  23
ENDBRANCH   8  22
BRANCH   7  34
ATOM     34  CM5 HEF d   1      -0.464 -37.092  25.475  0.00  0.00    -0.043 C 
ATOM     35  H2  HEF d   1       0.203 -37.822  24.994  0.00  0.00     0.033 H 
ATOM     36  H3  HEF d   1      -1.182 -37.620  26.120  0.00  0.00     0.033 H 
ATOM     37  H4  HEF d   1       0.132 -36.396  26.083  0.00  0.00     0.033 H 
ENDBRANCH   7  34
TORSDOF 8
