REMARK  10 active torsions:
REMARK  status: ('A' for Active; 'I' for Inactive)
REMARK    1  A    between atoms: C10_25  and  C12_4 
REMARK       I    between atoms: C26_5  and  N4_6 
REMARK       I    between atoms: N3_12  and  C26_5 
REMARK    2  A    between atoms: N4_6  and  C29_7 
REMARK    3  A    between atoms: C13_13  and  N3_12 
REMARK    4  A    between atoms: C13_13  and  C19_14 
REMARK    5  A    between atoms: C14_17  and  C13_13 
REMARK    6  A    between atoms: C19_14  and  C22_15 
REMARK    7  A    between atoms: C19_14  and  C18_16 
REMARK       I    between atoms: N2_19  and  C14_17 
REMARK    8  A    between atoms: C6_20  and  C25_27 
REMARK    9  A    between atoms: N1_24  and  C8_21 
REMARK       I    between atoms: N1_24  and  C10_25 
REMARK   10  A    between atoms: C25_27  and  C24_28 
ROOT
ATOM      1  C14 CPX d   1       7.514  28.543  11.482  0.00  0.00     0.243 C 
ATOM      2  O15 CPX d   1       8.296  29.129  12.285  0.00  0.00    -0.271 OA
ATOM      3  N2  CPX d   1       7.252  27.194  11.560  0.00  0.00    -0.343 N 
ATOM      4  C6  CPX d   1       7.858  26.397  12.596  0.00  0.00     0.044 C 
ATOM      5  C8  CPX d   1       6.746  25.194  12.691  0.00  0.00     0.034 C 
ATOM      6  C9  CPX d   1       5.758  25.787  12.026  0.00  0.00    -0.029 C 
ATOM      7  C7  CPX d   1       6.409  26.328  10.719  0.00  0.00     0.000 C 
ATOM      8  H25 CPX d   1       7.655  27.014  13.484  0.00  0.00     0.077 H 
ATOM      9  H26 CPX d   1       7.120  24.319  12.139  0.00  0.00     0.075 H 
ATOM     10  H27 CPX d   1       5.337  26.613  12.617  0.00  0.00     0.038 H 
ATOM     11  H28 CPX d   1       4.964  25.064  11.790  0.00  0.00     0.038 H 
ATOM     12  H29 CPX d   1       6.963  25.575  10.139  0.00  0.00     0.064 H 
ATOM     13  H30 CPX d   1       5.719  26.868  10.054  0.00  0.00     0.064 H 
ENDROOT
BRANCH   1  14
ATOM     14  C13 CPX d   1       6.819  29.448  10.432  0.00  0.00     0.094 C 
ATOM     15  H17 CPX d   1       5.841  29.005  10.192  0.00  0.00     0.088 H 
BRANCH  14  16
ATOM     16  N3  CPX d   1       6.675  30.783  10.939  0.00  0.00    -0.330 N 
ATOM     17  C26 CPX d   1       5.802  31.463  11.792  0.00  0.00     0.317 C 
ATOM     18  O27 CPX d   1       4.826  30.830  12.265  0.00  0.00    -0.247 OA
ATOM     19  N4  CPX d   1       6.245  32.749  11.929  0.00  0.00    -0.339 N 
ATOM     20  H6  CPX d   1       7.114  32.786  11.435  0.00  0.00     0.164 HD
ATOM     21  H16 CPX d   1       7.390  31.388  10.588  0.00  0.00     0.165 HD
BRANCH  19  22
ATOM     22  C29 CPX d   1       6.040  34.104  12.464  0.00  0.00     0.014 C 
ATOM     23  C30 CPX d   1       7.202  34.678  13.424  0.00  0.00    -0.046 C 
ATOM     24  C32 CPX d   1       8.122  35.618  12.615  0.00  0.00    -0.063 C 
ATOM     25  H8  CPX d   1       7.794  33.841  13.824  0.00  0.00     0.035 H 
ATOM     26  H9  CPX d   1       6.748  35.236  14.256  0.00  0.00     0.035 H 
ATOM     27  C31 CPX d   1       7.497  35.750  11.219  0.00  0.00    -0.063 C 
ATOM     28  H10 CPX d   1       9.132  35.188  12.540  0.00  0.00     0.033 H 
ATOM     29  H11 CPX d   1       8.178  36.604  13.100  0.00  0.00     0.033 H 
ATOM     30  C28 CPX d   1       6.061  35.168  11.302  0.00  0.00    -0.046 C 
ATOM     31  H12 CPX d   1       8.091  35.185  10.485  0.00  0.00     0.033 H 
ATOM     32  H13 CPX d   1       7.458  36.808  10.922  0.00  0.00     0.033 H 
ATOM     33  H14 CPX d   1       5.343  35.973  11.518  0.00  0.00     0.035 H 
ATOM     34  H15 CPX d   1       5.796  34.687  10.349  0.00  0.00     0.035 H 
ATOM     35  H7  CPX d   1       5.077  34.118  12.995  0.00  0.00     0.072 H 
ENDBRANCH  19  22
ENDBRANCH  14  16
BRANCH  14  36
ATOM     36  C19 CPX d   1       7.607  29.719   9.135  0.00  0.00    -0.033 C 
ATOM     37  H18 CPX d   1       8.240  30.604   9.300  0.00  0.00     0.042 H 
BRANCH  36  38
ATOM     38  C22 CPX d   1       8.557  28.573   8.783  0.00  0.00    -0.071 C 
ATOM     39  H19 CPX d   1       9.094  28.814   7.854  0.00  0.00     0.028 H 
ATOM     40  H20 CPX d   1       7.979  27.647   8.643  0.00  0.00     0.028 H 
ATOM     41  H21 CPX d   1       9.281  28.433   9.599  0.00  0.00     0.028 H 
ENDBRANCH  36  38
BRANCH  36  42
ATOM     42  C18 CPX d   1       6.586  30.085   8.069  0.00  0.00    -0.071 C 
ATOM     43  H22 CPX d   1       5.961  30.916   8.429  0.00  0.00     0.028 H 
ATOM     44  H23 CPX d   1       5.950  29.213   7.856  0.00  0.00     0.028 H 
ATOM     45  H24 CPX d   1       7.108  30.391   7.151  0.00  0.00     0.028 H 
ENDBRANCH  36  42
ENDBRANCH  14  36
ENDBRANCH   1  14
BRANCH   4  46
ATOM     46  C25 CPX d   1       9.243  26.084  12.889  0.00  0.00     0.014 C 
ATOM     47  C23 CPX d   1      10.438  27.001  12.914  0.00  0.00    -0.053 C 
ATOM     48  C21 CPX d   1      10.907  26.614  11.536  0.00  0.00    -0.063 C 
ATOM     49  H33 CPX d   1      11.161  26.747  13.703  0.00  0.00     0.034 H 
ATOM     50  H34 CPX d   1      10.165  28.064  12.995  0.00  0.00     0.034 H 
ATOM     51  C20 CPX d   1      10.052  25.367  11.744  0.00  0.00    -0.053 C 
ATOM     52  H35 CPX d   1      11.988  26.431  11.443  0.00  0.00     0.033 H 
ATOM     53  H36 CPX d   1      10.576  27.279  10.725  0.00  0.00     0.033 H 
ATOM     54  H37 CPX d   1       9.442  25.094  10.870  0.00  0.00     0.034 H 
ATOM     55  H38 CPX d   1      10.620  24.488  12.083  0.00  0.00     0.034 H 
BRANCH  46  56
ATOM     56  C24 CPX d   1       9.566  25.284  14.179  0.00  0.00     0.110 C 
ATOM     57  O5  CPX d   1       9.821  24.093  13.690  0.00  0.00    -0.231 OA
ATOM     58  H32 CPX d   1       9.578  25.621  15.214  0.00  0.00     0.093 H 
ENDBRANCH  46  56
ENDBRANCH   4  46
BRANCH   5  59
ATOM     59  N1  CPX d   1       6.267  24.676  14.057  0.00  0.00    -0.354 N 
ATOM     60  C10 CPX d   1       6.834  23.407  14.234  0.00  0.00     0.222 C 
ATOM     61  O11 CPX d   1       7.639  22.818  13.442  0.00  0.00    -0.273 OA
ATOM     62  H31 CPX d   1       5.665  25.154  14.697  0.00  0.00     0.162 HD
BRANCH  60  63
ATOM     63  C12 CPX d   1       6.537  22.611  15.488  0.00  0.00     0.024 A 
ATOM     64  C17 CPX d   1       6.625  23.469  16.746  0.00  0.00    -0.053 A 
ATOM     65  C16 CPX d   1       5.302  22.885  16.304  0.00  0.00    -0.053 A 
ATOM     66  H1  CPX d   1       7.127  23.081  17.645  0.00  0.00     0.034 H 
ATOM     67  H2  CPX d   1       6.805  24.551  16.664  0.00  0.00     0.034 H 
ATOM     68  H3  CPX d   1       4.517  23.545  15.906  0.00  0.00     0.034 H 
ATOM     69  H4  CPX d   1       4.839  22.075  16.886  0.00  0.00     0.034 H 
ATOM     70  H5  CPX d   1       6.946  21.592  15.425  0.00  0.00     0.054 H 
ENDBRANCH  60  63
ENDBRANCH   5  59
TORSDOF 10
