REMARK  11 active torsions:
REMARK  status: ('A' for Active; 'I' for Inactive)
REMARK    1  A    between atoms: O3B_8  and  PG_1 
REMARK    2  A    between atoms: PB_5  and  O3B_8 
REMARK    3  A    between atoms: C3A_12  and  PB_5 
REMARK    4  A    between atoms: PA_9  and  C3A_12 
REMARK    5  A    between atoms: PA_9  and  O5_13 
REMARK    6  A    between atoms: O5_13  and  C5_14 
REMARK    7  A    between atoms: C5_14  and  C4_15 
REMARK    8  A    between atoms: C3_17  and  O3_18 
REMARK    9  A    between atoms: C2_19  and  O2_20 
REMARK   10  A    between atoms: C1_21  and  N9_22 
REMARK   11  A    between atoms: C6_26  and  N6_27 
ROOT
ATOM      1  C4  APC d   1      10.179   0.609  16.126  0.00  0.00     0.089 C 
ATOM      2  O4  APC d   1      10.193   1.064  14.759  0.00  0.00    -0.353 OA
ATOM      3  C3  APC d   1       9.231   1.464  16.861  0.00  0.00     0.091 C 
ATOM      4  C2  APC d   1       9.359   2.789  16.137  0.00  0.00     0.105 C 
ATOM      5  C1  APC d   1      10.265   2.507  14.929  0.00  0.00     0.139 C 
ATOM      6  H5  APC d   1      11.167   0.821  16.561  0.00  0.00     0.090 H 
ATOM      7  H6  APC d   1       8.211   1.071  16.737  0.00  0.00     0.091 H 
ATOM      8  H8  APC d   1       8.371   3.155  15.821  0.00  0.00     0.093 H 
ATOM      9  H10 APC d   1      11.288   2.844  15.154  0.00  0.00     0.122 H 
ENDROOT
BRANCH   1  10
ATOM     10  C5  APC d   1      10.049  -0.886  16.161  0.00  0.00     0.056 C 
ATOM     11  H3  APC d   1      10.926  -1.342  15.678  0.00  0.00     0.079 H 
ATOM     12  H4  APC d   1       9.988  -1.224  17.206  0.00  0.00     0.079 H 
BRANCH  10  13
ATOM     13  O5  APC d   1       8.834  -1.288  15.446  0.00  0.00    -0.309 OA
BRANCH  13  14
ATOM     14  PA  APC d   1       8.445  -2.769  15.015  0.00  0.00     0.261 P 
ATOM     15  O1A APC d   1       6.987  -2.615  14.658  0.00  0.00    -0.646 OA
ATOM     16  O2A APC d   1       8.738  -3.735  16.120  0.00  0.00    -0.646 OA
BRANCH  14  17
ATOM     17  C3A APC d   1       9.407  -3.174  13.562  0.00  0.00     0.127 C 
ATOM     18  H1  APC d   1       9.720  -2.239  13.075  0.00  0.00     0.072 H 
ATOM     19  H2  APC d   1      10.297  -3.740  13.875  0.00  0.00     0.072 H 
BRANCH  17  20
ATOM     20  PB  APC d   1       8.487  -4.159  12.379  0.00  0.00     0.272 P 
ATOM     21  O1B APC d   1       7.373  -3.324  11.795  0.00  0.00    -0.646 OA
ATOM     22  O2B APC d   1       8.128  -5.427  13.101  0.00  0.00    -0.646 OA
BRANCH  20  23
ATOM     23  O3B APC d   1       9.540  -4.517  11.226  0.00  0.00    -0.196 OA
BRANCH  23  24
ATOM     24  PG  APC d   1       9.788  -3.571   9.922  0.00  0.00     0.430 P 
ATOM     25  O1G APC d   1      10.184  -2.219  10.370  0.00  0.00    -0.616 OA
ATOM     26  O2G APC d   1      10.867  -4.321   9.141  0.00  0.00    -0.616 OA
ATOM     27  O3G APC d   1       8.491  -3.532   9.135  0.00  0.00    -0.616 OA
ENDBRANCH  23  24
ENDBRANCH  20  23
ENDBRANCH  17  20
ENDBRANCH  14  17
ENDBRANCH  13  14
ENDBRANCH  10  13
ENDBRANCH   1  10
BRANCH   3  28
ATOM     28  O3  APC d   1       9.476   1.558  18.233  0.00  0.00    -0.390 OA
ATOM     29  H7  APC d   1       9.427   0.693  18.622  0.00  0.00     0.210 HD
ENDBRANCH   3  28
BRANCH   5  30
ATOM     30  N9  APC d   1       9.851   3.054  13.642  0.00  0.00    -0.294 N 
ATOM     31  C8  APC d   1      10.774   3.734  12.796  0.00  0.00     0.071 A 
ATOM     32  N7  APC d   1      10.177   4.145  11.679  0.00  0.00    -0.236 NA
ATOM     33  H11 APC d   1      11.825   3.896  13.031  0.00  0.00     0.144 H 
ATOM     34  C5  APC d   1       8.841   3.706  11.833  0.00  0.00     0.149 A 
ATOM     35  C6  APC d   1       7.768   3.873  10.940  0.00  0.00     0.155 A 
ATOM     36  C4  APC d   1       8.651   3.048  13.020  0.00  0.00     0.167 A 
ATOM     37  N1  APC d   1       6.528   3.336  11.338  0.00  0.00    -0.222 NA
ATOM     38  C2  APC d   1       6.415   2.718  12.488  0.00  0.00     0.091 A 
ATOM     39  N3  APC d   1       7.435   2.498  13.456  0.00  0.00    -0.222 NA
ATOM     40  H14 APC d   1       5.432   2.330  12.730  0.00  0.00     0.146 H 
BRANCH  35  41
ATOM     41  N6  APC d   1       7.896   4.490   9.803  0.00  0.00    -0.382 N 
ATOM     42  H12 APC d   1       7.084   4.591   9.177  0.00  0.00     0.157 HD
ATOM     43  H13 APC d   1       8.809   4.878   9.528  0.00  0.00     0.157 HD
ENDBRANCH  35  41
ENDBRANCH   5  30
BRANCH   4  44
ATOM     44  O2  APC d   1      10.024   3.789  16.966  0.00  0.00    -0.388 OA
ATOM     45  H9  APC d   1      10.088   4.606  16.485  0.00  0.00     0.210 HD
ENDBRANCH   4  44
TORSDOF 11
