REMARK  11 active torsions:
REMARK  status: ('A' for Active; 'I' for Inactive)
REMARK    1  A    between atoms: O3B_8  and  PG_1 
REMARK    2  A    between atoms: PB_5  and  O3B_8 
REMARK    3  A    between atoms: C3A_12  and  PB_5 
REMARK    4  A    between atoms: PA_9  and  C3A_12 
REMARK    5  A    between atoms: PA_9  and  O5_13 
REMARK    6  A    between atoms: O5_13  and  C5_14 
REMARK    7  A    between atoms: C5_14  and  C4_15 
REMARK    8  A    between atoms: C3_17  and  O3_18 
REMARK    9  A    between atoms: C2_19  and  O2_20 
REMARK   10  A    between atoms: C1_21  and  N9_22 
REMARK   11  A    between atoms: C6_26  and  N6_27 
ROOT
ATOM      1  C4  APC d   1       2.755  14.236  16.138  0.00  0.00     0.089 C 
ATOM      2  O4  APC d   1       2.802  13.788  14.783  0.00  0.00    -0.353 OA
ATOM      3  C3  APC d   1       3.657  13.368  16.932  0.00  0.00     0.091 C 
ATOM      4  C2  APC d   1       3.564  12.051  16.235  0.00  0.00     0.105 C 
ATOM      5  C1  APC d   1       2.796  12.336  14.964  0.00  0.00     0.139 C 
ATOM      6  H5  APC d   1       1.736  14.035  16.500  0.00  0.00     0.090 H 
ATOM      7  H6  APC d   1       4.692  13.737  16.882  0.00  0.00     0.091 H 
ATOM      8  H8  APC d   1       4.577  11.693  16.001  0.00  0.00     0.093 H 
ATOM      9  H10 APC d   1       1.770  11.969  15.114  0.00  0.00     0.122 H 
ENDROOT
BRANCH   1  10
ATOM     10  C5  APC d   1       2.943  15.713  16.310  0.00  0.00     0.056 C 
ATOM     11  H3  APC d   1       2.148  16.250  15.772  0.00  0.00     0.079 H 
ATOM     12  H4  APC d   1       2.899  15.968  17.379  0.00  0.00     0.079 H 
BRANCH  10  13
ATOM     13  O5  APC d   1       4.255  16.099  15.765  0.00  0.00    -0.309 OA
BRANCH  13  14
ATOM     14  PA  APC d   1       4.480  17.592  15.232  0.00  0.00     0.261 P 
ATOM     15  O1A APC d   1       5.979  17.607  14.968  0.00  0.00    -0.646 OA
ATOM     16  O2A APC d   1       4.013  18.547  16.264  0.00  0.00    -0.646 OA
BRANCH  14  17
ATOM     17  C3A APC d   1       3.650  17.742  13.672  0.00  0.00     0.127 C 
ATOM     18  H1  APC d   1       3.656  16.762  13.172  0.00  0.00     0.072 H 
ATOM     19  H2  APC d   1       2.611  18.056  13.852  0.00  0.00     0.072 H 
BRANCH  17  20
ATOM     20  PB  APC d   1       4.438  18.941  12.602  0.00  0.00     0.272 P 
ATOM     21  O1B APC d   1       5.641  18.342  11.930  0.00  0.00    -0.646 OA
ATOM     22  O2B APC d   1       4.610  20.203  13.373  0.00  0.00    -0.646 OA
BRANCH  20  23
ATOM     23  O3B APC d   1       3.383  19.180  11.433  0.00  0.00    -0.196 OA
BRANCH  23  24
ATOM     24  PG  APC d   1       3.235  18.353  10.055  0.00  0.00     0.430 P 
ATOM     25  O1G APC d   1       2.807  16.957  10.316  0.00  0.00    -0.616 OA
ATOM     26  O2G APC d   1       2.190  19.138   9.291  0.00  0.00    -0.616 OA
ATOM     27  O3G APC d   1       4.611  18.366   9.416  0.00  0.00    -0.616 OA
ENDBRANCH  23  24
ENDBRANCH  20  23
ENDBRANCH  17  20
ENDBRANCH  14  17
ENDBRANCH  13  14
ENDBRANCH  10  13
ENDBRANCH   1  10
BRANCH   3  28
ATOM     28  O3  APC d   1       3.261  13.365  18.270  0.00  0.00    -0.390 OA
ATOM     29  H7  APC d   1       2.372  13.036  18.335  0.00  0.00     0.210 HD
ENDBRANCH   3  28
BRANCH   5  30
ATOM     30  N9  APC d   1       3.268  11.823  13.689  0.00  0.00    -0.294 N 
ATOM     31  C8  APC d   1       2.335  11.165  12.825  0.00  0.00     0.071 A 
ATOM     32  N7  APC d   1       2.963  10.779  11.726  0.00  0.00    -0.236 NA
ATOM     33  H11 APC d   1       1.279  11.008  13.038  0.00  0.00     0.144 H 
ATOM     34  C5  APC d   1       4.307  11.197  11.898  0.00  0.00     0.149 A 
ATOM     35  C6  APC d   1       5.380  11.038  11.034  0.00  0.00     0.155 A 
ATOM     36  C4  APC d   1       4.475  11.833  13.102  0.00  0.00     0.167 A 
ATOM     37  N1  APC d   1       6.629  11.554  11.450  0.00  0.00    -0.222 NA
ATOM     38  C2  APC d   1       6.729  12.154  12.618  0.00  0.00     0.091 A 
ATOM     39  N3  APC d   1       5.676  12.368  13.581  0.00  0.00    -0.222 NA
ATOM     40  H14 APC d   1       7.710  12.528  12.885  0.00  0.00     0.146 H 
BRANCH  35  41
ATOM     41  N6  APC d   1       5.354  10.459   9.875  0.00  0.00    -0.382 N 
ATOM     42  H12 APC d   1       6.214  10.395   9.312  0.00  0.00     0.157 HD
ATOM     43  H13 APC d   1       4.473  10.062   9.517  0.00  0.00     0.157 HD
ENDBRANCH  35  41
ENDBRANCH   5  30
BRANCH   4  44
ATOM     44  O2  APC d   1       2.866  11.008  16.978  0.00  0.00    -0.388 OA
ATOM     45  H9  APC d   1       3.317  10.851  17.799  0.00  0.00     0.210 HD
ENDBRANCH   4  44
TORSDOF 11
