REMARK  11 active torsions:
REMARK  status: ('A' for Active; 'I' for Inactive)
REMARK    1  A    between atoms: C4_1  and  C40_2 
REMARK    2  A    between atoms: C2_10  and  C20_11 
REMARK    3  A    between atoms: C26_12  and  O26_13 
REMARK    4  A    between atoms: O26_13  and  C27_14 
REMARK    5  A    between atoms: C27_14  and  C28_15 
REMARK    6  A    between atoms: C23_19  and  O23_20 
REMARK    7  A    between atoms: O23_20  and  C24_21 
REMARK       I    between atoms: N1_22  and  C10_23 
REMARK       I    between atoms: C10_23  and  N10_25 
REMARK    8  A    between atoms: N13_28  and  C13_29 
REMARK    9  A    between atoms: C13_29  and  C16_30 
REMARK   10  A    between atoms: C16_30  and  O17_31 
REMARK   11  A    between atoms: C5_34  and  C50_35 
ROOT
ATOM      1  C4  IMZ d   1      12.228   8.624  13.624  0.00  0.00     0.084 C 
ATOM      2  N3  IMZ d   1      10.931   9.234  13.474  0.00  0.00    -0.259 NA
ATOM      3  C2  IMZ d   1      10.065   8.355  12.888  0.00  0.00     0.143 C 
ATOM      4  N1  IMZ d   1      10.708   7.114  12.617  0.00  0.00    -0.272 N 
ATOM      5  C10 IMZ d   1      10.221   6.140  11.809  0.00  0.00     0.327 C 
ATOM      6  O10 IMZ d   1      10.311   4.958  12.125  0.00  0.00    -0.247 OA
ATOM      7  N10 IMZ d   1       9.579   6.503  10.678  0.00  0.00    -0.331 N 
ATOM      8  C15 IMZ d   1       8.652   5.551  10.023  0.00  0.00     0.022 C 
ATOM      9  C14 IMZ d   1       7.387   6.256   9.561  0.00  0.00     0.098 C 
ATOM     10  N13 IMZ d   1       7.736   7.521   8.849  0.00  0.00    -0.066 N 
ATOM     11  C11 IMZ d   1       9.924   7.730   9.928  0.00  0.00     0.022 C 
ATOM     12  C12 IMZ d   1       8.649   8.449   9.540  0.00  0.00     0.098 C 
ATOM     13  C5  IMZ d   1      11.995   7.087  13.331  0.00  0.00     0.074 C 
ATOM     14  H1  IMZ d   1      12.905   9.024  12.855  0.00  0.00     0.087 H 
ATOM     15  H17 IMZ d   1       8.383   4.760  10.739  0.00  0.00     0.067 H 
ATOM     16  H18 IMZ d   1       9.152   5.102   9.152  0.00  0.00     0.067 H 
ATOM     17  H19 IMZ d   1       6.761   6.491  10.435  0.00  0.00     0.078 H 
ATOM     18  H20 IMZ d   1       6.831   5.596   8.879  0.00  0.00     0.078 H 
ATOM     19  H21 IMZ d   1       6.870   8.018   8.988  0.00  0.00     0.280 HD
ATOM     20  H27 IMZ d   1      10.486   7.462   9.021  0.00  0.00     0.067 H 
ATOM     21  H28 IMZ d   1      10.540   8.387  10.560  0.00  0.00     0.067 H 
ATOM     22  H29 IMZ d   1       8.159   8.835  10.446  0.00  0.00     0.078 H 
ATOM     23  H30 IMZ d   1       8.893   9.286   8.870  0.00  0.00     0.078 H 
ATOM     24  H31 IMZ d   1      12.796   6.676  12.700  0.00  0.00     0.085 H 
ENDROOT
BRANCH   3  25
ATOM     25  C20 IMZ d   1       8.662   8.653  12.556  0.00  0.00     0.043 A 
ATOM     26  C26 IMZ d   1       7.610   7.690  12.620  0.00  0.00     0.085 A 
ATOM     27  C25 IMZ d   1       6.300   8.054  12.379  0.00  0.00    -0.018 A 
ATOM     28  C23 IMZ d   1       5.976   9.362  12.061  0.00  0.00     0.070 A 
ATOM     29  H11 IMZ d   1       5.516   7.307  12.440  0.00  0.00     0.092 H 
ATOM     30  C22 IMZ d   1       6.984  10.335  11.976  0.00  0.00    -0.050 A 
ATOM     31  C21 IMZ d   1       8.318   9.975  12.222  0.00  0.00    -0.064 A 
ATOM     32  H13 IMZ d   1       6.734  11.359  11.722  0.00  0.00     0.087 H 
ATOM     33  H12 IMZ d   1       9.095  10.728  12.153  0.00  0.00     0.085 H 
BRANCH  26  34
ATOM     34  O26 IMZ d   1       7.938   6.373  12.881  0.00  0.00    -0.350 OA
BRANCH  34  35
ATOM     35  C27 IMZ d   1       6.903   5.605  13.472  0.00  0.00     0.023 C 
ATOM     36  H6  IMZ d   1       6.117   5.413  12.726  0.00  0.00     0.074 H 
ATOM     37  H7  IMZ d   1       6.475   6.158  14.321  0.00  0.00     0.074 H 
BRANCH  35  38
ATOM     38  C28 IMZ d   1       7.458   4.307  13.954  0.00  0.00    -0.056 C 
ATOM     39  H8  IMZ d   1       6.654   3.712  14.412  0.00  0.00     0.030 H 
ATOM     40  H9  IMZ d   1       8.243   4.498  14.700  0.00  0.00     0.030 H 
ATOM     41  H10 IMZ d   1       7.886   3.753  13.105  0.00  0.00     0.030 H 
ENDBRANCH  35  38
ENDBRANCH  34  35
ENDBRANCH  26  34
BRANCH  28  42
ATOM     42  O23 IMZ d   1       4.655   9.695  11.834  0.00  0.00    -0.356 OA
BRANCH  42  43
ATOM     43  C24 IMZ d   1       4.458  10.845  10.988  0.00  0.00     0.010 C 
ATOM     44  H14 IMZ d   1       3.381  11.030  10.866  0.00  0.00     0.066 H 
ATOM     45  H15 IMZ d   1       4.911  10.658  10.003  0.00  0.00     0.066 H 
ATOM     46  H16 IMZ d   1       4.932  11.725  11.448  0.00  0.00     0.066 H 
ENDBRANCH  42  43
ENDBRANCH  28  42
ENDBRANCH   3  25
BRANCH  13  47
ATOM     47  C50 IMZ d   1      11.892   6.258  14.636  0.00  0.00    -0.032 A 
ATOM     48  C51 IMZ d   1      10.788   6.383  15.478  0.00  0.00    -0.073 A 
ATOM     49  C52 IMZ d   1      10.739   5.706  16.707  0.00  0.00    -0.066 A 
ATOM     50  H32 IMZ d   1       9.956   7.011  15.180  0.00  0.00     0.084 H 
ATOM     51  C53 IMZ d   1      11.802   4.894  17.088  0.00  0.00     0.011 A 
ATOM     52  H33 IMZ d   1       9.877   5.816  17.355  0.00  0.00     0.085 H 
ATOM     53  C54 IMZ d   1      12.902   4.742  16.252  0.00  0.00    -0.066 A 
ATOM     54 BR53 IMZ d   1      11.821   4.146  18.787  0.00  0.00    -0.051 Br
ATOM     55  C55 IMZ d   1      12.947   5.426  15.027  0.00  0.00    -0.073 A 
ATOM     56  H35 IMZ d   1      13.723   4.097  16.545  0.00  0.00     0.085 H 
ATOM     57  H34 IMZ d   1      13.807   5.309  14.378  0.00  0.00     0.084 H 
ENDBRANCH  13  47
BRANCH   1  58
ATOM     58  C40 IMZ d   1      12.851   8.946  14.979  0.00  0.00    -0.031 A 
ATOM     59  C45 IMZ d   1      12.055   9.354  16.049  0.00  0.00    -0.073 A 
ATOM     60  C44 IMZ d   1      12.632   9.652  17.295  0.00  0.00    -0.066 A 
ATOM     61  H2  IMZ d   1      10.982   9.442  15.918  0.00  0.00     0.084 H 
ATOM     62  C43 IMZ d   1      14.009   9.535  17.449  0.00  0.00     0.011 A 
ATOM     63  H3  IMZ d   1      12.012   9.969  18.125  0.00  0.00     0.085 H 
ATOM     64  C42 IMZ d   1      14.807   9.135  16.385  0.00  0.00    -0.066 A 
ATOM     65 BR43 IMZ d   1      14.779   9.826  19.111  0.00  0.00    -0.051 Br
ATOM     66  C41 IMZ d   1      14.229   8.841  15.160  0.00  0.00    -0.073 A 
ATOM     67  H5  IMZ d   1      15.880   9.053  16.512  0.00  0.00     0.085 H 
ATOM     68  H4  IMZ d   1      14.856   8.526  14.334  0.00  0.00     0.084 H 
ENDBRANCH   1  58
BRANCH  10  69
ATOM     69  C13 IMZ d   1       7.760   7.526   7.383  0.00  0.00     0.103 C 
ATOM     70  H22 IMZ d   1       8.695   7.065   7.033  0.00  0.00     0.079 H 
ATOM     71  H23 IMZ d   1       7.706   8.564   7.022  0.00  0.00     0.079 H 
BRANCH  69  72
ATOM     72  C16 IMZ d   1       6.591   6.750   6.841  0.00  0.00     0.039 C 
ATOM     73  H24 IMZ d   1       6.753   5.674   7.005  0.00  0.00     0.076 H 
ATOM     74  H25 IMZ d   1       6.485   6.945   5.764  0.00  0.00     0.076 H 
BRANCH  72  75
ATOM     75  O17 IMZ d   1       5.418   7.165   7.519  0.00  0.00    -0.399 OA
ATOM     76  H26 IMZ d   1       4.672   6.681   7.184  0.00  0.00     0.209 HD
ENDBRANCH  72  75
ENDBRANCH  69  72
ENDBRANCH  10  69
TORSDOF 11
