REMARK  3 active torsions:
REMARK  status: ('A' for Active; 'I' for Inactive)
REMARK    1  A    between atoms: C1_1  and  C16_10 
REMARK    2  A    between atoms: C2_2  and  C15_9 
REMARK    3  A    between atoms: C29_19  and  C35_22 
ROOT
ATOM      1  C1  580 d   1       5.604  15.478  10.842  0.00  0.00     0.031 A 
ATOM      2  C2  580 d   1       4.531  15.103   9.848  0.00  0.00     0.118 A 
ATOM      3  N3  580 d   1       4.332  13.743   9.844  0.00  0.00    -0.169 NA
ATOM      4  N4  580 d   1       5.236  13.319  10.786  0.00  0.00    -0.272 N 
ATOM      5  C5  580 d   1       5.970  14.253  11.373  0.00  0.00     0.044 A 
ATOM      6  C6  580 d   1       5.486  11.950  11.232  0.00  0.00     0.017 A 
ATOM      7  C7  580 d   1       6.603  12.195  12.289  0.00  0.00    -0.043 A 
ATOM      8  C8  580 d   1       6.928  13.708  12.384  0.00  0.00    -0.023 A 
ATOM      9  H1  580 d   1       5.840  11.313  10.408  0.00  0.00     0.067 H 
ATOM     10  H2  580 d   1       4.590  11.501  11.685  0.00  0.00     0.067 H 
ATOM     11  H3  580 d   1       7.510  11.647  11.993  0.00  0.00     0.036 H 
ATOM     12  H4  580 d   1       6.260  11.835  13.270  0.00  0.00     0.036 H 
ATOM     13  H5  580 d   1       6.727  14.105  13.390  0.00  0.00     0.042 H 
ATOM     14  H6  580 d   1       7.972  13.918  12.109  0.00  0.00     0.042 H 
ENDROOT
BRANCH   2  15
ATOM     15  C15 580 d   1       3.731  15.985   8.962  0.00  0.00     0.088 A 
ATOM     16  C26 580 d   1       4.278  17.055   8.220  0.00  0.00    -0.053 A 
ATOM     17  C27 580 d   1       3.420  17.833   7.408  0.00  0.00    -0.079 A 
ATOM     18  H11 580 d   1       5.338  17.276   8.272  0.00  0.00     0.087 H 
ATOM     19  C28 580 d   1       2.035  17.541   7.334  0.00  0.00    -0.059 A 
ATOM     20  H12 580 d   1       3.825  18.660   6.837  0.00  0.00     0.083 H 
ATOM     21  C29 580 d   1       1.552  16.459   8.099  0.00  0.00     0.031 A 
ATOM     22  H13 580 d   1       1.370  18.129   6.711  0.00  0.00     0.086 H 
ATOM     23  N30 580 d   1       2.374  15.731   8.866  0.00  0.00    -0.252 NA
BRANCH  21  24
ATOM     24  C35 580 d   1       0.114  16.057   8.104  0.00  0.00    -0.035 C 
ATOM     25  H14 580 d   1      -0.023  15.193   8.770  0.00  0.00     0.035 H 
ATOM     26  H15 580 d   1      -0.194  15.786   7.084  0.00  0.00     0.035 H 
ATOM     27  H16 580 d   1      -0.500  16.896   8.462  0.00  0.00     0.035 H 
ENDBRANCH  21  24
ENDBRANCH   2  15
BRANCH   1  28
ATOM     28  C16 580 d   1       6.169  16.826  11.209  0.00  0.00    -0.021 A 
ATOM     29  C17 580 d   1       5.309  17.882  11.571  0.00  0.00    -0.069 A 
ATOM     30  C18 580 d   1       5.812  19.162  11.912  0.00  0.00    -0.045 A 
ATOM     31  H7  580 d   1       4.239  17.711  11.589  0.00  0.00     0.085 H 
ATOM     32  C19 580 d   1       7.196  19.377  11.890  0.00  0.00     0.116 A 
ATOM     33  H8  580 d   1       5.136  19.963  12.186  0.00  0.00     0.088 H 
ATOM     34  C20 580 d   1       8.092  18.342  11.536  0.00  0.00    -0.045 A 
ATOM     35  F34 580 d   1       7.665  20.572  12.205  0.00  0.00    -0.206 F 
ATOM     36  C21 580 d   1       7.567  17.065  11.194  0.00  0.00    -0.069 A 
ATOM     37  H9  580 d   1       9.161  18.519  11.525  0.00  0.00     0.088 H 
ATOM     38  H10 580 d   1       8.244  16.264  10.918  0.00  0.00     0.085 H 
ENDBRANCH   1  28
TORSDOF 3
