REMARK  9 active torsions:
REMARK  status: ('A' for Active; 'I' for Inactive)
REMARK    1  A    between atoms: C11_8  and  C10_9 
REMARK    2  A    between atoms: C19_10  and  C20_11 
REMARK    3  A    between atoms: C20_11  and  N21_12 
REMARK    4  A    between atoms: C22_13  and  N23_14 
REMARK    5  A    between atoms: C2_16  and  C3_18 
REMARK    6  A    between atoms: C5_20  and  O25_21 
REMARK    7  A    between atoms: O25_21  and  C28_22 
REMARK    8  A    between atoms: C7_24  and  O26_26 
REMARK    9  A    between atoms: O26_26  and  C29_27 
ROOT
ATOM      1  C10 5AP d   1      48.676  51.749  35.372  0.00  0.00     0.083 A 
ATOM      2  C19 5AP d   1      47.775  52.844  34.985  0.00  0.00     0.042 A 
ATOM      3  C22 5AP d   1      48.105  53.544  33.751  0.00  0.00     0.134 A 
ATOM      4  N9  5AP d   1      49.721  51.444  34.640  0.00  0.00    -0.227 NA
ATOM      5  C2  5AP d   1      49.973  52.107  33.525  0.00  0.00     0.162 A 
ATOM      6  N1  5AP d   1      49.188  53.104  33.097  0.00  0.00    -0.211 NA
ENDROOT
BRANCH   5   7
ATOM      7  C3  5AP d   1      51.155  51.675  32.730  0.00  0.00     0.017 A 
ATOM      8  C4  5AP d   1      51.965  50.628  33.098  0.00  0.00    -0.037 A 
ATOM      9  C5  5AP d   1      53.075  50.285  32.298  0.00  0.00     0.071 A 
ATOM     10  H11 5AP d   1      51.752  50.067  34.001  0.00  0.00     0.089 H 
ATOM     11  C6  5AP d   1      53.393  50.966  31.150  0.00  0.00    -0.019 A 
ATOM     12  C7  5AP d   1      52.555  52.000  30.797  0.00  0.00     0.071 A 
ATOM     13  H15 5AP d   1      54.258  50.704  30.552  0.00  0.00     0.092 H 
ATOM     14  C8  5AP d   1      51.471  52.363  31.588  0.00  0.00    -0.037 A 
ATOM     15  H16 5AP d   1      50.862  53.210  31.294  0.00  0.00     0.089 H 
BRANCH   9  16
ATOM     16  O25 5AP d   1      53.877  49.244  32.621  0.00  0.00    -0.356 OA
BRANCH  16  17
ATOM     17  C28 5AP d   1      53.469  48.331  33.629  0.00  0.00     0.010 C 
ATOM     18  H12 5AP d   1      54.240  47.556  33.756  0.00  0.00     0.066 H 
ATOM     19  H13 5AP d   1      52.520  47.859  33.334  0.00  0.00     0.066 H 
ATOM     20  H14 5AP d   1      53.331  48.870  34.578  0.00  0.00     0.066 H 
ENDBRANCH  16  17
ENDBRANCH   9  16
BRANCH  12  21
ATOM     21  O26 5AP d   1      52.814  52.763  29.700  0.00  0.00    -0.356 OA
BRANCH  21  22
ATOM     22  C29 5AP d   1      53.681  53.853  29.987  0.00  0.00     0.010 C 
ATOM     23  H17 5AP d   1      53.856  54.434  29.069  0.00  0.00     0.066 H 
ATOM     24  H18 5AP d   1      54.639  53.469  30.366  0.00  0.00     0.066 H 
ATOM     25  H19 5AP d   1      53.218  54.499  30.747  0.00  0.00     0.066 H 
ENDBRANCH  21  22
ENDBRANCH  12  21
ENDBRANCH   5   7
BRANCH   1  26
ATOM     26  C11 5AP d   1      48.541  51.190  36.658  0.00  0.00     0.015 A 
ATOM     27  C17 5AP d   1      49.003  51.889  37.715  0.00  0.00     0.048 A 
ATOM     28 CL2  5AP d   1      49.712  53.403  37.316  0.00  0.00    -0.083 Cl
ATOM     29  C16 5AP d   1      48.958  51.498  38.999  0.00  0.00    -0.040 A 
ATOM     30  C14 5AP d   1      48.402  50.283  39.168  0.00  0.00     0.035 A 
ATOM     31  H1  5AP d   1      49.332  52.101  39.819  0.00  0.00     0.088 H 
ATOM     32 CL1  5AP d   1      48.271  49.689  40.798  0.00  0.00    -0.084 Cl
ATOM     33  C13 5AP d   1      47.894  49.536  38.153  0.00  0.00    -0.061 A 
ATOM     34  C12 5AP d   1      47.961  49.974  36.846  0.00  0.00    -0.068 A 
ATOM     35  H2  5AP d   1      47.429  48.582  38.373  0.00  0.00     0.086 H 
ATOM     36  H3  5AP d   1      47.576  49.386  36.021  0.00  0.00     0.085 H 
ENDBRANCH   1  26
BRANCH   3  37
ATOM     37  N23 5AP d   1      47.351  54.596  33.324  0.00  0.00    -0.383 N 
ATOM     38  H9  5AP d   1      47.595  55.083  32.450  0.00  0.00     0.157 HD
ATOM     39  H10 5AP d   1      46.538  54.904  33.876  0.00  0.00     0.157 HD
ENDBRANCH   3  37
BRANCH   2  40
ATOM     40  C20 5AP d   1      46.603  53.177  35.797  0.00  0.00     0.109 C 
ATOM     41  H4  5AP d   1      46.186  52.229  36.168  0.00  0.00     0.083 H 
ATOM     42  H5  5AP d   1      45.875  53.662  35.130  0.00  0.00     0.083 H 
BRANCH  40  43
ATOM     43  N21 5AP d   1      46.759  53.968  36.843  0.00  0.00    -0.075 N 
ATOM     44  H6  5AP d   1      45.870  54.103  37.297  0.00  0.00     0.274 HD
ATOM     45  H7  5AP d   1      47.120  54.859  36.540  0.00  0.00     0.274 HD
ATOM     46  H8  5AP d   1      47.406  53.545  37.490  0.00  0.00     0.274 HD
ENDBRANCH  40  43
ENDBRANCH   2  40
TORSDOF 9
