REMARK  10 active torsions:
REMARK  status: ('A' for Active; 'I' for Inactive)
REMARK    1  A    between atoms: C9_2  and  C10_4 
REMARK    2  A    between atoms: C10_4  and  C27_5 
REMARK    3  A    between atoms: C27_5  and  C28_6 
REMARK    4  A    between atoms: C27_5  and  N3_8 
REMARK       I    between atoms: N3_8  and  C16_9 
REMARK    5  A    between atoms: C16_9  and  C21_11 
REMARK    6  A    between atoms: C14_16  and  C19_17 
REMARK    7  A    between atoms: C19_17  and  N6_18 
REMARK       I    between atoms: N6_18  and  C15_19 
REMARK    8  A    between atoms: C15_19  and  C20_21 
REMARK    9  A    between atoms: C11_25  and  N2_27 
REMARK   10  A    between atoms: N2_27  and  C13_28 
ROOT
ATOM      1  N6  OQB d   1      32.375  66.169   9.501  0.00  0.00    -0.351 N 
ATOM      2  C15 OQB d   1      32.900  66.803  10.553  0.00  0.00     0.251 C 
ATOM      3  O36 OQB d   1      32.733  66.384  11.688  0.00  0.00    -0.268 OA
ATOM      4  H11 OQB d   1      32.668  66.421   8.579  0.00  0.00     0.163 HD
ENDROOT
BRANCH   1   5
ATOM      5  C19 OQB d   1      31.384  65.117   9.675  0.00  0.00     0.035 C 
ATOM      6  H9  OQB d   1      31.500  64.691  10.682  0.00  0.00     0.073 H 
ATOM      7  H10 OQB d   1      30.382  65.561   9.577  0.00  0.00     0.073 H 
BRANCH   5   8
ATOM      8  C14 OQB d   1      31.517  63.998   8.660  0.00  0.00     0.051 A 
ATOM      9  N1  OQB d   1      32.557  63.935   7.808  0.00  0.00    -0.263 NA
ATOM     10  C12 OQB d   1      32.667  62.938   6.911  0.00  0.00     0.018 A 
ATOM     11  C21 OQB d   1      31.703  61.929   6.835  0.00  0.00     0.049 A 
ATOM     12  H6  OQB d   1      33.516  62.917   6.237  0.00  0.00     0.116 H 
ATOM     13  C23 OQB d   1      30.617  61.973   7.704  0.00  0.00    -0.064 A 
ATOM     14  C24 OQB d   1      30.529  63.015   8.622  0.00  0.00    -0.057 A 
ATOM     15  H7  OQB d   1      29.851  61.207   7.666  0.00  0.00     0.085 H 
ATOM     16  H8  OQB d   1      29.691  63.062   9.308  0.00  0.00     0.086 H 
BRANCH  11  17
ATOM     17  C16 OQB d   1      31.813  60.810   5.832  0.00  0.00     0.253 C 
ATOM     18  N3  OQB d   1      33.003  60.469   5.328  0.00  0.00    -0.346 N 
ATOM     19  H5  OQB d   1      33.836  60.735   5.813  0.00  0.00     0.163 HD
ATOM     20  O34 OQB d   1      30.792  60.233   5.488  0.00  0.00    -0.268 OA
BRANCH  18  21
ATOM     21  C27 OQB d   1      33.108  59.718   4.086  0.00  0.00     0.072 C 
ATOM     22  H3  OQB d   1      32.196  59.908   3.502  0.00  0.00     0.084 H 
BRANCH  21  23
ATOM     23  C10 OQB d   1      34.305  60.183   3.254  0.00  0.00     0.040 C 
ATOM     24  H1  OQB d   1      35.127  60.454   3.933  0.00  0.00     0.052 H 
ATOM     25  H2  OQB d   1      34.626  59.359   2.600  0.00  0.00     0.052 H 
BRANCH  23  26
ATOM     26  C9  OQB d   1      33.960  61.384   2.397  0.00  0.00     0.174 C 
ATOM     27  O37 OQB d   1      32.774  61.576   2.054  0.00  0.00    -0.648 OA
ATOM     28  O33 OQB d   1      34.881  62.156   2.049  0.00  0.00    -0.648 OA
ENDBRANCH  23  26
ENDBRANCH  21  23
BRANCH  21  29
ATOM     29  C28 OQB d   1      33.190  58.232   4.347  0.00  0.00     0.110 C 
ATOM     30  O35 OQB d   1      33.014  57.431   3.443  0.00  0.00    -0.305 OA
ATOM     31  H4  OQB d   1      33.408  57.872   5.351  0.00  0.00     0.146 H 
ENDBRANCH  21  29
ENDBRANCH  18  21
ENDBRANCH  11  17
ENDBRANCH   5   8
ENDBRANCH   1   5
BRANCH   2  32
ATOM     32  C20 OQB d   1      33.722  68.051  10.372  0.00  0.00     0.032 A 
ATOM     33  C22 OQB d   1      33.776  68.996  11.397  0.00  0.00    -0.066 A 
ATOM     34  C8  OQB d   1      34.540  70.153  11.247  0.00  0.00    -0.056 A 
ATOM     35  H12 OQB d   1      33.222  68.830  12.314  0.00  0.00     0.085 H 
ATOM     36  C11 OQB d   1      35.251  70.390  10.068  0.00  0.00     0.033 A 
ATOM     37  H15 OQB d   1      34.583  70.876  12.054  0.00  0.00     0.086 H 
ATOM     38  C25 OQB d   1      35.191  69.442   9.042  0.00  0.00    -0.056 A 
ATOM     39  C26 OQB d   1      34.431  68.281   9.196  0.00  0.00    -0.066 A 
ATOM     40  H14 OQB d   1      35.738  69.609   8.121  0.00  0.00     0.086 H 
ATOM     41  H13 OQB d   1      34.393  67.553   8.394  0.00  0.00     0.085 H 
BRANCH  36  42
ATOM     42  N2  OQB d   1      35.974  71.545   9.982  0.00  0.00    -0.340 N 
ATOM     43  H16 OQB d   1      35.941  72.159  10.809  0.00  0.00     0.167 HD
BRANCH  42  44
ATOM     44  C13 OQB d   1      36.734  71.989   8.940  0.00  0.00     0.146 A 
ATOM     45  C29 OQB d   1      37.387  73.216   9.084  0.00  0.00     0.047 A 
ATOM     46  N4  OQB d   1      38.142  73.699   8.084  0.00  0.00    -0.255 NA
ATOM     47  H17 OQB d   1      37.284  73.779  10.005  0.00  0.00     0.120 H 
ATOM     48  C31 OQB d   1      38.250  73.022   6.927  0.00  0.00     0.085 A 
ATOM     49  C32 OQB d   1      37.589  71.804   6.774  0.00  0.00     0.087 A 
ATOM     50  C7  OQB d   1      38.996  73.553   5.871  0.00  0.00    -0.053 A 
ATOM     51  N5  OQB d   1      36.867  71.304   7.791  0.00  0.00    -0.228 NA
ATOM     52  C17 OQB d   1      37.686  71.104   5.570  0.00  0.00    -0.053 A 
ATOM     53  C30 OQB d   1      38.437  71.629   4.518  0.00  0.00    -0.081 A 
ATOM     54  H18 OQB d   1      37.178  70.153   5.453  0.00  0.00     0.087 H 
ATOM     55  C18 OQB d   1      39.093  72.853   4.669  0.00  0.00    -0.081 A 
ATOM     56  H19 OQB d   1      38.511  71.087   3.583  0.00  0.00     0.083 H 
ATOM     57  H20 OQB d   1      39.678  73.259   3.851  0.00  0.00     0.083 H 
ATOM     58  H21 OQB d   1      39.498  74.507   5.986  0.00  0.00     0.087 H 
ENDBRANCH  42  44
ENDBRANCH  36  42
ENDBRANCH   2  32
TORSDOF 10
