REMARK  14 active torsions:
REMARK  status: ('A' for Active; 'I' for Inactive)
REMARK    1  A    between atoms: C31_2  and  C17_3 
REMARK    2  A    between atoms: C17_3  and  C12_4 
REMARK    3  A    between atoms: C17_3  and  N4_8 
REMARK    4  A    between atoms: C12_4  and  C6_5 
REMARK       I    between atoms: N4_8  and  C18_9 
REMARK    5  A    between atoms: C18_9  and  C8_11 
REMARK    6  A    between atoms: C8_11  and  C28_12 
REMARK    7  A    between atoms: C8_11  and  C11_17 
REMARK    8  A    between atoms: C11_17  and  C25_18 
REMARK    9  A    between atoms: C25_18  and  C13_19 
REMARK   10  A    between atoms: C13_19  and  C14_20 
REMARK   11  A    between atoms: C14_20  and  N3_21 
REMARK       I    between atoms: N3_21  and  C33_22 
REMARK   12  A    between atoms: C33_22  and  C16_24 
REMARK   13  A    between atoms: C22_27  and  O34_30 
REMARK   14  A    between atoms: O34_30  and  C26_31 
ROOT
ATOM      1  C13 YBH d   1      30.516  65.596   8.378  0.00  0.00    -0.050 C 
ATOM      2  H14 YBH d   1      29.543  65.087   8.320  0.00  0.00     0.035 H 
ATOM      3  H15 YBH d   1      30.598  66.326   7.559  0.00  0.00     0.035 H 
ENDROOT
BRANCH   1   4
ATOM      4  C25 YBH d   1      31.628  64.561   8.235  0.00  0.00    -0.062 C 
ATOM      5  H12 YBH d   1      32.533  65.060   7.859  0.00  0.00     0.033 H 
ATOM      6  H13 YBH d   1      31.835  64.121   9.222  0.00  0.00     0.033 H 
BRANCH   4   7
ATOM      7  C11 YBH d   1      31.239  63.446   7.267  0.00  0.00    -0.049 C 
ATOM      8  H10 YBH d   1      30.219  63.109   7.504  0.00  0.00     0.034 H 
ATOM      9  H11 YBH d   1      31.266  63.841   6.241  0.00  0.00     0.034 H 
BRANCH   7  10
ATOM     10  C8  YBH d   1      32.190  62.249   7.362  0.00  0.00     0.055 C 
ATOM     11  H6  YBH d   1      33.219  62.635   7.408  0.00  0.00     0.062 H 
BRANCH  10  12
ATOM     12  C18 YBH d   1      32.078  61.378   6.136  0.00  0.00     0.227 C 
ATOM     13  N4  YBH d   1      33.222  61.076   5.512  0.00  0.00    -0.349 N 
ATOM     14  H5  YBH d   1      34.084  61.356   5.935  0.00  0.00     0.163 HD
ATOM     15  O35 YBH d   1      30.986  60.980   5.758  0.00  0.00    -0.273 OA
BRANCH  13  16
ATOM     16  C17 YBH d   1      33.271  60.358   4.245  0.00  0.00     0.071 C 
ATOM     17  H2  YBH d   1      32.334  60.563   3.708  0.00  0.00     0.084 H 
BRANCH  16  18
ATOM     18  C31 YBH d   1      33.388  58.862   4.426  0.00  0.00     0.110 C 
ATOM     19  O39 YBH d   1      33.145  58.113   3.491  0.00  0.00    -0.305 OA
ATOM     20  H1  YBH d   1      33.689  58.452   5.389  0.00  0.00     0.146 H 
ENDBRANCH  16  18
BRANCH  16  21
ATOM     21  C12 YBH d   1      34.437  60.853   3.389  0.00  0.00     0.040 C 
ATOM     22  H3  YBH d   1      34.802  60.021   2.769  0.00  0.00     0.052 H 
ATOM     23  H4  YBH d   1      35.244  61.198   4.052  0.00  0.00     0.052 H 
BRANCH  21  24
ATOM     24  C6  YBH d   1      34.024  61.994   2.484  0.00  0.00     0.174 C 
ATOM     25  O38 YBH d   1      32.810  62.251   2.324  0.00  0.00    -0.648 OA
ATOM     26  O36 YBH d   1      34.929  62.643   1.918  0.00  0.00    -0.648 OA
ENDBRANCH  21  24
ENDBRANCH  16  21
ENDBRANCH  13  16
ENDBRANCH  10  12
BRANCH  10  27
ATOM     27  C28 YBH d   1      31.932  61.469   8.626  0.00  0.00    -0.004 A 
ATOM     28  S41 YBH d   1      33.176  60.857   9.623  0.00  0.00    -0.106 SA
ATOM     29  C7  YBH d   1      32.055  60.384  10.799  0.00  0.00    -0.044 A 
ATOM     30  C15 YBH d   1      30.784  60.585  10.419  0.00  0.00    -0.076 A 
ATOM     31  H9  YBH d   1      32.336  59.961  11.762  0.00  0.00     0.095 H 
ATOM     32  C9  YBH d   1      30.661  61.173   9.130  0.00  0.00    -0.069 A 
ATOM     33  H8  YBH d   1      29.928  60.323  11.039  0.00  0.00     0.084 H 
ATOM     34  H7  YBH d   1      29.721  61.364   8.614  0.00  0.00     0.085 H 
ENDBRANCH  10  27
ENDBRANCH   7  10
ENDBRANCH   4   7
ENDBRANCH   1   4
BRANCH   1  35
ATOM     35  C14 YBH d   1      30.615  66.331   9.711  0.00  0.00    -0.004 C 
ATOM     36  H16 YBH d   1      31.027  65.643  10.463  0.00  0.00     0.064 H 
ATOM     37  H17 YBH d   1      29.606  66.646  10.016  0.00  0.00     0.064 H 
BRANCH  35  38
ATOM     38  N3  YBH d   1      31.467  67.505   9.637  0.00  0.00    -0.357 N 
ATOM     39  C33 YBH d   1      31.945  68.123  10.721  0.00  0.00     0.251 C 
ATOM     40  O37 YBH d   1      31.370  68.073  11.799  0.00  0.00    -0.268 OA
ATOM     41  H18 YBH d   1      31.706  67.866   8.736  0.00  0.00     0.162 HD
BRANCH  39  42
ATOM     42  C16 YBH d   1      33.223  68.910  10.614  0.00  0.00     0.032 A 
ATOM     43  C20 YBH d   1      33.507  69.912  11.546  0.00  0.00    -0.065 A 
ATOM     44  C21 YBH d   1      34.689  70.646  11.452  0.00  0.00    -0.049 A 
ATOM     45  H19 YBH d   1      32.805  70.120  12.346  0.00  0.00     0.085 H 
ATOM     46  C22 YBH d   1      35.598  70.378  10.427  0.00  0.00     0.078 A 
ATOM     47  H20 YBH d   1      34.902  71.425  12.175  0.00  0.00     0.087 H 
ATOM     48  C23 YBH d   1      35.311  69.384   9.489  0.00  0.00    -0.049 A 
ATOM     49  C24 YBH d   1      34.130  68.648   9.585  0.00  0.00    -0.065 A 
ATOM     50  H21 YBH d   1      36.008  69.184   8.684  0.00  0.00     0.087 H 
ATOM     51  H22 YBH d   1      33.916  67.871   8.860  0.00  0.00     0.085 H 
BRANCH  46  52
ATOM     52  O34 YBH d   1      36.754  71.115  10.338  0.00  0.00    -0.291 OA
BRANCH  52  53
ATOM     53  C26 YBH d   1      38.016  70.622  10.575  0.00  0.00     0.188 A 
ATOM     54  C27 YBH d   1      39.017  71.506  10.976  0.00  0.00     0.054 A 
ATOM     55  N1  YBH d   1      40.259  71.056  11.211  0.00  0.00    -0.254 NA
ATOM     56  H23 YBH d   1      38.791  72.559  11.098  0.00  0.00     0.121 H 
ATOM     57  C29 YBH d   1      40.549  69.757  11.050  0.00  0.00     0.085 A 
ATOM     58  C30 YBH d   1      39.555  68.871  10.641  0.00  0.00     0.088 A 
ATOM     59  C10 YBH d   1      41.847  69.299  11.280  0.00  0.00    -0.053 A 
ATOM     60  N2  YBH d   1      38.309  69.320  10.417  0.00  0.00    -0.221 NA
ATOM     61  C5  YBH d   1      39.854  67.522  10.466  0.00  0.00    -0.053 A 
ATOM     62  C19 YBH d   1      41.151  67.062  10.697  0.00  0.00    -0.081 A 
ATOM     63  H27 YBH d   1      39.081  66.831  10.151  0.00  0.00     0.087 H 
ATOM     64  C32 YBH d   1      42.147  67.948  11.105  0.00  0.00    -0.081 A 
ATOM     65  H26 YBH d   1      41.385  66.013  10.559  0.00  0.00     0.083 H 
ATOM     66  H25 YBH d   1      43.153  67.588  11.286  0.00  0.00     0.083 H 
ATOM     67  H24 YBH d   1      42.620  69.991  11.594  0.00  0.00     0.087 H 
ENDBRANCH  52  53
ENDBRANCH  46  52
ENDBRANCH  39  42
ENDBRANCH  35  38
ENDBRANCH   1  35
TORSDOF 14
