REMARK  12 active torsions:
REMARK  status: ('A' for Active; 'I' for Inactive)
REMARK    1  A    between atoms: C2_2  and  C1_1 
REMARK    2  A    between atoms: C2_2  and  C3_3 
REMARK    3  A    between atoms: C2_2  and  C4_4 
REMARK    4  A    between atoms: N7_30  and  C2_2 
REMARK       I    between atoms: C18_28  and  N1_5 
REMARK       I    between atoms: N2_12  and  C9_10 
REMARK       I    between atoms: C9_10  and  N3_15 
REMARK    5  A    between atoms: C10_13  and  C11_14 
REMARK    6  A    between atoms: C12_16  and  C10_13 
REMARK    7  A    between atoms: C10_13  and  C13_18 
REMARK    8  A    between atoms: N3_15  and  C12_16 
REMARK    9  A    between atoms: C12_16  and  C17_25 
REMARK   10  A    between atoms: C13_18  and  C14_19 
REMARK   11  A    between atoms: C14_19  and  C15_20 
REMARK   12  A    between atoms: C15_20  and  N4_21 
REMARK       I    between atoms: C16_22  and  N5_23 
REMARK       I    between atoms: C16_22  and  N6_24 
REMARK       I    between atoms: C18_28  and  N7_30 
ROOT
ATOM      1  N1  169 d   1      -0.780  18.782  27.111  0.00  0.00    -0.331 N 
ATOM      2  C5  169 d   1      -1.952  18.533  26.175  0.00  0.00     0.014 C 
ATOM      3  C6  169 d   1      -1.732  19.356  24.891  0.00  0.00     0.014 C 
ATOM      4  C7  169 d   1       0.621  18.506  26.560  0.00  0.00     0.014 C 
ATOM      5  C8  169 d   1       0.819  19.219  25.204  0.00  0.00     0.014 C 
ATOM      6  C9  169 d   1      -0.320  17.864  23.335  0.00  0.00     0.319 C 
ATOM      7  O1  169 d   1       0.317  16.871  23.574  0.00  0.00    -0.247 OA
ATOM      8  N2  169 d   1      -0.390  18.984  24.316  0.00  0.00    -0.331 N 
ATOM      9  N3  169 d   1      -1.025  18.052  22.161  0.00  0.00    -0.328 N 
ATOM     10  C18 169 d   1      -0.953  19.805  28.204  0.00  0.00     0.319 C 
ATOM     11  O5  169 d   1      -1.758  19.661  29.096  0.00  0.00    -0.247 OA
ATOM     12  N7  169 d   1      -0.121  20.882  28.064  0.00  0.00    -0.335 N 
ATOM     13  H10 169 d   1      -2.888  18.845  26.661  0.00  0.00     0.067 H 
ATOM     14  H11 169 d   1      -2.007  17.463  25.926  0.00  0.00     0.067 H 
ATOM     15  H12 169 d   1      -1.750  20.430  25.130  0.00  0.00     0.067 H 
ATOM     16  H13 169 d   1      -2.525  19.129  24.163  0.00  0.00     0.067 H 
ATOM     17  H14 169 d   1       0.748  17.422  26.421  0.00  0.00     0.067 H 
ATOM     18  H15 169 d   1       1.371  18.875  27.276  0.00  0.00     0.067 H 
ATOM     19  H16 169 d   1       1.717  18.821  24.710  0.00  0.00     0.067 H 
ATOM     20  H17 169 d   1       0.942  20.299  25.374  0.00  0.00     0.067 H 
ATOM     21  H20 169 d   1      -1.898  18.539  22.156  0.00  0.00     0.165 HD
ATOM     22  H33 169 d   1      -0.097  21.323  27.167  0.00  0.00     0.165 HD
ENDROOT
BRANCH   9  23
ATOM     23  C12 169 d   1      -0.452  17.514  20.921  0.00  0.00     0.107 C 
ATOM     24  H21 169 d   1       0.621  17.324  21.071  0.00  0.00     0.090 H 
BRANCH  23  25
ATOM     25  C10 169 d   1      -1.146  16.193  20.483  0.00  0.00     0.026 C 
ATOM     26  H18 169 d   1      -2.218  16.416  20.379  0.00  0.00     0.054 H 
BRANCH  25  27
ATOM     27  C11 169 d   1      -0.968  15.165  21.572  0.00  0.00     0.094 C 
ATOM     28  O2  169 d   1      -1.868  14.867  22.328  0.00  0.00    -0.306 OA
ATOM     29  H19 169 d   1      -0.002  14.675  21.683  0.00  0.00     0.144 H 
ENDBRANCH  25  27
BRANCH  25  30
ATOM     30  C13 169 d   1      -0.683  15.550  19.145  0.00  0.00    -0.052 C 
ATOM     31  H22 169 d   1       0.409  15.428  19.194  0.00  0.00     0.034 H 
ATOM     32  H23 169 d   1      -0.938  16.248  18.334  0.00  0.00     0.034 H 
BRANCH  30  33
ATOM     33  C14 169 d   1      -1.295  14.169  18.786  0.00  0.00    -0.049 C 
ATOM     34  H24 169 d   1      -2.389  14.254  18.858  0.00  0.00     0.035 H 
ATOM     35  H25 169 d   1      -0.935  13.437  19.524  0.00  0.00     0.035 H 
BRANCH  33  36
ATOM     36  C15 169 d   1      -0.952  13.637  17.385  0.00  0.00     0.009 C 
ATOM     37  H26 169 d   1      -1.069  12.543  17.382  0.00  0.00     0.064 H 
ATOM     38  H27 169 d   1       0.092  13.894  17.153  0.00  0.00     0.064 H 
BRANCH  36  39
ATOM     39  N4  169 d   1      -1.802  14.197  16.376  0.00  0.00    -0.227 N 
ATOM     40  C16 169 d   1      -2.012  13.591  15.266  0.00  0.00     0.665 C 
ATOM     41  N5  169 d   1      -2.657  14.118  14.170  0.00  0.00    -0.235 N 
ATOM     42  N6  169 d   1      -1.630  12.295  14.950  0.00  0.00    -0.235 N 
ATOM     43  H29 169 d   1      -2.777  13.549  13.320  0.00  0.00     0.174 HD
ATOM     44  H30 169 d   1      -3.020  15.082  14.200  0.00  0.00     0.174 HD
ATOM     45  H31 169 d   1      -1.128  11.722  15.644  0.00  0.00     0.174 HD
ATOM     46  H32 169 d   1      -1.848  11.905  14.022  0.00  0.00     0.174 HD
ATOM     47  H28 169 d   1      -2.254  15.107  16.547  0.00  0.00     0.177 HD
ENDBRANCH  36  39
ENDBRANCH  33  36
ENDBRANCH  30  33
ENDBRANCH  25  30
ENDBRANCH  23  25
BRANCH  23  48
ATOM     48  C17 169 d   1      -0.640  18.527  19.850  0.00  0.00     0.197 C 
ATOM     49  O3  169 d   1      -1.683  19.099  19.651  0.00  0.00    -0.646 OA
ATOM     50  O4  169 d   1       0.457  18.750  19.097  0.00  0.00    -0.646 OA
ENDBRANCH  23  48
ENDBRANCH   9  23
BRANCH  12  51
ATOM     51  C2  169 d   1       0.752  21.459  29.123  0.00  0.00     0.023 C 
BRANCH  51  52
ATOM     52  C1  169 d   1      -0.058  21.702  30.413  0.00  0.00    -0.054 C 
ATOM     53  H1  169 d   1       0.600  22.128  31.184  0.00  0.00     0.030 H 
ATOM     54  H2  169 d   1      -0.473  20.748  30.771  0.00  0.00     0.030 H 
ATOM     55  H3  169 d   1      -0.879  22.403  30.204  0.00  0.00     0.030 H 
ENDBRANCH  51  52
BRANCH  51  56
ATOM     56  C3  169 d   1       1.338  22.803  28.646  0.00  0.00    -0.054 C 
ATOM     57  H4  169 d   1       1.919  22.644  27.726  0.00  0.00     0.030 H 
ATOM     58  H5  169 d   1       1.994  23.215  29.427  0.00  0.00     0.030 H 
ATOM     59  H6  169 d   1       0.519  23.509  28.445  0.00  0.00     0.030 H 
ENDBRANCH  51  56
BRANCH  51  60
ATOM     60  C4  169 d   1       1.914  20.492  29.429  0.00  0.00    -0.054 C 
ATOM     61  H7  169 d   1       1.509  19.528  29.771  0.00  0.00     0.030 H 
ATOM     62  H8  169 d   1       2.551  20.922  30.216  0.00  0.00     0.030 H 
ATOM     63  H9  169 d   1       2.511  20.336  28.518  0.00  0.00     0.030 H 
ENDBRANCH  51  60
ENDBRANCH  12  51
TORSDOF 12
