REMARK  11 active torsions:
REMARK  status: ('A' for Active; 'I' for Inactive)
REMARK    1  A    between atoms: PG_1  and  N3B_5 
REMARK    2  A    between atoms: N3B_5  and  PB_6 
REMARK    3  A    between atoms: PB_6  and  O3A_9 
REMARK    4  A    between atoms: O3A_9  and  PA_10 
REMARK    5  A    between atoms: PA_10  and  O5_13 
REMARK    6  A    between atoms: O5_13  and  C5_14 
REMARK    7  A    between atoms: C5_14  and  C4_15 
REMARK    8  A    between atoms: C3_17  and  O3_18 
REMARK    9  A    between atoms: C2_19  and  O2_20 
REMARK   10  A    between atoms: C1_21  and  N9_22 
REMARK   11  A    between atoms: C2_29  and  N2_30 
ROOT
ATOM      1  C4  GNP d   1      -2.726  75.964  38.592  0.00  0.00     0.089 C 
ATOM      2  O4  GNP d   1      -2.116  75.222  39.691  0.00  0.00    -0.353 OA
ATOM      3  C3  GNP d   1      -1.590  76.492  37.760  0.00  0.00     0.091 C 
ATOM      4  C2  GNP d   1      -0.454  75.542  38.035  0.00  0.00     0.105 C 
ATOM      5  C1  GNP d   1      -0.706  75.251  39.525  0.00  0.00     0.139 C 
ATOM      6  H4  GNP d   1      -3.317  76.810  38.972  0.00  0.00     0.090 H 
ATOM      7  H5  GNP d   1      -1.859  76.491  36.693  0.00  0.00     0.091 H 
ATOM      8  H7  GNP d   1      -0.541  74.639  37.413  0.00  0.00     0.093 H 
ATOM      9  H9  GNP d   1      -0.254  76.046  40.136  0.00  0.00     0.122 H 
ENDROOT
BRANCH   1  10
ATOM     10  C5  GNP d   1      -3.663  74.982  37.868  0.00  0.00     0.058 C 
ATOM     11  H2  GNP d   1      -4.354  74.546  38.605  0.00  0.00     0.079 H 
ATOM     12  H3  GNP d   1      -4.237  75.536  37.111  0.00  0.00     0.079 H 
BRANCH  10  13
ATOM     13  O5  GNP d   1      -2.946  73.911  37.214  0.00  0.00    -0.287 OA
BRANCH  13  14
ATOM     14  PA  GNP d   1      -3.658  73.079  36.040  0.00  0.00     0.417 P 
ATOM     15  O1A GNP d   1      -2.832  71.880  35.917  0.00  0.00    -0.624 OA
ATOM     16  O2A GNP d   1      -3.879  74.020  34.913  0.00  0.00    -0.624 OA
BRANCH  14  17
ATOM     17  O3A GNP d   1      -5.078  72.735  36.632  0.00  0.00    -0.186 OA
BRANCH  17  18
ATOM     18  PB  GNP d   1      -6.281  72.008  35.946  0.00  0.00     0.379 P 
ATOM     19  O1B GNP d   1      -6.860  71.152  36.969  0.00  0.00    -0.629 OA
ATOM     20  O2B GNP d   1      -5.796  71.387  34.708  0.00  0.00    -0.629 OA
BRANCH  18  21
ATOM     21  N3B GNP d   1      -7.360  73.132  35.527  0.00  0.00    -0.218 N 
ATOM     22  H1  GNP d   1      -7.262  74.028  35.961  0.00  0.00     0.179 HD
BRANCH  21  23
ATOM     23  PG  GNP d   1      -8.603  72.966  34.465  0.00  0.00     0.381 P 
ATOM     24  O1G GNP d   1      -9.589  72.028  35.135  0.00  0.00    -0.622 OA
ATOM     25  O2G GNP d   1      -8.048  72.647  33.080  0.00  0.00    -0.622 OA
ATOM     26  O3G GNP d   1      -9.255  74.254  34.438  0.00  0.00    -0.622 OA
ENDBRANCH  21  23
ENDBRANCH  18  21
ENDBRANCH  17  18
ENDBRANCH  14  17
ENDBRANCH  13  14
ENDBRANCH  10  13
ENDBRANCH   1  10
BRANCH   3  27
ATOM     27  O3  GNP d   1      -1.208  77.801  38.154  0.00  0.00    -0.390 OA
ATOM     28  H6  GNP d   1      -0.490  78.098  37.607  0.00  0.00     0.210 HD
ENDBRANCH   3  27
BRANCH   5  29
ATOM     29  N9  GNP d   1      -0.201  73.953  39.966  0.00  0.00    -0.293 N 
ATOM     30  C8  GNP d   1      -0.457  72.736  39.393  0.00  0.00     0.071 A 
ATOM     31  N7  GNP d   1       0.105  71.726  40.030  0.00  0.00    -0.234 NA
ATOM     32  H10 GNP d   1      -1.065  72.613  38.498  0.00  0.00     0.144 H 
ATOM     33  C5  GNP d   1       0.794  72.340  41.085  0.00  0.00     0.173 A 
ATOM     34  C6  GNP d   1       1.587  71.770  42.107  0.00  0.00     0.292 A 
ATOM     35  C4  GNP d   1       0.582  73.691  41.100  0.00  0.00     0.186 A 
ATOM     36  O6  GNP d   1       1.852  70.570  42.290  0.00  0.00    -0.265 OA
ATOM     37  N1  GNP d   1       2.056  72.706  43.025  0.00  0.00    -0.152 N 
ATOM     38  C2  GNP d   1       1.850  74.089  42.952  0.00  0.00     0.703 A 
ATOM     39  H11 GNP d   1       2.584  72.362  43.801  0.00  0.00     0.187 HD
ATOM     40  N3  GNP d   1       1.104  74.640  41.951  0.00  0.00    -0.044 NA
BRANCH  38  41
ATOM     41  N2  GNP d   1       2.399  74.938  43.890  0.00  0.00    -0.233 N 
ATOM     42  H12 GNP d   1       2.238  75.953  43.822  0.00  0.00     0.174 HD
ATOM     43  H13 GNP d   1       2.970  74.557  44.658  0.00  0.00     0.174 HD
ENDBRANCH  38  41
ENDBRANCH   5  29
BRANCH   4  44
ATOM     44  O2  GNP d   1       0.849  76.081  37.890  0.00  0.00    -0.388 OA
ATOM     45  H8  GNP d   1       0.958  76.808  38.492  0.00  0.00     0.210 HD
ENDBRANCH   4  44
TORSDOF 11
