REMARK WARNING: 32 MAX_TORS EXCEEDED!!!
REMARK  33 active torsions:
REMARK  status: ('A' for Active; 'I' for Inactive)
REMARK    1  A    between atoms: C_1  and  CH3_3 
REMARK       I    between atoms: C_1  and  N_4 
REMARK    2  A    between atoms: N_4  and  CA_5 
REMARK    3  A    between atoms: CA_5  and  C_6 
REMARK    4  A    between atoms: CA_5  and  CB_8 
REMARK       I    between atoms: C_6  and  N_11 
REMARK    5  A    between atoms: CB_8  and  CG1_9 
REMARK    6  A    between atoms: CB_8  and  CG2_10 
REMARK    7  A    between atoms: N_11  and  CA_12 
REMARK    8  A    between atoms: CA_12  and  C_13 
REMARK    9  A    between atoms: CA_12  and  CB_15 
REMARK       I    between atoms: C_13  and  N_20 
REMARK   10  A    between atoms: CB_15  and  CG_16 
REMARK   11  A    between atoms: CG_16  and  CD_17 
REMARK   12  A    between atoms: CD_17  and  CE_18 
REMARK   13  A    between atoms: CE_18  and  NZ_19 
REMARK   14  A    between atoms: N_20  and  CA_21 
REMARK   15  A    between atoms: CA_21  and  C_22 
REMARK   16  A    between atoms: CA_21  and  CB_24 
REMARK       I    between atoms: C_22  and  N_29 
REMARK   17  A    between atoms: CB_24  and  CG_25 
REMARK   18  A    between atoms: CG_25  and  CD_26 
REMARK   19  A    between atoms: N_29  and  CA_30 
REMARK   20  A    between atoms: CA_30  and  C_31 
REMARK   21  A    between atoms: CA_30  and  CB_33 
REMARK       I    between atoms: C_31  and  N_35 
REMARK   22  A    between atoms: CB_33  and  OG_34 
REMARK   23  A    between atoms: N_35  and  CA_36 
REMARK   24  A    between atoms: CA_36  and  C_37 
REMARK   25  A    between atoms: CA_36  and  CB_39 
REMARK       I    between atoms: C_37  and  N_43 
REMARK   26  A    between atoms: CB_39  and  CG_40 
REMARK   27  A    between atoms: CG_40  and  CD1_41 
REMARK   28  A    between atoms: CG_40  and  CD2_42 
REMARK   29  A    between atoms: N_43  and  CA_44 
REMARK   30  A    between atoms: CA_44  and  C_45 
REMARK   31  A    between atoms: CA_44  and  CB_47 
REMARK   32  A    between atoms: CB_47  and  CG1_48 
REMARK   33  A    between atoms: CB_47  and  CG2_49 
ROOT
ATOM      1  CA  GLU d   1      12.244  27.672   0.948  0.00  0.00     0.090 C 
ATOM      2  H27 GLU d   1      12.999  27.769   0.154  0.00  0.00     0.087 H 
ENDROOT
BRANCH   1   3
ATOM      3  N   GLU d   1      10.973  27.331   0.326  0.00  0.00    -0.346 N 
ATOM      4  C   LYS d   1      10.835  27.353  -0.993  0.00  0.00     0.241 C 
ATOM      5  O   LYS d   1      11.744  27.683  -1.745  0.00  0.00    -0.271 OA
ATOM      6  H26 GLU d   1      10.194  27.077   0.900  0.00  0.00     0.163 HD
BRANCH   4   7
ATOM      7  CA  LYS d   1       9.474  26.965  -1.554  0.00  0.00     0.089 C 
ATOM      8  H14 LYS d   1       8.789  26.715  -0.730  0.00  0.00     0.087 H 
BRANCH   7   9
ATOM      9  N   LYS d   1       8.949  28.102  -2.299  0.00  0.00    -0.346 N 
ATOM     10  C   VAL d   1       8.085  28.953  -1.758  0.00  0.00     0.241 C 
ATOM     11  O   VAL d   1       7.649  28.827  -0.613  0.00  0.00    -0.271 OA
ATOM     12  H13 LYS d   1       9.247  28.245  -3.243  0.00  0.00     0.163 HD
BRANCH  10  13
ATOM     13  CA  VAL d   1       7.639  30.114  -2.646  0.00  0.00     0.092 C 
ATOM     14  H5  VAL d   1       7.837  29.856  -3.697  0.00  0.00     0.088 H 
BRANCH  13  15
ATOM     15  N   VAL d   1       6.212  30.368  -2.495  0.00  0.00    -0.348 N 
ATOM     16  C   ACE d   1       5.305  29.513  -2.953  0.00  0.00     0.214 C 
ATOM     17  O   ACE d   1       5.330  28.307  -2.693  0.00  0.00    -0.274 OA
ATOM     18  H4  VAL d   1       5.909  31.204  -2.037  0.00  0.00     0.163 HD
BRANCH  16  19
ATOM     19  CH3 ACE d   1       3.992  30.218  -3.298  0.00  0.00    -0.003 C 
ATOM     20  H1  ACE d   1       4.188  31.282  -3.495  0.00  0.00     0.040 H 
ATOM     21  H2  ACE d   1       3.293  30.124  -2.454  0.00  0.00     0.040 H 
ATOM     22  H3  ACE d   1       3.551  29.755  -4.193  0.00  0.00     0.040 H 
ENDBRANCH  16  19
ENDBRANCH  13  15
BRANCH  13  23
ATOM     23  CB  VAL d   1       8.468  31.362  -2.272  0.00  0.00    -0.033 C 
ATOM     24  H6  VAL d   1       8.359  31.549  -1.194  0.00  0.00     0.042 H 
BRANCH  23  25
ATOM     25  CG1 VAL d   1       9.939  31.124  -2.578  0.00  0.00    -0.071 C 
ATOM     26  H7  VAL d   1      10.519  32.019  -2.308  0.00  0.00     0.028 H 
ATOM     27  H8  VAL d   1      10.062  30.918  -3.651  0.00  0.00     0.028 H 
ATOM     28  H9  VAL d   1      10.300  30.263  -1.996  0.00  0.00     0.028 H 
ENDBRANCH  23  25
BRANCH  23  29
ATOM     29  CG2 VAL d   1       7.951  32.574  -3.030  0.00  0.00    -0.071 C 
ATOM     30  H10 VAL d   1       6.888  32.727  -2.795  0.00  0.00     0.028 H 
ATOM     31  H11 VAL d   1       8.067  32.407  -4.111  0.00  0.00     0.028 H 
ATOM     32  H12 VAL d   1       8.524  33.464  -2.733  0.00  0.00     0.028 H 
ENDBRANCH  23  29
ENDBRANCH  13  23
ENDBRANCH  10  13
ENDBRANCH   7   9
BRANCH   7  33
ATOM     33  CB  LYS d   1       9.627  25.751  -2.472  0.00  0.00    -0.038 C 
ATOM     34  H15 LYS d   1      10.208  26.058  -3.354  0.00  0.00     0.036 H 
ATOM     35  H16 LYS d   1       8.623  25.431  -2.788  0.00  0.00     0.036 H 
BRANCH  33  36
ATOM     36  CG  LYS d   1      10.330  24.554  -1.831  0.00  0.00    -0.061 C 
ATOM     37  H17 LYS d   1      11.259  24.901  -1.355  0.00  0.00     0.033 H 
ATOM     38  H18 LYS d   1      10.572  23.823  -2.616  0.00  0.00     0.033 H 
BRANCH  36  39
ATOM     39  CD  LYS d   1       9.464  23.877  -0.781  0.00  0.00    -0.043 C 
ATOM     40  H19 LYS d   1       8.502  23.596  -1.235  0.00  0.00     0.035 H 
ATOM     41  H20 LYS d   1       9.288  24.579   0.047  0.00  0.00     0.035 H 
BRANCH  39  42
ATOM     42  CE  LYS d   1      10.144  22.621  -0.235  0.00  0.00     0.080 C 
ATOM     43  H21 LYS d   1      11.013  22.922   0.368  0.00  0.00     0.075 H 
ATOM     44  H22 LYS d   1      10.480  22.004  -1.081  0.00  0.00     0.075 H 
BRANCH  42  45
ATOM     45  NZ  LYS d   1       9.225  21.807   0.619  0.00  0.00    -0.079 N 
ATOM     46  H23 LYS d   1       9.713  20.992   0.956  0.00  0.00     0.274 HD
ATOM     47  H24 LYS d   1       8.427  21.519   0.074  0.00  0.00     0.274 HD
ATOM     48  H25 LYS d   1       8.915  22.361   1.402  0.00  0.00     0.274 HD
ENDBRANCH  42  45
ENDBRANCH  39  42
ENDBRANCH  36  39
ENDBRANCH  33  36
ENDBRANCH   7  33
ENDBRANCH   4   7
ENDBRANCH   1   3
BRANCH   1  49
ATOM     49  C   GLU d   1      12.690  26.564   1.885  0.00  0.00     0.241 C 
ATOM     50  O   GLU d   1      11.874  25.790   2.378  0.00  0.00    -0.271 OA
ATOM     51  N   SER d   1      13.997  26.495   2.112  0.00  0.00    -0.344 N 
ATOM     52  H32 SER d   1      14.594  27.177   1.690  0.00  0.00     0.163 HD
BRANCH  51  53
ATOM     53  CA  SER d   1      14.595  25.465   2.952  0.00  0.00     0.109 C 
ATOM     54  H33 SER d   1      13.790  24.884   3.426  0.00  0.00     0.090 H 
BRANCH  53  55
ATOM     55  C   SER d   1      15.459  26.079   4.050  0.00  0.00     0.243 C 
ATOM     56  O   SER d   1      16.355  26.879   3.767  0.00  0.00    -0.271 OA
ATOM     57  N   LEU d   1      15.170  25.713   5.298  0.00  0.00    -0.346 N 
ATOM     58  H37 LEU d   1      14.430  25.058   5.451  0.00  0.00     0.163 HD
BRANCH  57  59
ATOM     59  CA  LEU d   1      15.899  26.237   6.449  0.00  0.00     0.089 C 
ATOM     60  H38 LEU d   1      16.071  27.312   6.291  0.00  0.00     0.087 H 
BRANCH  59  61
ATOM     61  C   LEU d   1      17.252  25.546   6.644  0.00  0.00     0.241 C 
ATOM     62  O   LEU d   1      17.383  24.331   6.490  0.00  0.00    -0.271 OA
ATOM     63  N   VAL d   1      18.256  26.337   6.981  0.00  0.00    -0.344 N 
ATOM     64  H48 VAL d   1      18.100  27.322   7.051  0.00  0.00     0.163 HD
BRANCH  63  65
ATOM     65  CA  VAL d   1      19.583  25.807   7.252  0.00  0.00     0.099 C 
ATOM     66  H49 VAL d   1      19.531  24.715   7.378  0.00  0.00     0.090 H 
BRANCH  65  67
ATOM     67  C   VAL d   1      20.038  26.463   8.558  0.00  0.00     0.197 C 
ATOM     68  O   VAL d   1      19.584  27.606   8.799  0.00  0.00    -0.646 OA
ATOM     69  OXT VAL d   1      20.815  25.840   9.322  0.00  0.00    -0.646 OA
ENDBRANCH  65  67
BRANCH  65  70
ATOM     70  CB  VAL d   1      20.566  26.133   6.100  0.00  0.00    -0.032 C 
ATOM     71  H50 VAL d   1      21.558  25.736   6.361  0.00  0.00     0.042 H 
BRANCH  70  72
ATOM     72  CG1 VAL d   1      20.087  25.459   4.812  0.00  0.00    -0.071 C 
ATOM     73  H51 VAL d   1      20.786  25.691   3.995  0.00  0.00     0.028 H 
ATOM     74  H52 VAL d   1      19.085  25.831   4.554  0.00  0.00     0.028 H 
ATOM     75  H53 VAL d   1      20.046  24.370   4.961  0.00  0.00     0.028 H 
ENDBRANCH  70  72
BRANCH  70  76
ATOM     76  CG2 VAL d   1      20.684  27.623   5.892  0.00  0.00    -0.071 C 
ATOM     77  H54 VAL d   1      21.029  28.097   6.823  0.00  0.00     0.028 H 
ATOM     78  H55 VAL d   1      19.702  28.033   5.613  0.00  0.00     0.028 H 
ATOM     79  H56 VAL d   1      21.407  27.825   5.088  0.00  0.00     0.028 H 
ENDBRANCH  70  76
ENDBRANCH  65  70
ENDBRANCH  63  65
ENDBRANCH  59  61
BRANCH  59  80
ATOM     80  CB  LEU d   1      15.074  26.042   7.719  0.00  0.00    -0.035 C 
ATOM     81  H39 LEU d   1      14.765  24.987   7.752  0.00  0.00     0.037 H 
ATOM     82  H40 LEU d   1      14.183  26.682   7.634  0.00  0.00     0.037 H 
BRANCH  80  83
ATOM     83  CG  LEU d   1      15.744  26.365   9.059  0.00  0.00    -0.059 C 
ATOM     84  H41 LEU d   1      16.709  25.840   9.117  0.00  0.00     0.038 H 
BRANCH  83  85
ATOM     85  CD1 LEU d   1      15.982  27.869   9.141  0.00  0.00    -0.073 C 
ATOM     86  H42 LEU d   1      16.463  28.112  10.100  0.00  0.00     0.028 H 
ATOM     87  H43 LEU d   1      15.020  28.397   9.069  0.00  0.00     0.028 H 
ATOM     88  H44 LEU d   1      16.635  28.183   8.313  0.00  0.00     0.028 H 
ENDBRANCH  83  85
BRANCH  83  89
ATOM     89  CD2 LEU d   1      14.858  25.909  10.225  0.00  0.00    -0.073 C 
ATOM     90  H45 LEU d   1      14.692  24.824  10.157  0.00  0.00     0.028 H 
ATOM     91  H46 LEU d   1      13.891  26.431  10.177  0.00  0.00     0.028 H 
ATOM     92  H47 LEU d   1      15.355  26.145  11.177  0.00  0.00     0.028 H 
ENDBRANCH  83  89
ENDBRANCH  80  83
ENDBRANCH  59  80
ENDBRANCH  57  59
ENDBRANCH  53  55
BRANCH  53  93
ATOM     93  CB  SER d   1      15.432  24.527   2.068  0.00  0.00     0.044 C 
ATOM     94  H34 SER d   1      16.066  25.134   1.405  0.00  0.00     0.077 H 
ATOM     95  H35 SER d   1      14.753  23.910   1.462  0.00  0.00     0.077 H 
BRANCH  93  96
ATOM     96  OG  SER d   1      16.260  23.675   2.839  0.00  0.00    -0.398 OA
ATOM     97  H36 SER d   1      15.720  23.143   3.411  0.00  0.00     0.209 HD
ENDBRANCH  93  96
ENDBRANCH  53  93
ENDBRANCH  51  53
ENDBRANCH   1  49
BRANCH   1  98
ATOM     98  CB  GLU d   1      12.148  29.021   1.676  0.00  0.00    -0.029 C 
ATOM     99  H28 GLU d   1      11.838  29.780   0.943  0.00  0.00     0.037 H 
ATOM    100  H29 GLU d   1      13.148  29.270   2.061  0.00  0.00     0.037 H 
BRANCH  98 101
ATOM    101  CG  GLU d   1      11.180  29.068   2.831  0.00  0.00     0.018 C 
ATOM    102  H30 GLU d   1      11.704  28.753   3.745  0.00  0.00     0.049 H 
ATOM    103  H31 GLU d   1      10.350  28.376   2.626  0.00  0.00     0.049 H 
BRANCH 101 104
ATOM    104  CD  GLU d   1      10.613  30.464   3.047  0.00  0.00     0.172 C 
ATOM    105  OE1 GLU d   1      11.370  31.452   2.934  0.00  0.00    -0.648 OA
ATOM    106  OE2 GLU d   1       9.404  30.576   3.341  0.00  0.00    -0.648 OA
ENDBRANCH 101 104
ENDBRANCH  98 101
ENDBRANCH   1  98
TORSDOF 33
