REMARK  23 active torsions:
REMARK  status: ('A' for Active; 'I' for Inactive)
REMARK    1  A    between atoms: O2_17  and  C1_1 
REMARK    2  A    between atoms: C2_2  and  O2_7 
REMARK    3  A    between atoms: C3_3  and  O3_8 
REMARK    4  A    between atoms: C4_4  and  O4_9 
REMARK    5  A    between atoms: C5_5  and  C6_6 
REMARK    6  A    between atoms: O4_32  and  C1_11 
REMARK    7  A    between atoms: C2_12  and  O2_17 
REMARK    8  A    between atoms: C3_13  and  O3_18 
REMARK    9  A    between atoms: C4_14  and  O4_19 
REMARK   10  A    between atoms: C5_15  and  C6_16 
REMARK   11  A    between atoms: C6_16  and  O6_21 
REMARK   12  A    between atoms: C1_22  and  O1L_36 
REMARK   13  A    between atoms: N2_35  and  C2_23 
REMARK   14  A    between atoms: C3_24  and  O3_31 
REMARK   15  A    between atoms: C4_25  and  O4_32 
REMARK   16  A    between atoms: C5_26  and  C6_27 
REMARK   17  A    between atoms: C6_27  and  O6_33 
REMARK   18  A    between atoms: C7_28  and  C8_29 
REMARK       I    between atoms: C7_28  and  N2_35 
REMARK   19  A    between atoms: O3_31  and  C1_37 
REMARK   20  A    between atoms: C2_38  and  O2_43 
REMARK   21  A    between atoms: C3_39  and  O3_44 
REMARK   22  A    between atoms: C4_40  and  O4_45 
REMARK   23  A    between atoms: C5_41  and  C6_42 
ROOT
ATOM      1  C1  NON d   1     -38.855  39.210  15.575  0.00  0.00     0.151 C 
ATOM      2  C2  NON d   1     -37.400  38.976  15.118  0.00  0.00     0.087 C 
ATOM      3  C3  NON d   1     -36.570  40.259  15.252  0.00  0.00     0.093 C 
ATOM      4  C4  NON d   1     -37.274  41.385  14.491  0.00  0.00     0.096 C 
ATOM      5  C5  NON d   1     -38.694  41.555  15.059  0.00  0.00     0.089 C 
ATOM      6  O   NON d   1     -39.437  40.330  14.889  0.00  0.00    -0.349 OA
ATOM      7  H   NON d   1     -39.442  38.308  15.349  0.00  0.00     0.132 H 
ATOM      8  H   NON d   1     -37.415  38.684  14.057  0.00  0.00     0.084 H 
ATOM      9  H   NON d   1     -36.471  40.532  16.313  0.00  0.00     0.091 H 
ATOM     10  H   NON d   1     -37.343  41.109  13.428  0.00  0.00     0.091 H 
ATOM     11  H   NON d   1     -38.615  41.795  16.130  0.00  0.00     0.090 H 
ENDROOT
BRANCH   4  12
ATOM     12  O4  NON d   1     -36.534  42.623  14.600  0.00  0.00    -0.348 OA
BRANCH  12  13
ATOM     13  C1  NON d   1     -36.453  43.388  13.441  0.00  0.00     0.159 C 
ATOM     14  C2  NON d   1     -36.046  44.830  13.785  0.00  0.00     0.116 C 
ATOM     15  C3  NON d   1     -35.917  45.628  12.488  0.00  0.00     0.092 C 
ATOM     16  H   NON d   1     -35.076  44.819  14.304  0.00  0.00     0.095 H 
ATOM     17  C4  NON d   1     -34.873  44.957  11.595  0.00  0.00     0.090 C 
ATOM     18  H   NON d   1     -36.887  45.630  11.969  0.00  0.00     0.091 H 
ATOM     19  C5  NON d   1     -35.318  43.515  11.325  0.00  0.00     0.089 C 
ATOM     20  H   NON d   1     -34.786  45.504  10.645  0.00  0.00     0.091 H 
ATOM     21  O5  NON d   1     -35.462  42.798  12.572  0.00  0.00    -0.348 OA
ATOM     22  H   NON d   1     -36.292  43.551  10.815  0.00  0.00     0.090 H 
ATOM     23  H   NON d   1     -37.430  43.396  12.936  0.00  0.00     0.133 H 
BRANCH  14  24
ATOM     24  O2  NON d   1     -37.028  45.443  14.639  0.00  0.00    -0.346 OA
BRANCH  24  25
ATOM     25  C1  NON d   1     -36.503  46.251  15.659  0.00  0.00     0.159 C 
ATOM     26  C2  NON d   1     -37.568  47.235  16.148  0.00  0.00     0.110 C 
ATOM     27  C3  NON d   1     -38.674  46.481  16.888  0.00  0.00     0.092 C 
ATOM     28  H   NON d   1     -37.102  47.955  16.836  0.00  0.00     0.094 H 
ATOM     29  C4  NON d   1     -38.068  45.666  18.030  0.00  0.00     0.087 C 
ATOM     30  H   NON d   1     -39.178  45.800  16.187  0.00  0.00     0.091 H 
ATOM     31  C5  NON d   1     -37.006  44.722  17.469  0.00  0.00     0.065 C 
ATOM     32  H   NON d   1     -38.858  45.080  18.523  0.00  0.00     0.091 H 
ATOM     33  O5  NON d   1     -36.001  45.484  16.755  0.00  0.00    -0.351 OA
ATOM     34  H   NON d   1     -37.492  44.015  16.781  0.00  0.00     0.086 H 
ATOM     35  H   NON d   1     -35.666  46.827  15.238  0.00  0.00     0.133 H 
BRANCH  26  36
ATOM     36  O2  NON d   1     -38.121  47.938  15.046  0.00  0.00    -0.388 OA
ATOM     37  H   NON d   1     -38.533  47.321  14.453  0.00  0.00     0.210 HD
ENDBRANCH  26  36
BRANCH  27  38
ATOM     38  O3  NON d   1     -39.624  47.403  17.403  0.00  0.00    -0.390 OA
ATOM     39  H   NON d   1     -39.996  47.906  16.688  0.00  0.00     0.210 HD
ENDBRANCH  27  38
BRANCH  29  40
ATOM     40  O4  NON d   1     -37.468  46.545  18.977  0.00  0.00    -0.390 OA
ATOM     41  H   NON d   1     -38.129  47.132  19.326  0.00  0.00     0.210 HD
ENDBRANCH  29  40
BRANCH  31  42
ATOM     42  C6  NON d   1     -36.294  43.945  18.558  0.00  0.00    -0.050 C 
ATOM     43  H   NON d   1     -35.542  43.282  18.104  0.00  0.00     0.031 H 
ATOM     44  H   NON d   1     -37.025  43.342  19.116  0.00  0.00     0.031 H 
ATOM     45  H   NON d   1     -35.797  44.647  19.244  0.00  0.00     0.031 H 
ENDBRANCH  31  42
ENDBRANCH  24  25
ENDBRANCH  14  24
BRANCH  15  46
ATOM     46  O3  NON d   1     -35.542  46.971  12.763  0.00  0.00    -0.390 OA
ATOM     47  H   NON d   1     -34.702  46.980  13.207  0.00  0.00     0.210 HD
ENDBRANCH  15  46
BRANCH  17  48
ATOM     48  O4  NON d   1     -33.617  44.955  12.262  0.00  0.00    -0.390 OA
ATOM     49  H   NON d   1     -32.971  44.523  11.716  0.00  0.00     0.210 HD
ENDBRANCH  17  48
BRANCH  19  50
ATOM     50  C6  NON d   1     -34.348  42.731  10.454  0.00  0.00     0.043 C 
ATOM     51  H   NON d   1     -34.339  43.170   9.445  0.00  0.00     0.078 H 
ATOM     52  H   NON d   1     -34.685  41.685  10.396  0.00  0.00     0.078 H 
BRANCH  50  53
ATOM     53  O6  NON d   1     -33.030  42.762  10.982  0.00  0.00    -0.398 OA
ATOM     54  H   NON d   1     -32.730  43.662  11.030  0.00  0.00     0.209 HD
ENDBRANCH  50  53
ENDBRANCH  19  50
ENDBRANCH  12  13
ENDBRANCH   4  12
BRANCH   3  55
ATOM     55  O3  NON d   1     -35.267  40.034  14.683  0.00  0.00    -0.348 OA
BRANCH  55  56
ATOM     56  C1  NON d   1     -34.228  39.833  15.601  0.00  0.00     0.159 C 
ATOM     57  C2  NON d   1     -33.051  39.157  14.886  0.00  0.00     0.110 C 
ATOM     58  C3  NON d   1     -32.518  40.101  13.800  0.00  0.00     0.092 C 
ATOM     59  H   NON d   1     -32.252  38.952  15.613  0.00  0.00     0.094 H 
ATOM     60  C4  NON d   1     -32.129  41.444  14.427  0.00  0.00     0.087 C 
ATOM     61  H   NON d   1     -33.303  40.266  13.047  0.00  0.00     0.091 H 
ATOM     62  C5  NON d   1     -33.313  42.031  15.213  0.00  0.00     0.065 C 
ATOM     63  H   NON d   1     -31.841  42.146  13.631  0.00  0.00     0.091 H 
ATOM     64  O5  NON d   1     -33.792  41.062  16.175  0.00  0.00    -0.351 OA
ATOM     65  H   NON d   1     -34.117  42.272  14.502  0.00  0.00     0.086 H 
ATOM     66  H   NON d   1     -34.588  39.176  16.406  0.00  0.00     0.133 H 
BRANCH  57  67
ATOM     67  O2  NON d   1     -33.478  37.930  14.305  0.00  0.00    -0.388 OA
ATOM     68  H   NON d   1     -32.744  37.517  13.866  0.00  0.00     0.210 HD
ENDBRANCH  57  67
BRANCH  58  69
ATOM     69  O3  NON d   1     -31.381  39.520  13.171  0.00  0.00    -0.390 OA
ATOM     70  H   NON d   1     -30.699  39.381  13.818  0.00  0.00     0.210 HD
ENDBRANCH  58  69
BRANCH  60  71
ATOM     71  O4  NON d   1     -31.028  41.244  15.301  0.00  0.00    -0.390 OA
ATOM     72  H   NON d   1     -30.299  40.881  14.812  0.00  0.00     0.210 HD
ENDBRANCH  60  71
BRANCH  62  73
ATOM     73  C6  NON d   1     -32.943  43.287  15.984  0.00  0.00    -0.050 C 
ATOM     74  H   NON d   1     -33.826  43.659  16.524  0.00  0.00     0.031 H 
ATOM     75  H   NON d   1     -32.590  44.057  15.283  0.00  0.00     0.031 H 
ATOM     76  H   NON d   1     -32.145  43.054  16.704  0.00  0.00     0.031 H 
ENDBRANCH  62  73
ENDBRANCH  55  56
ENDBRANCH   3  55
BRANCH   5  77
ATOM     77  C6  NON d   1     -39.479  42.646  14.366  0.00  0.00     0.043 C 
ATOM     78  H   NON d   1     -39.675  42.343  13.327  0.00  0.00     0.078 H 
ATOM     79  H   NON d   1     -38.887  43.573  14.372  0.00  0.00     0.078 H 
BRANCH  77  80
ATOM     80  O6  NON d   1     -40.720  42.882  15.023  0.00  0.00    -0.398 OA
ATOM     81  H   NON d   1     -41.192  43.570  14.569  0.00  0.00     0.209 HD
ENDBRANCH  77  80
ENDBRANCH   5  77
BRANCH   2  82
ATOM     82  N2  NON d   1     -36.793  37.900  15.879  0.00  0.00    -0.349 N 
ATOM     83  C7  NON d   1     -36.247  36.865  15.244  0.00  0.00     0.214 C 
ATOM     84  O7  NON d   1     -36.180  36.797  14.016  0.00  0.00    -0.274 OA
ATOM     85  H   NON d   1     -36.785  37.936  16.878  0.00  0.00     0.163 HD
BRANCH  83  86
ATOM     86  C8  NON d   1     -35.694  35.729  16.089  0.00  0.00    -0.003 C 
ATOM     87  H   NON d   1     -35.839  35.960  17.154  0.00  0.00     0.040 H 
ATOM     88  H   NON d   1     -34.620  35.608  15.883  0.00  0.00     0.040 H 
ATOM     89  H   NON d   1     -36.222  34.797  15.841  0.00  0.00     0.040 H 
ENDBRANCH  83  86
ENDBRANCH   2  82
BRANCH   1  90
ATOM     90  O1L NON d   1     -38.907  39.453  16.936  0.00  0.00    -0.369 OA
ATOM     91  H   NON d   1     -38.420  40.244  17.134  0.00  0.00     0.212 HD
ENDBRANCH   1  90
TORSDOF 23
