REMARK  11 active torsions:
REMARK  status: ('A' for Active; 'I' for Inactive)
REMARK    1  A    between atoms: N_1  and  CA_2 
REMARK    2  A    between atoms: CA_2  and  CB_3 
REMARK    3  A    between atoms: CA_2  and  C_6 
REMARK    4  A    between atoms: CB_3  and  CG_4 
REMARK    5  A    between atoms: CG_4  and  SD_5 
REMARK    6  A    between atoms: SD_5  and  C5_9 
REMARK    7  A    between atoms: C5_9  and  C4_10 
REMARK    8  A    between atoms: C3_12  and  O3_13 
REMARK    9  A    between atoms: C2_14  and  O2_15 
REMARK   10  A    between atoms: C1_16  and  N9_17 
REMARK   11  A    between atoms: C6_21  and  N6_22 
ROOT
ATOM      1  C4  SAH d   1      86.800  93.946  10.150  0.00  0.00     0.076 C 
ATOM      2  O4  SAH d   1      85.877  94.085   9.092  0.00  0.00    -0.355 OA
ATOM      3  C3  SAH d   1      87.422  95.324  10.298  0.00  0.00     0.090 C 
ATOM      4  C2  SAH d   1      87.369  95.881   8.895  0.00  0.00     0.105 C 
ATOM      5  C1  SAH d   1      86.127  95.239   8.331  0.00  0.00     0.139 C 
ATOM      6  H11 SAH d   1      87.590  93.232   9.874  0.00  0.00     0.088 H 
ATOM      7  H12 SAH d   1      86.812  95.935  10.980  0.00  0.00     0.091 H 
ATOM      8  H14 SAH d   1      87.309  96.979   8.901  0.00  0.00     0.093 H 
ATOM      9  H16 SAH d   1      86.310  94.955   7.284  0.00  0.00     0.122 H 
ENDROOT
BRANCH   1  10
ATOM     10  C5  SAH d   1      86.073  93.390  11.373  0.00  0.00     0.003 C 
ATOM     11  H9  SAH d   1      86.586  93.741  12.281  0.00  0.00     0.052 H 
ATOM     12  H10 SAH d   1      85.038  93.762  11.370  0.00  0.00     0.052 H 
BRANCH  10  13
ATOM     13  SD  SAH d   1      86.044  91.569  11.381  0.00  0.00    -0.166 SA
BRANCH  13  14
ATOM     14  CG  SAH d   1      84.247  91.461  11.118  0.00  0.00    -0.021 C 
ATOM     15  H7  SAH d   1      83.875  90.597  11.688  0.00  0.00     0.049 H 
ATOM     16  H8  SAH d   1      83.793  92.383  11.511  0.00  0.00     0.049 H 
BRANCH  14  17
ATOM     17  CB  SAH d   1      83.790  91.296   9.663  0.00  0.00    -0.021 C 
ATOM     18  H5  SAH d   1      84.231  92.117   9.078  0.00  0.00     0.037 H 
ATOM     19  H6  SAH d   1      84.178  90.334   9.296  0.00  0.00     0.037 H 
BRANCH  17  20
ATOM     20  CA  SAH d   1      82.277  91.311   9.422  0.00  0.00     0.183 C 
ATOM     21  H4  SAH d   1      81.858  92.147  10.002  0.00  0.00     0.101 H 
BRANCH  20  22
ATOM     22  N   SAH d   1      81.635  90.085   9.873  0.00  0.00    -0.065 N 
ATOM     23  H1  SAH d   1      81.853  89.930  10.845  0.00  0.00     0.275 HD
ATOM     24  H2  SAH d   1      81.971  89.308   9.325  0.00  0.00     0.275 HD
ATOM     25  H3  SAH d   1      80.637  90.168   9.761  0.00  0.00     0.275 HD
ENDBRANCH  20  22
BRANCH  20  26
ATOM     26  C   SAH d   1      81.946  91.541   7.955  0.00  0.00     0.204 C 
ATOM     27  O   SAH d   1      81.458  90.639   7.271  0.00  0.00    -0.646 OA
ATOM     28  OXT SAH d   1      82.140  92.635   7.430  0.00  0.00    -0.646 OA
ENDBRANCH  20  26
ENDBRANCH  17  20
ENDBRANCH  14  17
ENDBRANCH  13  14
ENDBRANCH  10  13
ENDBRANCH   1  10
BRANCH   3  29
ATOM     29  O3  SAH d   1      88.743  95.320  10.771  0.00  0.00    -0.390 OA
ATOM     30  H13 SAH d   1      89.292  94.832  10.169  0.00  0.00     0.210 HD
ENDBRANCH   3  29
BRANCH   5  31
ATOM     31  N9  SAH d   1      84.967  96.156   8.373  0.00  0.00    -0.294 N 
ATOM     32  C8  SAH d   1      83.823  96.002   9.091  0.00  0.00     0.071 A 
ATOM     33  N7  SAH d   1      83.023  97.043   8.846  0.00  0.00    -0.236 NA
ATOM     34  H17 SAH d   1      83.597  95.169   9.755  0.00  0.00     0.144 H 
ATOM     35  C5  SAH d   1      83.621  97.863   7.970  0.00  0.00     0.149 A 
ATOM     36  C6  SAH d   1      83.243  99.068   7.377  0.00  0.00     0.155 A 
ATOM     37  C4  SAH d   1      84.861  97.319   7.668  0.00  0.00     0.167 A 
ATOM     38  N1  SAH d   1      84.119  99.682   6.517  0.00  0.00    -0.222 NA
ATOM     39  C2  SAH d   1      85.339  99.114   6.223  0.00  0.00     0.091 A 
ATOM     40  N3  SAH d   1      85.714  97.932   6.807  0.00  0.00    -0.222 NA
ATOM     41  H20 SAH d   1      86.007  99.605   5.525  0.00  0.00     0.146 H 
BRANCH  36  42
ATOM     42  N6  SAH d   1      82.075  99.638   7.621  0.00  0.00    -0.382 N 
ATOM     43  H18 SAH d   1      81.831 100.528   7.164  0.00  0.00     0.157 HD
ATOM     44  H19 SAH d   1      81.409  99.192   8.268  0.00  0.00     0.157 HD
ENDBRANCH  36  42
ENDBRANCH   5  31
BRANCH   4  45
ATOM     45  O2  SAH d   1      88.452  95.450   8.108  0.00  0.00    -0.388 OA
ATOM     46  H15 SAH d   1      88.378  95.823   7.237  0.00  0.00     0.210 HD
ENDBRANCH   4  45
TORSDOF 11
