REMARK  5 active torsions:
REMARK  status: ('A' for Active; 'I' for Inactive)
REMARK    1  A    between atoms: N_1  and  CA_2 
REMARK    2  A    between atoms: CA_2  and  C_3 
REMARK    3  A    between atoms: CA_2  and  CB_5 
REMARK    4  A    between atoms: CB_5  and  CG_6 
REMARK    5  A    between atoms: CG_6  and  CD_7 
ROOT
ATOM      1  CA  GLU d   1      11.296   3.481  -1.836  0.00  0.00     0.183 C 
ATOM      2  H4  GLU d   1      10.521   3.680  -2.591  0.00  0.00     0.101 H 
ENDROOT
BRANCH   1   3
ATOM      3  N   GLU d   1      11.235   2.037  -1.451  0.00  0.00    -0.065 N 
ATOM      4  H1  GLU d   1      10.329   1.832  -1.058  0.00  0.00     0.275 HD
ATOM      5  H2  GLU d   1      11.950   1.841  -0.768  0.00  0.00     0.275 HD
ATOM      6  H3  GLU d   1      11.385   1.465  -2.267  0.00  0.00     0.275 HD
ENDBRANCH   1   3
BRANCH   1   7
ATOM      7  C   GLU d   1      12.662   3.810  -2.433  0.00  0.00     0.204 C 
ATOM      8  O   GLU d   1      13.386   2.855  -2.812  0.00  0.00    -0.646 OA
ATOM      9  OXT GLU d   1      12.995   5.012  -2.517  0.00  0.00    -0.646 OA
ENDBRANCH   1   7
BRANCH   1  10
ATOM     10  CB  GLU d   1      11.032   4.367  -0.610  0.00  0.00    -0.020 C 
ATOM     11  H5  GLU d   1      11.428   5.371  -0.823  0.00  0.00     0.037 H 
ATOM     12  H6  GLU d   1      11.570   3.934   0.246  0.00  0.00     0.037 H 
BRANCH  10  13
ATOM     13  CG  GLU d   1       9.557   4.510  -0.221  0.00  0.00     0.018 C 
ATOM     14  H7  GLU d   1       9.496   5.053   0.734  0.00  0.00     0.049 H 
ATOM     15  H8  GLU d   1       9.127   3.505  -0.099  0.00  0.00     0.049 H 
BRANCH  13  16
ATOM     16  CD  GLU d   1       8.742   5.266  -1.264  0.00  0.00     0.172 C 
ATOM     17  OE1 GLU d   1       9.334   6.096  -1.986  0.00  0.00    -0.648 OA
ATOM     18  OE2 GLU d   1       7.514   5.045  -1.347  0.00  0.00    -0.648 OA
ENDBRANCH  13  16
ENDBRANCH  10  13
ENDBRANCH   1  10
TORSDOF 5
