REMARK WARNING: 32 MAX_TORS EXCEEDED!!!
REMARK  82 active torsions:
REMARK  status: ('A' for Active; 'I' for Inactive)
REMARK    1  A    between atoms: N_1  and  CA_2 
REMARK    2  A    between atoms: CA_2  and  C_3 
REMARK    3  A    between atoms: CA_2  and  CB_5 
REMARK       I    between atoms: C_3  and  N_12 
REMARK    4  A    between atoms: CB_5  and  CG_6 
REMARK    5  A    between atoms: CG_6  and  CD_7 
REMARK    6  A    between atoms: CD_7  and  NE_8 
REMARK       I    between atoms: NE_8  and  CZ_9 
REMARK       I    between atoms: CZ_9  and  NH1_10 
REMARK       I    between atoms: CZ_9  and  NH2_11 
REMARK    7  A    between atoms: N_12  and  CA_13 
REMARK    8  A    between atoms: CA_13  and  C_14 
REMARK    9  A    between atoms: CA_13  and  CB_16 
REMARK       I    between atoms: C_14  and  N_20 
REMARK   10  A    between atoms: CB_16  and  CG_17 
REMARK   11  A    between atoms: CG_17  and  SD_18 
REMARK   12  A    between atoms: SD_18  and  CE_19 
REMARK   13  A    between atoms: N_20  and  CA_21 
REMARK   14  A    between atoms: CA_21  and  C_22 
REMARK   15  A    between atoms: CA_21  and  CB_24 
REMARK       I    between atoms: C_22  and  N_28 
REMARK   16  A    between atoms: CB_24  and  CG_25 
REMARK       I    between atoms: CG_25  and  ND2_27 
REMARK   17  A    between atoms: N_28  and  CA_29 
REMARK   18  A    between atoms: CA_29  and  C_30 
REMARK   19  A    between atoms: CA_29  and  CB_32 
REMARK       I    between atoms: C_30  and  N_36 
REMARK   20  A    between atoms: CB_32  and  CG1_33 
REMARK   21  A    between atoms: CB_32  and  CG2_34 
REMARK   22  A    between atoms: CG1_33  and  CD1_35 
REMARK   23  A    between atoms: N_36  and  CA_37 
REMARK   24  A    between atoms: CA_37  and  C_38 
REMARK   25  A    between atoms: CA_37  and  CB_40 
REMARK       I    between atoms: C_38  and  N_45 
REMARK   26  A    between atoms: CB_40  and  CG_41 
REMARK   27  A    between atoms: CG_41  and  CD_42 
REMARK       I    between atoms: CD_42  and  NE2_44 
REMARK   28  A    between atoms: N_45  and  CA_46 
REMARK   29  A    between atoms: CA_46  and  C_47 
REMARK   30  A    between atoms: CA_46  and  CB_49 
REMARK       I    between atoms: C_47  and  N_53 
REMARK   31  A    between atoms: CB_49  and  CG_50 
REMARK   32  A    between atoms: CG_50  and  SD_51 
REMARK   33  A    between atoms: SD_51  and  CE_52 
REMARK   34  A    between atoms: N_53  and  CA_54 
REMARK   35  A    between atoms: CA_54  and  C_55 
REMARK   36  A    between atoms: CA_54  and  CB_57 
REMARK       I    between atoms: C_55  and  N_61 
REMARK   37  A    between atoms: CB_57  and  CG_58 
REMARK   38  A    between atoms: CG_58  and  CD1_59 
REMARK   39  A    between atoms: CG_58  and  CD2_60 
REMARK   40  A    between atoms: N_61  and  CA_62 
REMARK   41  A    between atoms: CA_62  and  C_63 
REMARK   42  A    between atoms: CA_62  and  CB_65 
REMARK       I    between atoms: C_63  and  N_69 
REMARK   43  A    between atoms: CB_65  and  CG_66 
REMARK   44  A    between atoms: CG_66  and  CD1_67 
REMARK   45  A    between atoms: CG_66  and  CD2_68 
REMARK   46  A    between atoms: N_69  and  CA_70 
REMARK   47  A    between atoms: CA_70  and  C_71 
REMARK   48  A    between atoms: CA_70  and  CB_73 
REMARK       I    between atoms: C_71  and  N_78 
REMARK   49  A    between atoms: CB_73  and  CG_74 
REMARK   50  A    between atoms: CG_74  and  CD_75 
REMARK   51  A    between atoms: N_78  and  CA_79 
REMARK   52  A    between atoms: CA_79  and  C_80 
REMARK   53  A    between atoms: CA_79  and  CB_82 
REMARK       I    between atoms: C_80  and  N_83 
REMARK   54  A    between atoms: N_83  and  CA_84 
REMARK   55  A    between atoms: CA_84  and  C_85 
REMARK   56  A    between atoms: CA_84  and  CB_87 
REMARK       I    between atoms: C_85  and  N_88 
REMARK   57  A    between atoms: N_88  and  CA_89 
REMARK   58  A    between atoms: CA_89  and  C_90 
REMARK   59  A    between atoms: CA_89  and  CB_92 
REMARK       I    between atoms: C_90  and  N_96 
REMARK   60  A    between atoms: CB_92  and  CG_93 
REMARK   61  A    between atoms: N_96  and  CA_97 
REMARK   62  A    between atoms: CA_97  and  C_98 
REMARK   63  A    between atoms: CA_97  and  CB_100 
REMARK       I    between atoms: C_98  and  N_108 
REMARK   64  A    between atoms: CB_100  and  CG_101 
REMARK   65  A    between atoms: CZ_106  and  OH_107 
REMARK   66  A    between atoms: N_108  and  CA_109 
REMARK   67  A    between atoms: CA_109  and  C_110 
REMARK   68  A    between atoms: CA_109  and  CB_112 
REMARK       I    between atoms: C_110  and  N_116 
REMARK   69  A    between atoms: CB_112  and  CG_113 
REMARK   70  A    between atoms: CG_113  and  CD1_114 
REMARK   71  A    between atoms: CG_113  and  CD2_115 
REMARK   72  A    between atoms: N_116  and  CA_117 
REMARK   73  A    between atoms: CA_117  and  C_118 
REMARK   74  A    between atoms: CA_117  and  CB_120 
REMARK       I    between atoms: C_118  and  N_125 
REMARK   75  A    between atoms: CB_120  and  CG_121 
REMARK   76  A    between atoms: CG_121  and  CD_122 
REMARK   77  A    between atoms: N_125  and  CA_126 
REMARK   78  A    between atoms: CA_126  and  C_127 
REMARK   79  A    between atoms: CA_126  and  CB_129 
REMARK   80  A    between atoms: CB_129  and  CG_130 
REMARK   81  A    between atoms: CG_130  and  CD_131 
REMARK   82  A    between atoms: CD_131  and  NE_132 
REMARK       I    between atoms: NE_132  and  CZ_133 
REMARK       I    between atoms: CZ_133  and  NH1_134 
ROOT
ATOM      1  CA  LEU d   1      -0.711   4.625  -4.174  0.00  0.00     0.089 C 
ATOM      2  H71 LEU d   1      -0.073   3.808  -4.542  0.00  0.00     0.087 H 
ENDROOT
BRANCH   1   3
ATOM      3  N   LEU d   1      -0.484   4.774  -2.741  0.00  0.00    -0.346 N 
ATOM      4  C   LEU d   1       0.736   4.956  -2.244  0.00  0.00     0.241 C 
ATOM      5  O   LEU d   1       1.745   5.007  -2.948  0.00  0.00    -0.271 OA
ATOM      6  H70 LEU d   1      -1.265   4.738  -2.117  0.00  0.00     0.163 HD
BRANCH   4   7
ATOM      7  CA  LEU d   1       0.834   5.102  -0.729  0.00  0.00     0.089 C 
ATOM      8  H60 LEU d   1       1.670   5.778  -0.496  0.00  0.00     0.087 H 
BRANCH   7   9
ATOM      9  N   LEU d   1      -0.389   5.677  -0.185  0.00  0.00    -0.346 N 
ATOM     10  C   MET d   1      -0.797   6.896  -0.527  0.00  0.00     0.241 C 
ATOM     11  O   MET d   1      -0.182   7.612  -1.320  0.00  0.00    -0.271 OA
ATOM     12  H59 LEU d   1      -0.935   5.143   0.461  0.00  0.00     0.163 HD
BRANCH  10  13
ATOM     13  CA  MET d   1      -2.093   7.376   0.119  0.00  0.00     0.090 C 
ATOM     14  H51 MET d   1      -2.372   8.340  -0.332  0.00  0.00     0.087 H 
BRANCH  13  15
ATOM     15  N   MET d   1      -3.172   6.425  -0.116  0.00  0.00    -0.346 N 
ATOM     16  C   GLN d   1      -3.606   6.149  -1.342  0.00  0.00     0.241 C 
ATOM     17  O   GLN d   1      -3.132   6.667  -2.356  0.00  0.00    -0.271 OA
ATOM     18  H50 MET d   1      -3.597   5.968   0.665  0.00  0.00     0.163 HD
BRANCH  16  19
ATOM     19  CA  GLN d   1      -4.741   5.133  -1.438  0.00  0.00     0.090 C 
ATOM     20  H43 GLN d   1      -4.682   4.635  -2.417  0.00  0.00     0.087 H 
BRANCH  19  21
ATOM     21  N   GLN d   1      -4.620   4.118  -0.396  0.00  0.00    -0.346 N 
ATOM     22  C   ILE d   1      -3.516   3.387  -0.260  0.00  0.00     0.241 C 
ATOM     23  O   ILE d   1      -2.534   3.513  -0.991  0.00  0.00    -0.271 OA
ATOM     24  H42 GLN d   1      -5.385   3.968   0.231  0.00  0.00     0.163 HD
BRANCH  22  25
ATOM     25  CA  ILE d   1      -3.520   2.361   0.870  0.00  0.00     0.092 C 
ATOM     26  H32 ILE d   1      -2.484   2.039   1.053  0.00  0.00     0.088 H 
BRANCH  25  27
ATOM     27  N   ILE d   1      -4.040   2.939   2.105  0.00  0.00    -0.346 N 
ATOM     28  C   ASN d   1      -3.357   2.879   3.244  0.00  0.00     0.241 C 
ATOM     29  O   ASN d   1      -2.253   2.342   3.337  0.00  0.00    -0.271 OA
ATOM     30  H31 ILE d   1      -4.932   3.391   2.094  0.00  0.00     0.163 HD
BRANCH  28  31
ATOM     31  CA  ASN d   1      -4.018   3.520   4.463  0.00  0.00     0.097 C 
ATOM     32  H26 ASN d   1      -3.269   3.595   5.265  0.00  0.00     0.088 H 
BRANCH  31  33
ATOM     33  N   ASN d   1      -4.504   4.862   4.159  0.00  0.00    -0.346 N 
ATOM     34  C   MET d   1      -4.935   5.679   5.118  0.00  0.00     0.241 C 
ATOM     35  O   MET d   1      -4.948   5.364   6.307  0.00  0.00    -0.271 OA
ATOM     36  H25 ASN d   1      -4.514   5.175   3.209  0.00  0.00     0.163 HD
BRANCH  34  37
ATOM     37  CA  MET d   1      -5.424   7.053   4.667  0.00  0.00     0.090 C 
ATOM     38  H17 MET d   1      -5.004   7.261   3.672  0.00  0.00     0.087 H 
BRANCH  37  39
ATOM     39  N   MET d   1      -6.880   7.082   4.567  0.00  0.00    -0.346 N 
ATOM     40  C   ARG d   1      -7.500   7.653   3.539  0.00  0.00     0.248 C 
ATOM     41  O   ARG d   1      -6.901   8.190   2.607  0.00  0.00    -0.271 OA
ATOM     42  H16 MET d   1      -7.426   6.661   5.291  0.00  0.00     0.163 HD
BRANCH  40  43
ATOM     43  CA  ARG d   1      -9.025   7.608   3.566  0.00  0.00     0.176 C 
ATOM     44  H4  ARG d   1      -9.343   7.019   4.439  0.00  0.00     0.099 H 
BRANCH  43  45
ATOM     45  N   ARG d   1      -9.595   8.976   3.687  0.00  0.00    -0.067 N 
ATOM     46  H1  ARG d   1     -10.601   8.921   3.703  0.00  0.00     0.275 HD
ATOM     47  H2  ARG d   1      -9.302   9.533   2.900  0.00  0.00     0.275 HD
ATOM     48  H3  ARG d   1      -9.269   9.402   4.540  0.00  0.00     0.275 HD
ENDBRANCH  43  45
BRANCH  43  49
ATOM     49  CB  ARG d   1      -9.547   6.929   2.297  0.00  0.00    -0.029 C 
ATOM     50  H5  ARG d   1      -9.240   7.531   1.429  0.00  0.00     0.036 H 
ATOM     51  H6  ARG d   1     -10.645   6.893   2.348  0.00  0.00     0.036 H 
BRANCH  49  52
ATOM     52  CG  ARG d   1      -9.029   5.514   2.107  0.00  0.00    -0.047 C 
ATOM     53  H7  ARG d   1      -9.283   4.918   2.996  0.00  0.00     0.035 H 
ATOM     54  H8  ARG d   1      -7.936   5.546   1.987  0.00  0.00     0.035 H 
BRANCH  52  55
ATOM     55  CD  ARG d   1      -9.641   4.858   0.882  0.00  0.00     0.009 C 
ATOM     56  H9  ARG d   1      -9.205   3.856   0.760  0.00  0.00     0.064 H 
ATOM     57  H10 ARG d   1      -9.408   5.469  -0.003  0.00  0.00     0.064 H 
BRANCH  55  58
ATOM     58  NE  ARG d   1     -11.091   4.731   1.000  0.00  0.00    -0.227 N 
ATOM     59  CZ  ARG d   1     -11.858   4.150   0.082  0.00  0.00     0.665 C 
ATOM     60  NH1 ARG d   1     -11.316   3.640  -1.015  0.00  0.00    -0.235 N 
ATOM     61  NH2 ARG d   1     -13.170   4.078   0.263  0.00  0.00    -0.235 N 
ATOM     62  H12 ARG d   1     -11.913   3.191  -1.724  0.00  0.00     0.174 HD
ATOM     63  H13 ARG d   1     -10.297   3.693  -1.159  0.00  0.00     0.174 HD
ATOM     64  H14 ARG d   1     -13.595   4.473   1.114  0.00  0.00     0.174 HD
ATOM     65  H15 ARG d   1     -13.764   3.627  -0.448  0.00  0.00     0.174 HD
ATOM     66  H11 ARG d   1     -11.545   5.113   1.842  0.00  0.00     0.177 HD
ENDBRANCH  55  58
ENDBRANCH  52  55
ENDBRANCH  49  52
ENDBRANCH  43  49
ENDBRANCH  40  43
ENDBRANCH  37  39
BRANCH  37  67
ATOM     67  CB  MET d   1      -4.934   8.134   5.636  0.00  0.00    -0.030 C 
ATOM     68  H18 MET d   1      -4.588   8.996   5.047  0.00  0.00     0.037 H 
ATOM     69  H19 MET d   1      -4.093   7.724   6.215  0.00  0.00     0.037 H 
BRANCH  67  70
ATOM     70  CG  MET d   1      -5.997   8.617   6.613  0.00  0.00    -0.021 C 
ATOM     71  H20 MET d   1      -6.884   8.927   6.042  0.00  0.00     0.049 H 
ATOM     72  H21 MET d   1      -5.598   9.479   7.168  0.00  0.00     0.049 H 
BRANCH  70  73
ATOM     73  SD  MET d   1      -6.489   7.348   7.797  0.00  0.00    -0.173 SA
BRANCH  73  74
ATOM     74  CE  MET d   1      -4.991   7.185   8.767  0.00  0.00    -0.035 C 
ATOM     75  H22 MET d   1      -5.142   6.427   9.550  0.00  0.00     0.041 H 
ATOM     76  H23 MET d   1      -4.750   8.151   9.234  0.00  0.00     0.041 H 
ATOM     77  H24 MET d   1      -4.162   6.877   8.113  0.00  0.00     0.041 H 
ENDBRANCH  73  74
ENDBRANCH  70  73
ENDBRANCH  67  70
ENDBRANCH  37  67
ENDBRANCH  34  37
ENDBRANCH  31  33
BRANCH  31  78
ATOM     78  CB  ASN d   1      -5.173   2.647   4.953  0.00  0.00     0.036 C 
ATOM     79  H27 ASN d   1      -5.551   3.059   5.900  0.00  0.00     0.051 H 
ATOM     80  H28 ASN d   1      -4.799   1.626   5.121  0.00  0.00     0.051 H 
BRANCH  78  81
ATOM     81  CG  ASN d   1      -6.313   2.591   3.956  0.00  0.00     0.217 C 
ATOM     82  OD1 ASN d   1      -6.476   1.607   3.234  0.00  0.00    -0.274 OA
ATOM     83  ND2 ASN d   1      -7.099   3.659   3.898  0.00  0.00    -0.370 N 
ATOM     84  H29 ASN d   1      -7.868   3.680   3.259  0.00  0.00     0.159 HD
ATOM     85  H30 ASN d   1      -6.922   4.443   4.493  0.00  0.00     0.159 HD
ENDBRANCH  78  81
ENDBRANCH  31  78
ENDBRANCH  28  31
ENDBRANCH  25  27
BRANCH  25  86
ATOM     86  CB  ILE d   1      -4.345   1.130   0.436  0.00  0.00    -0.030 C 
ATOM     87  H33 ILE d   1      -5.386   1.449   0.278  0.00  0.00     0.043 H 
BRANCH  86  88
ATOM     88  CG1 ILE d   1      -4.331   0.058   1.532  0.00  0.00    -0.063 C 
ATOM     89  H34 ILE d   1      -4.957  -0.784   1.201  0.00  0.00     0.033 H 
ATOM     90  H35 ILE d   1      -4.757   0.494   2.448  0.00  0.00     0.033 H 
BRANCH  88  91
ATOM     91  CD1 ILE d   1      -2.949  -0.473   1.854  0.00  0.00    -0.076 C 
ATOM     92  H39 ILE d   1      -3.024  -1.234   2.645  0.00  0.00     0.027 H 
ATOM     93  H40 ILE d   1      -2.310   0.353   2.199  0.00  0.00     0.027 H 
ATOM     94  H41 ILE d   1      -2.510  -0.924   0.952  0.00  0.00     0.027 H 
ENDBRANCH  88  91
ENDBRANCH  86  88
BRANCH  86  95
ATOM     95  CG2 ILE d   1      -3.814   0.564  -0.874  0.00  0.00    -0.071 C 
ATOM     96  H36 ILE d   1      -3.832   1.347  -1.646  0.00  0.00     0.028 H 
ATOM     97  H37 ILE d   1      -4.445  -0.279  -1.192  0.00  0.00     0.028 H 
ATOM     98  H38 ILE d   1      -2.781   0.215  -0.731  0.00  0.00     0.028 H 
ENDBRANCH  86  95
ENDBRANCH  25  86
ENDBRANCH  22  25
ENDBRANCH  19  21
BRANCH  19  99
ATOM     99  CB  GLN d   1      -6.092   5.845  -1.332  0.00  0.00    -0.030 C 
ATOM    100  H44 GLN d   1      -6.132   6.372  -0.367  0.00  0.00     0.037 H 
ATOM    101  H45 GLN d   1      -6.888   5.087  -1.369  0.00  0.00     0.037 H 
BRANCH  99 102
ATOM    102  CG  GLN d   1      -6.339   6.855  -2.442  0.00  0.00     0.011 C 
ATOM    103  H46 GLN d   1      -6.260   6.340  -3.411  0.00  0.00     0.047 H 
ATOM    104  H47 GLN d   1      -5.571   7.640  -2.380  0.00  0.00     0.047 H 
BRANCH 102 105
ATOM    105  CD  GLN d   1      -7.706   7.505  -2.349  0.00  0.00     0.215 C 
ATOM    106  OE1 GLN d   1      -8.259   7.662  -1.261  0.00  0.00    -0.274 OA
ATOM    107  NE2 GLN d   1      -8.258   7.887  -3.495  0.00  0.00    -0.370 N 
ATOM    108  H48 GLN d   1      -9.159   8.322  -3.496  0.00  0.00     0.159 HD
ATOM    109  H49 GLN d   1      -7.773   7.740  -4.357  0.00  0.00     0.159 HD
ENDBRANCH 102 105
ENDBRANCH  99 102
ENDBRANCH  19  99
ENDBRANCH  16  19
ENDBRANCH  13  15
BRANCH  13 110
ATOM    110  CB  MET d   1      -1.888   7.580   1.622  0.00  0.00    -0.030 C 
ATOM    111  H52 MET d   1      -1.684   6.601   2.081  0.00  0.00     0.037 H 
ATOM    112  H53 MET d   1      -2.813   7.998   2.046  0.00  0.00     0.037 H 
BRANCH 110 113
ATOM    113  CG  MET d   1      -0.738   8.518   1.958  0.00  0.00    -0.021 C 
ATOM    114  H54 MET d   1      -0.931   9.494   1.489  0.00  0.00     0.049 H 
ATOM    115  H55 MET d   1       0.192   8.094   1.552  0.00  0.00     0.049 H 
BRANCH 113 116
ATOM    116  SD  MET d   1      -0.535   8.760   3.733  0.00  0.00    -0.173 SA
BRANCH 116 117
ATOM    117  CE  MET d   1      -2.090   9.544   4.145  0.00  0.00    -0.035 C 
ATOM    118  H56 MET d   1      -2.118   9.760   5.223  0.00  0.00     0.041 H 
ATOM    119  H57 MET d   1      -2.920   8.871   3.884  0.00  0.00     0.041 H 
ATOM    120  H58 MET d   1      -2.188  10.483   3.581  0.00  0.00     0.041 H 
ENDBRANCH 116 117
ENDBRANCH 113 116
ENDBRANCH 110 113
ENDBRANCH  13 110
ENDBRANCH  10  13
ENDBRANCH   7   9
BRANCH   7 121
ATOM    121  CB  LEU d   1       1.115   3.740  -0.088  0.00  0.00    -0.035 C 
ATOM    122  H61 LEU d   1       2.106   3.404  -0.426  0.00  0.00     0.037 H 
ATOM    123  H62 LEU d   1       0.348   3.034  -0.440  0.00  0.00     0.037 H 
BRANCH 121 124
ATOM    124  CG  LEU d   1       1.106   3.723   1.443  0.00  0.00    -0.059 C 
ATOM    125  H63 LEU d   1       0.136   4.110   1.788  0.00  0.00     0.038 H 
BRANCH 124 126
ATOM    126  CD1 LEU d   1       1.268   2.303   1.962  0.00  0.00    -0.073 C 
ATOM    127  H64 LEU d   1       1.259   2.311   3.062  0.00  0.00     0.028 H 
ATOM    128  H65 LEU d   1       2.223   1.889   1.606  0.00  0.00     0.028 H 
ATOM    129  H66 LEU d   1       0.439   1.681   1.593  0.00  0.00     0.028 H 
ENDBRANCH 124 126
BRANCH 124 130
ATOM    130  CD2 LEU d   1       2.204   4.621   1.994  0.00  0.00    -0.073 C 
ATOM    131  H67 LEU d   1       2.070   5.642   1.608  0.00  0.00     0.028 H 
ATOM    132  H68 LEU d   1       3.185   4.236   1.679  0.00  0.00     0.028 H 
ATOM    133  H69 LEU d   1       2.150   4.634   3.093  0.00  0.00     0.028 H 
ENDBRANCH 124 130
ENDBRANCH 121 124
ENDBRANCH   7 121
ENDBRANCH   4   7
ENDBRANCH   1   3
BRANCH   1 134
ATOM    134  C   LEU d   1      -0.338   5.903  -4.919  0.00  0.00     0.241 C 
ATOM    135  O   LEU d   1       0.438   5.870  -5.875  0.00  0.00    -0.271 OA
ATOM    136  N   GLU d   1      -0.895   7.026  -4.476  0.00  0.00    -0.346 N 
ATOM    137  H81 GLU d   1      -1.520   6.987  -3.697  0.00  0.00     0.163 HD
BRANCH 136 138
ATOM    138  CA  GLU d   1      -0.615   8.315  -5.101  0.00  0.00     0.090 C 
ATOM    139  H82 GLU d   1      -0.867   8.245  -6.170  0.00  0.00     0.087 H 
BRANCH 138 140
ATOM    140  C   GLU d   1       0.862   8.671  -4.973  0.00  0.00     0.241 C 
ATOM    141  O   GLU d   1       1.457   9.234  -5.893  0.00  0.00    -0.271 OA
ATOM    142  N   ALA d   1       1.448   8.340  -3.826  0.00  0.00    -0.346 N 
ATOM    143  H87 ALA d   1       0.909   7.886  -3.117  0.00  0.00     0.163 HD
BRANCH 142 144
ATOM    144  CA  ALA d   1       2.857   8.622  -3.576  0.00  0.00     0.086 C 
ATOM    145  H88 ALA d   1       3.011   9.708  -3.654  0.00  0.00     0.086 H 
BRANCH 144 146
ATOM    146  C   ALA d   1       3.745   7.937  -4.610  0.00  0.00     0.240 C 
ATOM    147  O   ALA d   1       4.617   8.567  -5.211  0.00  0.00    -0.271 OA
ATOM    148  N   ALA d   1       3.516   6.642  -4.812  0.00  0.00    -0.346 N 
ATOM    149  H92 ALA d   1       2.792   6.188  -4.292  0.00  0.00     0.163 HD
BRANCH 148 150
ATOM    150  CA  ALA d   1       4.294   5.867  -5.772  0.00  0.00     0.086 C 
ATOM    151  H93 ALA d   1       5.359   5.982  -5.524  0.00  0.00     0.086 H 
BRANCH 150 152
ATOM    152  C   ALA d   1       4.077   6.373  -7.194  0.00  0.00     0.240 C 
ATOM    153  O   ALA d   1       5.021   6.472  -7.977  0.00  0.00    -0.271 OA
ATOM    154  N   ASP d   1       2.828   6.692  -7.522  0.00  0.00    -0.346 N 
ATOM    155  H97 ASP d   1       2.103   6.590  -6.840  0.00  0.00     0.163 HD
BRANCH 154 156
ATOM    156  CA  ASP d   1       2.490   7.187  -8.852  0.00  0.00     0.098 C 
ATOM    157  H98 ASP d   1       2.889   6.484  -9.598  0.00  0.00     0.088 H 
BRANCH 156 158
ATOM    158  C   ASP d   1       3.115   8.556  -9.091  0.00  0.00     0.241 C 
ATOM    159  O   ASP d   1       3.360   8.950 -10.231  0.00  0.00    -0.271 OA
ATOM    160  N   TYR d   1       3.369   9.275  -8.003  0.00  0.00    -0.346 N 
ATOM    161 1H10 TYR d   1       3.142   8.896  -7.106  0.00  0.00     0.163 HD
BRANCH 160 162
ATOM    162  CA  TYR d   1       3.970  10.601  -8.080  0.00  0.00     0.093 C 
ATOM    163 2H10 TYR d   1       3.467  11.168  -8.877  0.00  0.00     0.088 H 
BRANCH 162 164
ATOM    164  C   TYR d   1       5.456  10.504  -8.417  0.00  0.00     0.241 C 
ATOM    165  O   TYR d   1       5.911  11.049  -9.423  0.00  0.00    -0.271 OA
ATOM    166  N   LEU d   1       6.205   9.809  -7.566  0.00  0.00    -0.346 N 
ATOM    167 0H11 LEU d   1       5.773   9.391  -6.767  0.00  0.00     0.163 HD
BRANCH 166 168
ATOM    168  CA  LEU d   1       7.641   9.640  -7.767  0.00  0.00     0.089 C 
ATOM    169 1H11 LEU d   1       8.115  10.633  -7.764  0.00  0.00     0.087 H 
BRANCH 168 170
ATOM    170  C   LEU d   1       7.928   8.967  -9.104  0.00  0.00     0.241 C 
ATOM    171  O   LEU d   1       8.876   9.328  -9.803  0.00  0.00    -0.271 OA
ATOM    172  N   GLU d   1       7.103   7.986  -9.450  0.00  0.00    -0.346 N 
ATOM    173 1H12 GLU d   1       6.352   7.742  -8.836  0.00  0.00     0.163 HD
BRANCH 172 174
ATOM    174  CA  GLU d   1       7.263   7.255 -10.703  0.00  0.00     0.090 C 
ATOM    175 2H12 GLU d   1       8.280   6.837 -10.733  0.00  0.00     0.087 H 
BRANCH 174 176
ATOM    176  C   GLU d   1       7.086   8.181 -11.904  0.00  0.00     0.241 C 
ATOM    177  O   GLU d   1       7.993   8.330 -12.723  0.00  0.00    -0.271 OA
ATOM    178  N   ARG d   1       5.913   8.799 -12.002  0.00  0.00    -0.345 N 
ATOM    179 7H12 ARG d   1       5.216   8.635 -11.304  0.00  0.00     0.163 HD
BRANCH 178 180
ATOM    180  CA  ARG d   1       5.617   9.711 -13.102  0.00  0.00     0.096 C 
ATOM    181 8H12 ARG d   1       6.535  10.260 -13.357  0.00  0.00     0.089 H 
BRANCH 180 182
ATOM    182  C   ARG d   1       4.546  10.719 -12.696  0.00  0.00     0.196 C 
ATOM    183  O   ARG d   1       3.348  10.407 -12.859  0.00  0.00    -0.646 OA
ATOM    184  OXT ARG d   1       4.916  11.813 -12.220  0.00  0.00    -0.646 OA
ENDBRANCH 180 182
BRANCH 180 185
ATOM    185  CB  ARG d   1       5.159   8.926 -14.334  0.00  0.00    -0.035 C 
ATOM    186 9H12 ARG d   1       4.215   8.417 -14.090  0.00  0.00     0.036 H 
ATOM    187 0H13 ARG d   1       5.928   8.177 -14.574  0.00  0.00     0.036 H 
BRANCH 185 188
ATOM    188  CG  ARG d   1       4.934   9.793 -15.563  0.00  0.00    -0.047 C 
ATOM    189 1H13 ARG d   1       5.876  10.299 -15.821  0.00  0.00     0.035 H 
ATOM    190 2H13 ARG d   1       4.164  10.545 -15.335  0.00  0.00     0.035 H 
BRANCH 188 191
ATOM    191  CD  ARG d   1       4.477   8.963 -16.752  0.00  0.00     0.009 C 
ATOM    192 3H13 ARG d   1       4.335   9.628 -17.616  0.00  0.00     0.064 H 
ATOM    193 4H13 ARG d   1       3.522   8.479 -16.501  0.00  0.00     0.064 H 
BRANCH 191 194
ATOM    194  NE  ARG d   1       5.450   7.932 -17.105  0.00  0.00    -0.227 N 
ATOM    195  CZ  ARG d   1       5.274   7.055 -18.089  0.00  0.00     0.665 C 
ATOM    196  NH1 ARG d   1       4.164   7.080 -18.818  0.00  0.00    -0.235 N 
ATOM    197  NH2 ARG d   1       6.207   6.147 -18.343  0.00  0.00    -0.235 N 
ATOM    198 6H13 ARG d   1       4.032   6.399 -19.579  0.00  0.00     0.174 HD
ATOM    199 7H13 ARG d   1       3.435   7.781 -18.622  0.00  0.00     0.174 HD
ATOM    200 8H13 ARG d   1       7.069   6.124 -17.780  0.00  0.00     0.174 HD
ATOM    201 9H13 ARG d   1       6.069   5.465 -19.103  0.00  0.00     0.174 HD
ATOM    202 5H13 ARG d   1       6.323   7.881 -16.560  0.00  0.00     0.177 HD
ENDBRANCH 191 194
ENDBRANCH 188 191
ENDBRANCH 185 188
ENDBRANCH 180 185
ENDBRANCH 178 180
ENDBRANCH 174 176
BRANCH 174 203
ATOM    203  CB  GLU d   1       6.259   6.102 -10.776  0.00  0.00    -0.029 C 
ATOM    204 3H12 GLU d   1       5.243   6.524 -10.753  0.00  0.00     0.037 H 
ATOM    205 4H12 GLU d   1       6.408   5.456  -9.899  0.00  0.00     0.037 H 
BRANCH 203 206
ATOM    206  CG  GLU d   1       6.397   5.251 -12.028  0.00  0.00     0.018 C 
ATOM    207 5H12 GLU d   1       7.432   4.883 -12.091  0.00  0.00     0.049 H 
ATOM    208 6H12 GLU d   1       6.176   5.877 -12.905  0.00  0.00     0.049 H 
BRANCH 206 209
ATOM    209  CD  GLU d   1       5.457   4.061 -12.031  0.00  0.00     0.172 C 
ATOM    210  OE1 GLU d   1       4.280   4.236 -12.410  0.00  0.00    -0.648 OA
ATOM    211  OE2 GLU d   1       5.898   2.956 -11.652  0.00  0.00    -0.648 OA
ENDBRANCH 206 209
ENDBRANCH 203 206
ENDBRANCH 174 203
ENDBRANCH 172 174
ENDBRANCH 168 170
BRANCH 168 212
ATOM    212  CB  LEU d   1       8.236   8.806  -6.631  0.00  0.00    -0.035 C 
ATOM    213 2H11 LEU d   1       9.332   8.835  -6.724  0.00  0.00     0.037 H 
ATOM    214 3H11 LEU d   1       7.886   7.770  -6.749  0.00  0.00     0.037 H 
BRANCH 212 215
ATOM    215  CG  LEU d   1       7.867   9.274  -5.225  0.00  0.00    -0.059 C 
ATOM    216 4H11 LEU d   1       6.773   9.380  -5.171  0.00  0.00     0.038 H 
BRANCH 215 217
ATOM    217  CD1 LEU d   1       8.301   8.249  -4.189  0.00  0.00    -0.073 C 
ATOM    218 5H11 LEU d   1       8.027   8.604  -3.185  0.00  0.00     0.028 H 
ATOM    219 6H11 LEU d   1       9.391   8.111  -4.244  0.00  0.00     0.028 H 
ATOM    220 7H11 LEU d   1       7.799   7.291  -4.389  0.00  0.00     0.028 H 
ENDBRANCH 215 217
BRANCH 215 221
ATOM    221  CD2 LEU d   1       8.495  10.629  -4.930  0.00  0.00    -0.073 C 
ATOM    222 8H11 LEU d   1       8.170  11.357  -5.688  0.00  0.00     0.028 H 
ATOM    223 9H11 LEU d   1       9.591  10.538  -4.955  0.00  0.00     0.028 H 
ATOM    224 0H12 LEU d   1       8.178  10.971  -3.934  0.00  0.00     0.028 H 
ENDBRANCH 215 221
ENDBRANCH 212 215
ENDBRANCH 168 212
ENDBRANCH 166 168
ENDBRANCH 162 164
BRANCH 162 225
ATOM    225  CB  TYR d   1       3.775  11.341  -6.753  0.00  0.00    -0.014 C 
ATOM    226 3H10 TYR d   1       4.135  10.693  -5.940  0.00  0.00     0.043 H 
ATOM    227 4H10 TYR d   1       2.700  11.535  -6.620  0.00  0.00     0.043 H 
BRANCH 225 228
ATOM    228  CG  TYR d   1       4.510  12.661  -6.670  0.00  0.00    -0.056 A 
ATOM    229  CD1 TYR d   1       3.925  13.837  -7.124  0.00  0.00    -0.074 A 
ATOM    230  CE1 TYR d   1       4.596  15.043  -7.046  0.00  0.00    -0.051 A 
ATOM    231 5H10 TYR d   1       2.927  13.808  -7.546  0.00  0.00     0.084 H 
ATOM    232  CZ  TYR d   1       5.865  15.085  -6.510  0.00  0.00     0.065 A 
ATOM    233 7H10 TYR d   1       4.126  15.952  -7.405  0.00  0.00     0.087 H 
ATOM    234  CE2 TYR d   1       6.466  13.932  -6.053  0.00  0.00    -0.051 A 
ATOM    235  CD2 TYR d   1       5.790  12.730  -6.134  0.00  0.00    -0.074 A 
ATOM    236 8H10 TYR d   1       7.464  13.968  -5.632  0.00  0.00     0.087 H 
ATOM    237 6H10 TYR d   1       6.266  11.825  -5.773  0.00  0.00     0.084 H 
BRANCH 232 238
ATOM    238  OH  TYR d   1       6.536  16.283  -6.430  0.00  0.00    -0.361 OA
ATOM    239 9H10 TYR d   1       5.990  16.975  -6.784  0.00  0.00     0.217 HD
ENDBRANCH 232 238
ENDBRANCH 225 228
ENDBRANCH 162 225
ENDBRANCH 160 162
ENDBRANCH 156 158
BRANCH 156 240
ATOM    240  CB  ASP d   1       0.972   7.270  -9.022  0.00  0.00     0.043 C 
ATOM    241  H99 ASP d   1       0.574   7.993  -8.294  0.00  0.00     0.052 H 
ATOM    242 0H10 ASP d   1       0.540   6.277  -8.827  0.00  0.00     0.052 H 
BRANCH 240 243
ATOM    243  CG  ASP d   1       0.571   7.711 -10.416  0.00  0.00     0.175 C 
ATOM    244  OD1 ASP d   1       0.445   8.934 -10.639  0.00  0.00    -0.648 OA
ATOM    245  OD2 ASP d   1       0.380   6.834 -11.284  0.00  0.00    -0.648 OA
ENDBRANCH 240 243
ENDBRANCH 156 240
ENDBRANCH 154 156
ENDBRANCH 150 152
BRANCH 150 246
ATOM    246  CB  ALA d   1       3.936   4.392  -5.675  0.00  0.00    -0.049 C 
ATOM    247  H94 ALA d   1       4.530   3.822  -6.404  0.00  0.00     0.030 H 
ATOM    248  H95 ALA d   1       2.865   4.260  -5.891  0.00  0.00     0.030 H 
ATOM    249  H96 ALA d   1       4.153   4.028  -4.660  0.00  0.00     0.030 H 
ENDBRANCH 150 246
ENDBRANCH 148 150
ENDBRANCH 144 146
BRANCH 144 250
ATOM    250  CB  ALA d   1       3.242   8.181  -2.172  0.00  0.00    -0.049 C 
ATOM    251  H89 ALA d   1       4.306   8.400  -1.998  0.00  0.00     0.030 H 
ATOM    252  H90 ALA d   1       3.068   7.100  -2.067  0.00  0.00     0.030 H 
ATOM    253  H91 ALA d   1       2.631   8.725  -1.436  0.00  0.00     0.030 H 
ENDBRANCH 144 250
ENDBRANCH 142 144
ENDBRANCH 138 140
BRANCH 138 254
ATOM    254  CB  GLU d   1      -1.471   9.413  -4.468  0.00  0.00    -0.029 C 
ATOM    255  H83 GLU d   1      -1.208  10.373  -4.937  0.00  0.00     0.037 H 
ATOM    256  H84 GLU d   1      -1.243   9.455  -3.393  0.00  0.00     0.037 H 
BRANCH 254 257
ATOM    257  CG  GLU d   1      -2.965   9.192  -4.633  0.00  0.00     0.018 C 
ATOM    258  H85 GLU d   1      -3.499  10.038  -4.176  0.00  0.00     0.049 H 
ATOM    259  H86 GLU d   1      -3.243   8.261  -4.116  0.00  0.00     0.049 H 
BRANCH 257 260
ATOM    260  CD  GLU d   1      -3.380   9.083  -6.087  0.00  0.00     0.172 C 
ATOM    261  OE1 GLU d   1      -3.595  10.136  -6.724  0.00  0.00    -0.648 OA
ATOM    262  OE2 GLU d   1      -3.489   7.945  -6.590  0.00  0.00    -0.648 OA
ENDBRANCH 257 260
ENDBRANCH 254 257
ENDBRANCH 138 254
ENDBRANCH 136 138
ENDBRANCH   1 134
BRANCH   1 263
ATOM    263  CB  LEU d   1      -2.172   4.266  -4.454  0.00  0.00    -0.035 C 
ATOM    264  H72 LEU d   1      -2.359   4.414  -5.528  0.00  0.00     0.037 H 
ATOM    265  H73 LEU d   1      -2.808   4.951  -3.874  0.00  0.00     0.037 H 
BRANCH 263 266
ATOM    266  CG  LEU d   1      -2.572   2.832  -4.097  0.00  0.00    -0.059 C 
ATOM    267  H74 LEU d   1      -2.322   2.655  -3.041  0.00  0.00     0.038 H 
BRANCH 266 268
ATOM    268  CD1 LEU d   1      -4.069   2.637  -4.276  0.00  0.00    -0.073 C 
ATOM    269  H75 LEU d   1      -4.338   1.603  -4.015  0.00  0.00     0.028 H 
ATOM    270  H76 LEU d   1      -4.342   2.834  -5.323  0.00  0.00     0.028 H 
ATOM    271  H77 LEU d   1      -4.611   3.333  -3.619  0.00  0.00     0.028 H 
ENDBRANCH 266 268
BRANCH 266 272
ATOM    272  CD2 LEU d   1      -1.801   1.831  -4.948  0.00  0.00    -0.073 C 
ATOM    273  H78 LEU d   1      -0.721   1.985  -4.807  0.00  0.00     0.028 H 
ATOM    274  H79 LEU d   1      -2.057   1.977  -6.008  0.00  0.00     0.028 H 
ATOM    275  H80 LEU d   1      -2.068   0.808  -4.643  0.00  0.00     0.028 H 
ENDBRANCH 266 272
ENDBRANCH 263 266
ENDBRANCH   1 263
TORSDOF 82
