REMARK  5 active torsions:
REMARK  status: ('A' for Active; 'I' for Inactive)
REMARK    1  A    between atoms: N1_1  and  C3_3 
REMARK    2  A    between atoms: C3_3  and  C7_6 
REMARK    3  A    between atoms: N9_8  and  C14_12 
REMARK    4  A    between atoms: N11_9  and  C16_13 
REMARK    5  A    between atoms: C16_13  and  C25_18 
ROOT
ATOM      1  C25 778 d   1      20.051 132.206  -0.740  0.00  0.00    -0.040 A 
ATOM      2  C28 778 d   1      20.616 132.593  -1.977  0.00  0.00    -0.074 A 
ATOM      3  C29 778 d   1      18.737 131.718  -0.735  0.00  0.00    -0.074 A 
ATOM      4  C32 778 d   1      19.881 132.484  -3.180  0.00  0.00    -0.062 A 
ATOM      5  C33 778 d   1      18.008 131.610  -1.924  0.00  0.00    -0.062 A 
ATOM      6  C34 778 d   1      18.587 131.995  -3.156  0.00  0.00     0.044 A 
ATOM      7  C35 778 d   1      17.895 131.879  -4.284  0.00  0.00     0.099 C 
ATOM      8  N36 778 d   1      17.286 131.773  -5.280  0.00  0.00    -0.191 NA
ATOM      9  H17 778 d   1      21.628 132.979  -2.003  0.00  0.00     0.084 H 
ATOM     10  H18 778 d   1      18.280 131.421   0.202  0.00  0.00     0.084 H 
ATOM     11  H20 778 d   1      20.331 132.783  -4.120  0.00  0.00     0.085 H 
ATOM     12  H21 778 d   1      16.993 131.229  -1.901  0.00  0.00     0.085 H 
ENDROOT
BRANCH   1  13
ATOM     13  C16 778 d   1      20.865 132.320   0.557  0.00  0.00     0.024 C 
ATOM     14  H11 778 d   1      21.225 131.316   0.828  0.00  0.00     0.072 H 
ATOM     15  H12 778 d   1      21.725 132.979   0.368  0.00  0.00     0.072 H 
BRANCH  13  16
ATOM     16  N11 778 d   1      20.102 132.867   1.704  0.00  0.00    -0.338 N 
ATOM     17  C7  778 d   1      19.595 134.126   1.857  0.00  0.00     0.056 A 
ATOM     18  C12 778 d   1      18.961 134.245   3.040  0.00  0.00     0.027 A 
ATOM     19  N18 778 d   1      19.096 132.955   3.655  0.00  0.00    -0.254 NA
ATOM     20  H10 778 d   1      18.458 135.124   3.440  0.00  0.00     0.117 H 
ATOM     21  C17 778 d   1      19.810 132.153   2.774  0.00  0.00     0.066 A 
ATOM     22  H13 778 d   1      20.082 131.112   2.939  0.00  0.00     0.143 H 
BRANCH  17  23
ATOM     23  C3  778 d   1      19.752 135.207   0.790  0.00  0.00     0.123 C 
ATOM     24  H4  778 d   1      19.861 136.190   1.272  0.00  0.00     0.085 H 
ATOM     25  H5  778 d   1      20.643 134.998   0.179  0.00  0.00     0.085 H 
BRANCH  23  26
ATOM     26  N1  778 d   1      18.561 135.205  -0.060  0.00  0.00    -0.056 N 
ATOM     27  C2  778 d   1      17.265 135.644   0.465  0.00  0.00     0.099 C 
ATOM     28  C5  778 d   1      16.328 135.043  -0.596  0.00  0.00     0.025 C 
ATOM     29  H2  778 d   1      17.190 136.741   0.501  0.00  0.00     0.078 H 
ATOM     30  H3  778 d   1      17.068 135.230   1.465  0.00  0.00     0.078 H 
ATOM     31  N9  778 d   1      16.593 135.244  -2.023  0.00  0.00    -0.315 N 
ATOM     32  H8  778 d   1      15.326 135.454  -0.401  0.00  0.00     0.067 H 
ATOM     33  H9  778 d   1      16.318 133.956  -0.428  0.00  0.00     0.067 H 
ATOM     34  C8  778 d   1      17.872 135.664  -2.402  0.00  0.00     0.250 C 
ATOM     35  C4  778 d   1      18.950 135.892  -1.299  0.00  0.00     0.157 C 
ATOM     36  O13 778 d   1      18.154 135.847  -3.571  0.00  0.00    -0.271 OA
ATOM     37  H6  778 d   1      19.915 135.495  -1.647  0.00  0.00     0.090 H 
ATOM     38  H7  778 d   1      19.046 136.970  -1.102  0.00  0.00     0.090 H 
ATOM     39  H1  778 d   1      18.409 134.238  -0.300  0.00  0.00     0.280 HD
BRANCH  31  40
ATOM     40  C14 778 d   1      15.565 135.004  -2.907  0.00  0.00     0.038 A 
ATOM     41  C20 778 d   1      15.030 133.727  -2.832  0.00  0.00    -0.036 A 
ATOM     42  C26 778 d   1      13.977 133.325  -3.654  0.00  0.00     0.036 A 
ATOM     43  H14 778 d   1      15.440 133.023  -2.117  0.00  0.00     0.089 H 
ATOM     44  C30 778 d   1      13.440 134.232  -4.591  0.00  0.00    -0.062 A 
ATOM     45 CL31 778 d   1      13.384 131.716  -3.463  0.00  0.00    -0.084 Cl
ATOM     46  C27 778 d   1      13.967 135.545  -4.693  0.00  0.00    -0.079 A 
ATOM     47  H19 778 d   1      12.623 133.925  -5.234  0.00  0.00     0.086 H 
ATOM     48  C21 778 d   1      15.030 135.947  -3.852  0.00  0.00    -0.057 A 
ATOM     49  H16 778 d   1      13.555 136.240  -5.416  0.00  0.00     0.083 H 
ATOM     50  H15 778 d   1      15.435 136.950  -3.918  0.00  0.00     0.086 H 
ENDBRANCH  31  40
ENDBRANCH  23  26
ENDBRANCH  17  23
ENDBRANCH  13  16
ENDBRANCH   1  13
TORSDOF 5
