REMARK  5 active torsions:
REMARK  status: ('A' for Active; 'I' for Inactive)
REMARK    1  A    between atoms: N1_1  and  C3_3 
REMARK    2  A    between atoms: C3_3  and  C7_6 
REMARK    3  A    between atoms: N9_8  and  C14_12 
REMARK    4  A    between atoms: N11_9  and  C16_13 
REMARK    5  A    between atoms: C16_13  and  C25_18 
ROOT
ATOM      1  C25 778 d   1      30.100  93.540  64.214  0.00  0.00    -0.040 A 
ATOM      2  C28 778 d   1      30.949  93.693  63.061  0.00  0.00    -0.074 A 
ATOM      3  C29 778 d   1      30.726  93.323  65.490  0.00  0.00    -0.074 A 
ATOM      4  C32 778 d   1      32.379  93.632  63.181  0.00  0.00    -0.062 A 
ATOM      5  C33 778 d   1      32.144  93.262  65.614  0.00  0.00    -0.062 A 
ATOM      6  C34 778 d   1      32.974  93.418  64.447  0.00  0.00     0.044 A 
ATOM      7  C35 778 d   1      34.282  93.364  64.553  0.00  0.00     0.099 C 
ATOM      8  N36 778 d   1      35.441  93.315  64.646  0.00  0.00    -0.191 NA
ATOM      9  H17 778 d   1      30.502  93.857  62.087  0.00  0.00     0.084 H 
ATOM     10  H18 778 d   1      30.108  93.204  66.373  0.00  0.00     0.084 H 
ATOM     11  H20 778 d   1      33.002  93.750  62.302  0.00  0.00     0.085 H 
ATOM     12  H21 778 d   1      32.597  93.099  66.585  0.00  0.00     0.085 H 
ENDROOT
BRANCH   1  13
ATOM     13  C16 778 d   1      28.553  93.601  64.068  0.00  0.00     0.024 C 
ATOM     14  H11 778 d   1      28.204  94.568  64.460  0.00  0.00     0.072 H 
ATOM     15  H12 778 d   1      28.301  93.526  63.000  0.00  0.00     0.072 H 
BRANCH  13  16
ATOM     16  N11 778 d   1      27.836  92.500  64.806  0.00  0.00    -0.338 N 
ATOM     17  C7  778 d   1      27.794  91.147  64.507  0.00  0.00     0.056 A 
ATOM     18  C12 778 d   1      27.046  90.484  65.415  0.00  0.00     0.027 A 
ATOM     19  N18 778 d   1      26.588  91.504  66.344  0.00  0.00    -0.254 NA
ATOM     20  H10 778 d   1      26.832  89.417  65.445  0.00  0.00     0.117 H 
ATOM     21  C17 778 d   1      27.111  92.720  65.909  0.00  0.00     0.066 A 
ATOM     22  H13 778 d   1      26.956  93.686  66.386  0.00  0.00     0.143 H 
BRANCH  17  23
ATOM     23  C3  778 d   1      28.515  90.541  63.300  0.00  0.00     0.123 C 
ATOM     24  H4  778 d   1      28.017  89.597  63.031  0.00  0.00     0.085 H 
ATOM     25  H5  778 d   1      28.444  91.246  62.458  0.00  0.00     0.085 H 
BRANCH  23  26
ATOM     26  N1  778 d   1      29.929  90.266  63.561  0.00  0.00    -0.056 N 
ATOM     27  C2  778 d   1      30.322  89.328  64.629  0.00  0.00     0.099 C 
ATOM     28  C5  778 d   1      31.842  89.579  64.720  0.00  0.00     0.025 C 
ATOM     29  H2  778 d   1      30.103  88.287  64.349  0.00  0.00     0.078 H 
ATOM     30  H3  778 d   1      29.819  89.566  65.578  0.00  0.00     0.078 H 
ATOM     31  N9  778 d   1      32.680  89.425  63.525  0.00  0.00    -0.315 N 
ATOM     32  H8  778 d   1      32.235  88.883  65.476  0.00  0.00     0.067 H 
ATOM     33  H9  778 d   1      31.974  90.614  65.070  0.00  0.00     0.067 H 
ATOM     34  C8  778 d   1      32.022  89.618  62.262  0.00  0.00     0.250 C 
ATOM     35  C4  778 d   1      30.476  89.942  62.228  0.00  0.00     0.157 C 
ATOM     36  O13 778 d   1      32.612  89.469  61.198  0.00  0.00    -0.271 OA
ATOM     37  H6  778 d   1      30.312  90.802  61.562  0.00  0.00     0.090 H 
ATOM     38  H7  778 d   1      29.942  89.065  61.833  0.00  0.00     0.090 H 
ATOM     39  H1  778 d   1      30.335  91.144  63.845  0.00  0.00     0.280 HD
BRANCH  31  40
ATOM     40  C14 778 d   1      34.068  89.179  63.716  0.00  0.00     0.038 A 
ATOM     41  C20 778 d   1      34.700  88.207  62.864  0.00  0.00    -0.036 A 
ATOM     42  C26 778 d   1      36.085  87.899  62.994  0.00  0.00     0.036 A 
ATOM     43  H14 778 d   1      34.111  87.699  62.109  0.00  0.00     0.089 H 
ATOM     44  C30 778 d   1      36.870  88.563  63.989  0.00  0.00    -0.062 A 
ATOM     45 CL31 778 d   1      36.775  86.732  61.950  0.00  0.00    -0.084 Cl
ATOM     46  C27 778 d   1      36.272  89.533  64.848  0.00  0.00    -0.079 A 
ATOM     47  H19 778 d   1      37.923  88.328  64.091  0.00  0.00     0.086 H 
ATOM     48  C21 778 d   1      34.879  89.847  64.721  0.00  0.00    -0.057 A 
ATOM     49  H16 778 d   1      36.873  90.034  65.599  0.00  0.00     0.083 H 
ATOM     50  H15 778 d   1      34.429  90.584  65.376  0.00  0.00     0.086 H 
ENDBRANCH  31  40
ENDBRANCH  23  26
ENDBRANCH  17  23
ENDBRANCH  13  16
ENDBRANCH   1  13
TORSDOF 5
