REMARK  4 active torsions:
REMARK  status: ('A' for Active; 'I' for Inactive)
REMARK    1  A    between atoms: C01_1  and  C02_2 
REMARK    2  A    between atoms: C02_2  and  C03_3 
REMARK    3  A    between atoms: C02_2  and  NP3_6 
REMARK    4  A    between atoms: C03_3  and  N14_7 
ROOT
ATOM      1  C03 QUS d   1      34.552  14.898  38.365  0.00  0.00     0.049 C 
ATOM      2  H2  QUS d   1      35.126  14.093  38.847  0.00  0.00     0.064 H 
ATOM      3  H3  QUS d   1      34.646  15.821  38.956  0.00  0.00     0.064 H 
ENDROOT
BRANCH   1   4
ATOM      4  C02 QUS d   1      33.068  14.489  38.309  0.00  0.00     0.196 C 
ATOM      5  H1  QUS d   1      32.893  13.967  37.357  0.00  0.00     0.103 H 
BRANCH   4   6
ATOM      6  C01 QUS d   1      32.810  13.536  39.497  0.00  0.00     0.205 C 
ATOM      7  O16 QUS d   1      31.879  13.786  40.288  0.00  0.00    -0.646 OA
ATOM      8  O17 QUS d   1      33.567  12.524  39.613  0.00  0.00    -0.646 OA
ENDBRANCH   4   6
BRANCH   4   9
ATOM      9  NP3 QUS d   1      32.057  15.595  38.435  0.00  0.00    -0.064 N 
ATOM     10  H4  QUS d   1      31.128  15.208  38.384  0.00  0.00     0.275 HD
ATOM     11  H5  QUS d   1      32.187  16.256  37.685  0.00  0.00     0.275 HD
ATOM     12  H6  QUS d   1      32.179  16.062  39.320  0.00  0.00     0.275 HD
ENDBRANCH   4   9
ENDBRANCH   1   4
BRANCH   1  13
ATOM     13  N14 QUS d   1      35.099  15.135  37.018  0.00  0.00    -0.097 NA
ATOM     14  C04 QUS d   1      35.034  14.241  35.965  0.00  0.00     0.329 A 
ATOM     15  N15 QUS d   1      34.638  14.936  34.877  0.00  0.00    -0.256 N 
ATOM     16  O18 QUS d   1      35.295  13.069  36.077  0.00  0.00    -0.251 OA
ATOM     17  C05 QUS d   1      34.440  16.233  35.159  0.00  0.00     0.386 A 
ATOM     18  H7  QUS d   1      34.508  14.533  33.971  0.00  0.00     0.175 HD
ATOM     19  O19 QUS d   1      34.089  17.152  34.446  0.00  0.00    -0.236 OA
ATOM     20  O20 QUS d   1      34.711  16.418  36.492  0.00  0.00    -0.197 OA
ENDBRANCH   1  13
TORSDOF 4
