REMARK  8 active torsions:
REMARK  status: ('A' for Active; 'I' for Inactive)
REMARK    1  A    between atoms: C2A_15  and  CM2_1 
REMARK    2  A    between atoms: C4A_13  and  N4A_2 
REMARK    3  A    between atoms: C4_10  and  CM4_3 
REMARK    4  A    between atoms: C7_5  and  O1_4 
REMARK    5  A    between atoms: C6_6  and  C7_5 
REMARK    6  A    between atoms: C5_9  and  C6_6 
REMARK    7  A    between atoms: C7A_12  and  N3_11 
REMARK    8  A    between atoms: C5A_18  and  C7A_12 
ROOT
ATOM      1  C2  VIB d   1      17.044  46.203   6.529  0.00  0.00     0.018 A 
ATOM      2  S1  VIB d   1      18.685  46.075   6.115  0.00  0.00    -0.087 SA
ATOM      3  C5  VIB d   1      18.124  46.115   4.553  0.00  0.00     0.008 A 
ATOM      4  C4  VIB d   1      16.781  46.228   4.375  0.00  0.00     0.021 A 
ATOM      5  N3  VIB d   1      16.174  46.273   5.545  0.00  0.00    -0.349 N 
ATOM      6  H14 VIB d   1      16.724  46.226   7.570  0.00  0.00     0.123 H 
ENDROOT
BRANCH   5   7
ATOM      7  C7A VIB d   1      14.856  46.342   5.747  0.00  0.00     0.028 C 
ATOM      8  H15 VIB d   1      14.486  47.202   5.170  0.00  0.00     0.072 H 
ATOM      9  H16 VIB d   1      14.704  46.528   6.820  0.00  0.00     0.072 H 
BRANCH   7  10
ATOM     10  C5A VIB d   1      14.073  45.264   5.410  0.00  0.00     0.023 C 
ATOM     11  C4A VIB d   1      14.062  44.114   6.135  0.00  0.00     0.132 C 
ATOM     12  N3A VIB d   1      13.282  43.095   5.796  0.00  0.00    -0.216 NA
ATOM     13  C2A VIB d   1      12.596  43.093   4.547  0.00  0.00     0.124 C 
ATOM     14  N1A VIB d   1      12.543  44.372   3.858  0.00  0.00    -0.245 NA
ATOM     15  C6A VIB d   1      13.340  45.360   4.273  0.00  0.00     0.015 C 
ATOM     16  H17 VIB d   1      13.403  46.267   3.683  0.00  0.00     0.116 H 
BRANCH  11  17
ATOM     17  N4A VIB d   1      14.765  43.937   7.266  0.00  0.00    -0.383 N 
ATOM     18  H4  VIB d   1      15.396  44.679   7.602  0.00  0.00     0.157 HD
ATOM     19  H5  VIB d   1      14.673  43.059   7.797  0.00  0.00     0.157 HD
ENDBRANCH  11  17
BRANCH  13  20
ATOM     20  CM2 VIB d   1      11.651  41.944   4.241  0.00  0.00    -0.019 C 
ATOM     21  H1  VIB d   1      11.890  41.090   4.891  0.00  0.00     0.037 H 
ATOM     22  H2  VIB d   1      11.764  41.647   3.188  0.00  0.00     0.037 H 
ATOM     23  H3  VIB d   1      10.614  42.264   4.422  0.00  0.00     0.037 H 
ENDBRANCH  13  20
ENDBRANCH   7  10
ENDBRANCH   5   7
BRANCH   4  24
ATOM     24  CM4 VIB d   1      16.056  46.270   3.044  0.00  0.00    -0.036 C 
ATOM     25  H6  VIB d   1      16.789  46.218   2.225  0.00  0.00     0.035 H 
ATOM     26  H7  VIB d   1      15.486  47.207   2.967  0.00  0.00     0.035 H 
ATOM     27  H8  VIB d   1      15.368  45.415   2.974  0.00  0.00     0.035 H 
ENDBRANCH   4  24
BRANCH   3  28
ATOM     28  C6  VIB d   1      19.185  46.063   3.472  0.00  0.00    -0.013 C 
ATOM     29  H12 VIB d   1      18.903  46.728   2.643  0.00  0.00     0.044 H 
ATOM     30  H13 VIB d   1      20.153  46.383   3.886  0.00  0.00     0.044 H 
BRANCH  28  31
ATOM     31  C7  VIB d   1      19.288  44.642   2.973  0.00  0.00     0.021 C 
ATOM     32  H10 VIB d   1      20.143  44.127   3.436  0.00  0.00     0.074 H 
ATOM     33  H11 VIB d   1      18.364  44.085   3.189  0.00  0.00     0.074 H 
BRANCH  31  34
ATOM     34  O1  VIB d   1      19.478  44.775   1.579  0.00  0.00    -0.401 OA
ATOM     35  H9  VIB d   1      19.553  43.913   1.187  0.00  0.00     0.209 HD
ENDBRANCH  31  34
ENDBRANCH  28  31
ENDBRANCH   3  28
TORSDOF 8
