REMARK  26 active torsions:
REMARK  status: ('A' for Active; 'I' for Inactive)
REMARK    1  A    between atoms: CA_6  and  CB_9 
REMARK    2  A    between atoms: CB_9  and  CG_10 
REMARK    3  A    between atoms: CG_10  and  CD_11 
REMARK    4  A    between atoms: CD_11  and  NE_12 
REMARK       I    between atoms: NE_12  and  CZ_13 
REMARK       I    between atoms: CZ_13  and  NH1_14 
REMARK    5  A    between atoms: CA_23  and  CB_26 
REMARK    6  A    between atoms: CB_26  and  OG1_27 
REMARK    7  A    between atoms: CB_26  and  CG2_28 
REMARK    8  A    between atoms: CA_30  and  CB_33 
REMARK    9  A    between atoms: CB_33  and  CG_34 
REMARK   10  A    between atoms: CG_34  and  CD_35 
REMARK   11  A    between atoms: CD_35  and  CE_36 
REMARK   12  A    between atoms: CE_36  and  NZ_37 
REMARK   13  A    between atoms: CA_39  and  CB_42 
REMARK   14  A    between atoms: CB_42  and  OG_43 
REMARK   15  A    between atoms: CA_45  and  CB_48 
REMARK   16  A    between atoms: CB_48  and  CG1_49 
REMARK   17  A    between atoms: CB_48  and  CG2_50 
REMARK   18  A    between atoms: CG1_49  and  CD1_51 
REMARK   19  A    between atoms: CA_67  and  CB_70 
REMARK   20  A    between atoms: CB_70  and  CG1_71 
REMARK   21  A    between atoms: CB_70  and  CG2_72 
REMARK   22  A    between atoms: CG1_71  and  CD1_73 
REMARK   23  A    between atoms: CA_81  and  CB_84 
REMARK   24  A    between atoms: CB_84  and  CG_85 
REMARK   25  A    between atoms: CA_99  and  CB_102 
REMARK   26  A    between atoms: CB_102  and  CG_103 
ROOT
ATOM      1  N   GLY d   1       5.359  45.388  12.182  0.00  0.00    -0.351 N 
ATOM      2  CA  GLY d   1       5.171  43.958  11.973  0.00  0.00     0.069 C 
ATOM      3  C   GLY d   1       6.420  43.237  11.475  0.00  0.00     0.236 C 
ATOM      4  O   GLY d   1       6.350  42.036  11.199  0.00  0.00    -0.272 OA
ATOM      5  H1  GLY d   1       5.755  45.715  13.040  0.00  0.00     0.163 HD
ATOM      6  H2  GLY d   1       4.371  43.819  11.231  0.00  0.00     0.078 H 
ATOM      7  H3  GLY d   1       4.867  43.505  12.928  0.00  0.00     0.078 H 
ATOM      8  N   ARG d   1       7.537  43.942  11.323  0.00  0.00    -0.346 N 
ATOM      9  CA  ARG d   1       8.772  43.263  10.927  0.00  0.00     0.089 C 
ATOM     10  C   ARG d   1       9.297  42.493  12.154  0.00  0.00     0.241 C 
ATOM     11  O   ARG d   1       9.186  43.012  13.252  0.00  0.00    -0.271 OA
ATOM     12  H4  ARG d   1       7.534  44.930  11.478  0.00  0.00     0.163 HD
ATOM     13  H5  ARG d   1       8.562  42.577  10.093  0.00  0.00     0.087 H 
ATOM     14  N   CYS d   1       9.851  41.309  11.891  0.00  0.00    -0.345 N 
ATOM     15  CA  CYS d   1      10.466  40.549  12.980  0.00  0.00     0.098 C 
ATOM     16  C   CYS d   1      11.719  39.853  12.418  0.00  0.00     0.242 C 
ATOM     17  O   CYS d   1      11.725  39.398  11.268  0.00  0.00    -0.271 OA
ATOM     18  CB  CYS d   1       9.592  39.473  13.609  0.00  0.00     0.013 C 
ATOM     19  SG  CYS d   1       8.098  39.899  14.517  0.00  0.00    -0.095 SA
ATOM     20  N   CYS d   1      10.976  42.055  17.292  0.00  0.00    -0.345 N 
ATOM     21  CA  CYS d   1       9.976  42.635  16.392  0.00  0.00     0.098 C 
ATOM     22  C   CYS d   1       9.677  44.086  16.644  0.00  0.00     0.242 C 
ATOM     23  O   CYS d   1      10.321  44.765  17.459  0.00  0.00    -0.271 OA
ATOM     24  CB  CYS d   1       8.665  41.957  16.578  0.00  0.00     0.013 C 
ATOM     25  SG  CYS d   1       8.611  40.187  16.481  0.00  0.00    -0.095 SA
ATOM     26  H17 CYS d   1       9.846  40.944  10.960  0.00  0.00     0.163 HD
ATOM     27  H18 CYS d   1      10.757  41.258  13.769  0.00  0.00     0.088 H 
ATOM     28  H19 CYS d   1      10.235  38.919  14.309  0.00  0.00     0.053 H 
ATOM     29  H20 CYS d   1       9.280  38.807  12.791  0.00  0.00     0.053 H 
ATOM     30  H82 CYS d   1      10.879  42.141  18.284  0.00  0.00     0.163 HD
ATOM     31  H83 CYS d   1      10.328  42.508  15.358  0.00  0.00     0.088 H 
ATOM     32  H84 CYS d   1       7.985  42.346  15.806  0.00  0.00     0.053 H 
ATOM     33  H85 CYS d   1       8.290  42.240  17.573  0.00  0.00     0.053 H 
ATOM     34  N   THR d   1      12.748  39.776  13.284  0.00  0.00    -0.344 N 
ATOM     35  CA  THR d   1      13.952  38.996  12.962  0.00  0.00     0.113 C 
ATOM     36  C   THR d   1      13.532  37.533  13.109  0.00  0.00     0.243 C 
ATOM     37  O   THR d   1      12.525  37.226  13.763  0.00  0.00    -0.271 OA
ATOM     38  H21 THR d   1      12.692  40.257  14.159  0.00  0.00     0.163 HD
ATOM     39  H22 THR d   1      14.290  39.219  11.939  0.00  0.00     0.091 H 
ATOM     40  N   LYS d   1      14.317  36.560  12.606  0.00  0.00    -0.346 N 
ATOM     41  CA  LYS d   1      13.851  35.172  12.665  0.00  0.00     0.089 C 
ATOM     42  C   LYS d   1      14.562  34.364  13.750  0.00  0.00     0.241 C 
ATOM     43  O   LYS d   1      15.016  33.253  13.481  0.00  0.00    -0.271 OA
ATOM     44  H28 LYS d   1      15.203  36.782  12.199  0.00  0.00     0.163 HD
ATOM     45  H29 LYS d   1      12.787  35.196  12.942  0.00  0.00     0.087 H 
ATOM     46  N   SER d   1      14.938  34.996  14.860  0.00  0.00    -0.344 N 
ATOM     47  CA  SER d   1      15.654  34.295  15.925  0.00  0.00     0.109 C 
ATOM     48  C   SER d   1      14.665  33.676  16.895  0.00  0.00     0.243 C 
ATOM     49  O   SER d   1      13.474  34.007  16.783  0.00  0.00    -0.271 OA
ATOM     50  H41 SER d   1      14.727  35.968  14.967  0.00  0.00     0.163 HD
ATOM     51  H42 SER d   1      16.305  33.515  15.504  0.00  0.00     0.090 H 
ATOM     52  N   ILE d   1      15.117  32.891  17.870  0.00  0.00    -0.346 N 
ATOM     53  CA  ILE d   1      14.183  32.496  18.964  0.00  0.00     0.092 C 
ATOM     54  C   ILE d   1      14.692  33.203  20.213  0.00  0.00     0.243 C 
ATOM     55  O   ILE d   1      15.827  32.896  20.619  0.00  0.00    -0.271 OA
ATOM     56  N   ILE d   1      12.869  39.310  17.407  0.00  0.00    -0.346 N 
ATOM     57  CA  ILE d   1      12.981  40.714  17.752  0.00  0.00     0.092 C 
ATOM     58  C   ILE d   1      12.022  41.408  16.765  0.00  0.00     0.241 C 
ATOM     59  O   ILE d   1      12.254  41.297  15.558  0.00  0.00    -0.271 OA
ATOM     60  H46 ILE d   1      16.065  32.572  17.869  0.00  0.00     0.163 HD
ATOM     61  H47 ILE d   1      13.157  32.816  18.730  0.00  0.00     0.088 H 
ATOM     62  H71 ILE d   1      13.336  38.979  16.587  0.00  0.00     0.163 HD
ATOM     63  H72 ILE d   1      12.634  40.873  18.784  0.00  0.00     0.088 H 
ATOM     64  N   PRO d   1      13.950  34.088  20.882  0.00  0.00    -0.337 N 
ATOM     65  CA  PRO d   1      12.681  34.597  20.386  0.00  0.00     0.092 C 
ATOM     66  C   PRO d   1      12.882  35.726  19.390  0.00  0.00     0.243 C 
ATOM     67  O   PRO d   1      14.002  36.227  19.211  0.00  0.00    -0.271 OA
ATOM     68  CB  PRO d   1      12.058  35.185  21.649  0.00  0.00    -0.036 C 
ATOM     69  CG  PRO d   1      13.223  35.656  22.473  0.00  0.00    -0.048 C 
ATOM     70  CD  PRO d   1      14.417  34.811  22.098  0.00  0.00    -0.001 C 
ATOM     71  N   PRO d   1      11.877  36.019  18.554  0.00  0.00    -0.337 N 
ATOM     72  CA  PRO d   1      12.010  37.061  17.548  0.00  0.00     0.091 C 
ATOM     73  C   PRO d   1      12.176  38.451  18.131  0.00  0.00     0.241 C 
ATOM     74  O   PRO d   1      11.624  38.764  19.202  0.00  0.00    -0.271 OA
ATOM     75  CB  PRO d   1      10.676  37.039  16.802  0.00  0.00    -0.036 C 
ATOM     76  CG  PRO d   1       9.696  36.371  17.702  0.00  0.00    -0.048 C 
ATOM     77  CD  PRO d   1      10.528  35.428  18.568  0.00  0.00    -0.001 C 
ATOM     78  N   PRO d   1       7.149  47.873  15.422  0.00  0.00    -0.337 N 
ATOM     79  CA  PRO d   1       5.768  48.296  15.288  0.00  0.00     0.091 C 
ATOM     80  C   PRO d   1       5.106  48.115  13.945  0.00  0.00     0.241 C 
ATOM     81  O   PRO d   1       3.871  48.046  13.908  0.00  0.00    -0.271 OA
ATOM     82  CB  PRO d   1       5.797  49.759  15.723  0.00  0.00    -0.036 C 
ATOM     83  CG  PRO d   1       7.069  49.936  16.467  0.00  0.00    -0.048 C 
ATOM     84  CD  PRO d   1       8.048  48.972  15.835  0.00  0.00    -0.001 C 
ATOM     85  H57 PRO d   1      12.066  33.798  19.946  0.00  0.00     0.087 H 
ATOM     86  H58 PRO d   1      11.486  34.418  22.191  0.00  0.00     0.036 H 
ATOM     87  H59 PRO d   1      11.396  36.027  21.398  0.00  0.00     0.036 H 
ATOM     88  H60 PRO d   1      12.999  35.535  23.543  0.00  0.00     0.035 H 
ATOM     89  H61 PRO d   1      13.431  36.715  22.259  0.00  0.00     0.035 H 
ATOM     90  H62 PRO d   1      15.291  35.440  21.872  0.00  0.00     0.064 H 
ATOM     91  H63 PRO d   1      14.671  34.106  22.904  0.00  0.00     0.064 H 
ATOM     92  H64 PRO d   1      12.852  36.837  16.877  0.00  0.00     0.087 H 
ATOM     93  H65 PRO d   1      10.775  36.474  15.863  0.00  0.00     0.036 H 
ATOM     94  H66 PRO d   1      10.349  38.065  16.580  0.00  0.00     0.036 H 
ATOM     95  H67 PRO d   1       8.957  35.805  17.116  0.00  0.00     0.035 H 
ATOM     96  H68 PRO d   1       9.178  37.113  18.327  0.00  0.00     0.035 H 
ATOM     97  H69 PRO d   1      10.131  35.387  19.593  0.00  0.00     0.064 H 
ATOM     98  H70 PRO d   1      10.541  34.415  18.139  0.00  0.00     0.064 H 
ATOM     99  H95 PRO d   1       5.167  47.720  16.007  0.00  0.00     0.087 H 
ATOM    100  H96 PRO d   1       4.939  49.982  16.374  0.00  0.00     0.036 H 
ATOM    101  H97 PRO d   1       5.772  50.420  14.844  0.00  0.00     0.036 H 
ATOM    102  H98 PRO d   1       6.928  49.697  17.531  0.00  0.00     0.035 H 
ATOM    103  H99 PRO d   1       7.431  50.970  16.368  0.00  0.00     0.035 H 
ATOM    104 0H10 PRO d   1       8.556  49.423  14.970  0.00  0.00     0.064 H 
ATOM    105 1H10 PRO d   1       8.799  48.627  16.561  0.00  0.00     0.064 H 
ATOM    106  N   PHE d   1       9.223  44.797  15.574  0.00  0.00    -0.346 N 
ATOM    107  CA  PHE d   1       8.959  46.237  15.466  0.00  0.00     0.093 C 
ATOM    108  C   PHE d   1       7.531  46.634  15.237  0.00  0.00     0.243 C 
ATOM    109  O   PHE d   1       6.816  45.700  14.933  0.00  0.00    -0.271 OA
ATOM    110  H86 PHE d   1       9.045  44.264  14.747  0.00  0.00     0.163 HD
ATOM    111  H87 PHE d   1       9.278  46.722  16.400  0.00  0.00     0.088 H 
ATOM    112  N   ASP d   1       5.862  47.938  12.867  0.00  0.00    -0.346 N 
ATOM    113  CA  ASP d   1       5.261  47.739  11.547  0.00  0.00     0.098 C 
ATOM    114  C   ASP d   1       5.008  46.266  11.241  0.00  0.00     0.241 C 
ATOM    115  O   ASP d   1       4.557  45.924  10.139  0.00  0.00    -0.271 OA
ATOM    116 2H10 ASP d   1       6.858  47.941  12.959  0.00  0.00     0.163 HD
ATOM    117 3H10 ASP d   1       4.295  48.265  11.530  0.00  0.00     0.088 H 
ENDROOT
BRANCH   9 118
ATOM    118  CB  ARG d   1       9.881  44.227  10.536  0.00  0.00    -0.036 C 
ATOM    119  H6  ARG d   1      10.833  43.676  10.545  0.00  0.00     0.036 H 
ATOM    120  H7  ARG d   1       9.916  45.031  11.286  0.00  0.00     0.036 H 
BRANCH 118 121
ATOM    121  CG  ARG d   1       9.717  44.867   9.161  0.00  0.00    -0.048 C 
ATOM    122  H8  ARG d   1       8.755  45.399   9.120  0.00  0.00     0.035 H 
ATOM    123  H9  ARG d   1       9.736  44.083   8.390  0.00  0.00     0.035 H 
BRANCH 121 124
ATOM    124  CD  ARG d   1      10.845  45.850   8.905  0.00  0.00     0.009 C 
ATOM    125  H10 ARG d   1      10.509  46.596   8.170  0.00  0.00     0.064 H 
ATOM    126  H11 ARG d   1      11.711  45.304   8.503  0.00  0.00     0.064 H 
BRANCH 124 127
ATOM    127  NE  ARG d   1      11.244  46.537  10.131  0.00  0.00    -0.227 N 
ATOM    128  CZ  ARG d   1      12.130  47.508  10.237  0.00  0.00     0.665 C 
ATOM    129  NH1 ARG d   1      12.730  47.966   9.131  0.00  0.00    -0.235 N 
ATOM    130  NH2 ARG d   1      12.408  48.022  11.420  0.00  0.00    -0.235 N 
ATOM    131  H13 ARG d   1      13.424  48.724   9.198  0.00  0.00     0.174 HD
ATOM    132  H14 ARG d   1      12.497  47.560   8.213  0.00  0.00     0.174 HD
ATOM    133  H15 ARG d   1      11.939  47.660  12.262  0.00  0.00     0.174 HD
ATOM    134  H16 ARG d   1      13.094  48.786  11.501  0.00  0.00     0.174 HD
ATOM    135  H12 ARG d   1      10.786  46.232  11.002  0.00  0.00     0.177 HD
ENDBRANCH 124 127
ENDBRANCH 121 124
ENDBRANCH 118 121
ENDBRANCH   9 118
BRANCH 113 136
ATOM    136  CB  ASP d   1       6.159  48.332  10.460  0.00  0.00     0.043 C 
ATOM    137 4H10 ASP d   1       6.216  49.420  10.611  0.00  0.00     0.052 H 
ATOM    138 5H10 ASP d   1       5.705  48.121   9.480  0.00  0.00     0.052 H 
BRANCH 136 139
ATOM    139  CG  ASP d   1       7.572  47.771  10.466  0.00  0.00     0.175 C 
ATOM    140  OD1 ASP d   1       7.887  46.805  11.190  0.00  0.00    -0.648 OA
ATOM    141  OD2 ASP d   1       8.375  48.380   9.712  0.00  0.00    -0.648 OA
ENDBRANCH 136 139
ENDBRANCH 113 136
BRANCH  35 142
ATOM    142  CB  THR d   1      15.107  39.234  13.965  0.00  0.00     0.060 C 
ATOM    143  H23 THR d   1      15.999  38.704  13.599  0.00  0.00     0.086 H 
BRANCH 142 144
ATOM    144  OG1 THR d   1      14.682  38.640  15.220  0.00  0.00    -0.393 OA
ATOM    145  H24 THR d   1      14.525  37.712  15.093  0.00  0.00     0.210 HD
ENDBRANCH 142 144
BRANCH 142 146
ATOM    146  CG2 THR d   1      15.489  40.688  14.154  0.00  0.00    -0.050 C 
ATOM    147  H25 THR d   1      16.313  40.759  14.880  0.00  0.00     0.031 H 
ATOM    148  H26 THR d   1      14.621  41.249  14.529  0.00  0.00     0.031 H 
ATOM    149  H27 THR d   1      15.811  41.111  13.191  0.00  0.00     0.031 H 
ENDBRANCH 142 146
ENDBRANCH  35 142
BRANCH  41 150
ATOM    150  CB  LYS d   1      13.938  34.533  11.235  0.00  0.00    -0.038 C 
ATOM    151  H30 LYS d   1      13.781  33.447  11.307  0.00  0.00     0.036 H 
ATOM    152  H31 LYS d   1      14.929  34.733  10.802  0.00  0.00     0.036 H 
BRANCH 150 153
ATOM    153  CG  LYS d   1      12.845  35.156  10.336  0.00  0.00    -0.061 C 
ATOM    154  H32 LYS d   1      12.883  36.249  10.453  0.00  0.00     0.033 H 
ATOM    155  H33 LYS d   1      11.866  34.785  10.675  0.00  0.00     0.033 H 
BRANCH 153 156
ATOM    156  CD  LYS d   1      12.995  34.827   8.854  0.00  0.00    -0.043 C 
ATOM    157  H34 LYS d   1      12.924  33.737   8.722  0.00  0.00     0.035 H 
ATOM    158  H35 LYS d   1      13.980  35.175   8.510  0.00  0.00     0.035 H 
BRANCH 156 159
ATOM    159  CE  LYS d   1      11.900  35.506   8.002  0.00  0.00     0.080 C 
ATOM    160  H36 LYS d   1      12.012  36.597   8.086  0.00  0.00     0.075 H 
ATOM    161  H37 LYS d   1      10.915  35.208   8.390  0.00  0.00     0.075 H 
BRANCH 159 162
ATOM    162  NZ  LYS d   1      11.984  35.121   6.545  0.00  0.00    -0.079 N 
ATOM    163  H38 LYS d   1      11.252  35.587   6.032  0.00  0.00     0.274 HD
ATOM    164  H39 LYS d   1      11.875  34.123   6.454  0.00  0.00     0.274 HD
ATOM    165  H40 LYS d   1      12.881  35.396   6.176  0.00  0.00     0.274 HD
ENDBRANCH 159 162
ENDBRANCH 156 159
ENDBRANCH 153 156
ENDBRANCH 150 153
ENDBRANCH  41 150
BRANCH  57 166
ATOM    166  CB  ILE d   1      14.411  41.240  17.648  0.00  0.00    -0.030 C 
ATOM    167  H73 ILE d   1      14.776  41.141  16.615  0.00  0.00     0.043 H 
BRANCH 166 168
ATOM    168  CG1 ILE d   1      15.312  40.437  18.593  0.00  0.00    -0.063 C 
ATOM    169  H74 ILE d   1      14.919  39.410  18.622  0.00  0.00     0.033 H 
ATOM    170  H75 ILE d   1      15.223  40.892  19.591  0.00  0.00     0.033 H 
BRANCH 168 171
ATOM    171  CD1 ILE d   1      16.780  40.343  18.276  0.00  0.00    -0.076 C 
ATOM    172  H79 ILE d   1      17.283  39.737  19.044  0.00  0.00     0.027 H 
ATOM    173  H80 ILE d   1      17.217  41.352  18.261  0.00  0.00     0.027 H 
ATOM    174  H81 ILE d   1      16.913  39.871  17.291  0.00  0.00     0.027 H 
ENDBRANCH 168 171
ENDBRANCH 166 168
BRANCH 166 175
ATOM    175  CG2 ILE d   1      14.403  42.717  18.060  0.00  0.00    -0.071 C 
ATOM    176  H76 ILE d   1      13.754  43.285  17.377  0.00  0.00     0.028 H 
ATOM    177  H77 ILE d   1      15.427  43.117  18.011  0.00  0.00     0.028 H 
ATOM    178  H78 ILE d   1      14.022  42.809  19.088  0.00  0.00     0.028 H 
ENDBRANCH 166 175
ENDBRANCH  57 166
BRANCH 107 179
ATOM    179  CB  PHE d   1       9.884  46.681  14.321  0.00  0.00    -0.014 C 
ATOM    180  H88 PHE d   1       9.821  47.776  14.239  0.00  0.00     0.043 H 
ATOM    181  H89 PHE d   1       9.517  46.222  13.391  0.00  0.00     0.043 H 
BRANCH 179 182
ATOM    182  CG  PHE d   1      11.324  46.313  14.479  0.00  0.00    -0.056 A 
ATOM    183  CD1 PHE d   1      12.196  47.085  15.145  0.00  0.00    -0.077 A 
ATOM    184  CE1 PHE d   1      13.493  46.885  15.402  0.00  0.00    -0.082 A 
ATOM    185  H90 PHE d   1      11.787  48.011  15.534  0.00  0.00     0.084 H 
ATOM    186  CZ  PHE d   1      13.998  45.689  14.881  0.00  0.00    -0.083 A 
ATOM    187  H92 PHE d   1      14.099  47.587  15.964  0.00  0.00     0.083 H 
ATOM    188  CE2 PHE d   1      13.235  44.825  14.210  0.00  0.00    -0.082 A 
ATOM    189  H94 PHE d   1      15.046  45.456  15.028  0.00  0.00     0.083 H 
ATOM    190  CD2 PHE d   1      11.900  45.136  14.020  0.00  0.00    -0.077 A 
ATOM    191  H93 PHE d   1      13.650  43.902  13.823  0.00  0.00     0.083 H 
ATOM    192  H91 PHE d   1      11.275  44.428  13.488  0.00  0.00     0.084 H 
ENDBRANCH 179 182
ENDBRANCH 107 179
BRANCH  47 193
ATOM    193  CB  SER d   1      16.496  35.372  16.668  0.00  0.00     0.044 C 
ATOM    194  H43 SER d   1      17.347  35.668  16.037  0.00  0.00     0.077 H 
ATOM    195  H44 SER d   1      16.869  34.953  17.614  0.00  0.00     0.077 H 
BRANCH 193 196
ATOM    196  OG  SER d   1      15.680  36.533  16.947  0.00  0.00    -0.398 OA
ATOM    197  H45 SER d   1      14.945  36.279  17.493  0.00  0.00     0.209 HD
ENDBRANCH 193 196
ENDBRANCH  47 193
BRANCH  53 198
ATOM    198  CB  ILE d   1      14.216  30.968  19.171  0.00  0.00    -0.030 C 
ATOM    199  H48 ILE d   1      15.267  30.646  19.206  0.00  0.00     0.043 H 
BRANCH 198 200
ATOM    200  CG1 ILE d   1      13.535  30.241  18.011  0.00  0.00    -0.063 C 
ATOM    201  H49 ILE d   1      13.895  30.681  17.069  0.00  0.00     0.033 H 
ATOM    202  H50 ILE d   1      12.449  30.395  18.096  0.00  0.00     0.033 H 
BRANCH 200 203
ATOM    203  CD1 ILE d   1      13.803  28.742  17.972  0.00  0.00    -0.076 C 
ATOM    204  H54 ILE d   1      13.280  28.298  17.112  0.00  0.00     0.027 H 
ATOM    205  H55 ILE d   1      13.439  28.280  18.901  0.00  0.00     0.027 H 
ATOM    206  H56 ILE d   1      14.884  28.565  17.874  0.00  0.00     0.027 H 
ENDBRANCH 200 203
ENDBRANCH 198 200
BRANCH 198 207
ATOM    207  CG2 ILE d   1      13.554  30.610  20.514  0.00  0.00    -0.071 C 
ATOM    208  H51 ILE d   1      14.063  31.146  21.328  0.00  0.00     0.028 H 
ATOM    209  H52 ILE d   1      13.632  29.526  20.684  0.00  0.00     0.028 H 
ATOM    210  H53 ILE d   1      12.494  30.902  20.490  0.00  0.00     0.028 H 
ENDBRANCH 198 207
ENDBRANCH  53 198
TORSDOF 26
