REMARK WARNING: 32 MAX_TORS EXCEEDED!!!
REMARK  53 active torsions:
REMARK  status: ('A' for Active; 'I' for Inactive)
REMARK    1  A    between atoms: N_1  and  CA_2 
REMARK    2  A    between atoms: CA_2  and  C_3 
REMARK    3  A    between atoms: CA_2  and  CB_5 
REMARK       I    between atoms: C_3  and  N_20 
REMARK    4  A    between atoms: CB_5  and  CG_6 
REMARK    5  A    between atoms: N_20  and  CA_21 
REMARK    6  A    between atoms: CA_21  and  C_22 
REMARK    7  A    between atoms: CA_21  and  CB_24 
REMARK       I    between atoms: C_22  and  N_39 
REMARK    8  A    between atoms: CB_24  and  CG1_25 
REMARK    9  A    between atoms: CB_24  and  CG2_26 
REMARK   10  A    between atoms: CG1_25  and  CD1_27 
REMARK   11  A    between atoms: N_39  and  CA_40 
REMARK   12  A    between atoms: CA_40  and  C_41 
REMARK   13  A    between atoms: CA_40  and  CB_43 
REMARK       I    between atoms: C_41  and  N_58 
REMARK   14  A    between atoms: CB_43  and  CG1_44 
REMARK   15  A    between atoms: CB_43  and  CG2_45 
REMARK   16  A    between atoms: CG1_44  and  CD1_46 
REMARK   17  A    between atoms: N_58  and  CA_59 
REMARK   18  A    between atoms: CA_59  and  C_60 
REMARK   19  A    between atoms: CA_59  and  CB_62 
REMARK       I    between atoms: C_60  and  N_73 
REMARK   20  A    between atoms: CB_62  and  CG_63 
REMARK   21  A    between atoms: CG_63  and  CD_64 
REMARK   22  A    between atoms: N_73  and  CA_74 
REMARK   23  A    between atoms: CA_74  and  C_75 
REMARK   24  A    between atoms: CA_74  and  CB_77 
REMARK       I    between atoms: C_75  and  N_87 
REMARK   25  A    between atoms: CB_77  and  CG_78 
REMARK       I    between atoms: CG_78  and  ND2_80 
REMARK   26  A    between atoms: CA_88  and  C_89 
REMARK       I    between atoms: C_89  and  N_101 
REMARK   27  A    between atoms: N_101  and  CA_102 
REMARK   28  A    between atoms: CA_102  and  C_103 
REMARK   29  A    between atoms: CA_102  and  CB_105 
REMARK       I    between atoms: C_103  and  N_118 
REMARK   30  A    between atoms: CB_105  and  CG_106 
REMARK   31  A    between atoms: CG_106  and  CD_107 
REMARK       I    between atoms: CD_107  and  NE2_109 
REMARK   32  A    between atoms: N_118  and  CA_119 
REMARK   33  A    between atoms: CA_119  and  C_120 
REMARK   34  A    between atoms: CA_119  and  CB_122 
REMARK       I    between atoms: C_120  and  N_143 
REMARK   35  A    between atoms: CB_122  and  CG_123 
REMARK   36  A    between atoms: CZ_128  and  OH_129 
REMARK   37  A    between atoms: OH_129  and  P_130 
REMARK   38  A    between atoms: P_130  and  O3P_133 
REMARK   39  A    between atoms: N_143  and  CA_144 
REMARK   40  A    between atoms: CA_144  and  C_145 
REMARK   41  A    between atoms: CA_144  and  CB_147 
REMARK       I    between atoms: C_145  and  N_163 
REMARK   42  A    between atoms: CB_147  and  CG_148 
REMARK   43  A    between atoms: N_163  and  CA_164 
REMARK   44  A    between atoms: CA_164  and  C_165 
REMARK   45  A    between atoms: CA_164  and  CB_167 
REMARK       I    between atoms: C_165  and  N_174 
REMARK   46  A    between atoms: CB_167  and  OG_168 
REMARK   47  A    between atoms: N_174  and  CA_175 
REMARK   48  A    between atoms: CA_175  and  C_176 
REMARK   49  A    between atoms: CA_175  and  CB_178 
REMARK       I    between atoms: C_176  and  N_186 
REMARK   50  A    between atoms: CB_178  and  CG_179 
REMARK   51  A    between atoms: N_186  and  CA_187 
REMARK   52  A    between atoms: CA_187  and  C_188 
REMARK   53  A    between atoms: CA_187  and  CB_190 
ROOT
ATOM      1  C   ASN d   1       0.895  12.957   3.196  0.00  0.00     0.243 C 
ATOM      2  O   ASN d   1       1.951  13.244   2.667  0.00  0.00    -0.271 OA
ATOM      3  N   PRO d   1       0.067  13.840   3.700  0.00  0.00    -0.337 N 
ATOM      4  CA  PRO d   1       0.327  15.286   3.679  0.00  0.00     0.091 C 
ATOM      5  CB  PRO d   1      -1.007  15.946   4.005  0.00  0.00    -0.036 C 
ATOM      6  CG  PRO d   1      -1.741  14.859   4.827  0.00  0.00    -0.048 C 
ATOM      7  CD  PRO d   1      -1.219  13.484   4.341  0.00  0.00    -0.001 C 
ATOM      8  H44 PRO d   1       0.677  15.596   2.683  0.00  0.00     0.087 H 
ATOM      9  H45 PRO d   1      -1.562  16.190   3.087  0.00  0.00     0.036 H 
ATOM     10  H46 PRO d   1      -0.861  16.860   4.599  0.00  0.00     0.036 H 
ATOM     11  H47 PRO d   1      -2.826  14.930   4.661  0.00  0.00     0.035 H 
ATOM     12  H48 PRO d   1      -1.525  14.987   5.898  0.00  0.00     0.035 H 
ATOM     13  H49 PRO d   1      -1.066  12.796   5.185  0.00  0.00     0.064 H 
ATOM     14  H50 PRO d   1      -1.911  13.029   3.618  0.00  0.00     0.064 H 
ENDROOT
BRANCH   4  15
ATOM     15  C   PRO d   1       1.375  15.675   4.734  0.00  0.00     0.241 C 
ATOM     16  O   PRO d   1       1.832  16.801   4.770  0.00  0.00    -0.271 OA
ATOM     17  N   GLN d   1       1.762  14.769   5.595  0.00  0.00    -0.346 N 
ATOM     18  H51 GLN d   1       1.379  13.846   5.558  0.00  0.00     0.163 HD
BRANCH  17  19
ATOM     19  CA  GLN d   1       2.774  15.117   6.630  0.00  0.00     0.090 C 
ATOM     20  H52 GLN d   1       2.716  16.192   6.854  0.00  0.00     0.087 H 
BRANCH  19  21
ATOM     21  C   GLN d   1       4.170  14.780   6.108  0.00  0.00     0.241 C 
ATOM     22  O   GLN d   1       5.090  15.566   6.212  0.00  0.00    -0.271 OA
ATOM     23  N   PTR d   1       4.332  13.615   5.546  0.00  0.00    -0.346 N 
ATOM     24  H59 PTR d   1       3.560  12.984   5.471  0.00  0.00     0.163 HD
BRANCH  23  25
ATOM     25  CA  PTR d   1       5.666  13.224   5.016  0.00  0.00     0.093 C 
ATOM     26  H60 PTR d   1       6.454  13.622   5.673  0.00  0.00     0.088 H 
BRANCH  25  27
ATOM     27  C   PTR d   1       5.841  13.797   3.608  0.00  0.00     0.241 C 
ATOM     28  O   PTR d   1       6.790  14.502   3.330  0.00  0.00    -0.271 OA
ATOM     29  N   PHE d   1       4.934  13.505   2.717  0.00  0.00    -0.346 N 
ATOM     30  H68 PHE d   1       4.159  12.923   2.964  0.00  0.00     0.163 HD
BRANCH  29  31
ATOM     31  CA  PHE d   1       5.054  14.040   1.331  0.00  0.00     0.093 C 
ATOM     32  H69 PHE d   1       6.092  14.357   1.149  0.00  0.00     0.088 H 
BRANCH  31  33
ATOM     33  C   PHE d   1       4.119  15.239   1.168  0.00  0.00     0.241 C 
ATOM     34  O   PHE d   1       2.912  15.111   1.234  0.00  0.00    -0.271 OA
ATOM     35  N   SER d   1       4.665  16.405   0.956  0.00  0.00    -0.344 N 
ATOM     36  H77 SER d   1       5.660  16.489   0.905  0.00  0.00     0.163 HD
BRANCH  35  37
ATOM     37  CA  SER d   1       3.807  17.612   0.789  0.00  0.00     0.109 C 
ATOM     38  H78 SER d   1       2.789  17.390   1.143  0.00  0.00     0.090 H 
BRANCH  37  39
ATOM     39  C   SER d   1       3.758  18.003  -0.689  0.00  0.00     0.243 C 
ATOM     40  O   SER d   1       4.776  18.196  -1.323  0.00  0.00    -0.271 OA
ATOM     41  N   ASP d   1       2.583  18.122  -1.243  0.00  0.00    -0.345 N 
ATOM     42  H82 ASP d   1       1.757  17.959  -0.704  0.00  0.00     0.163 HD
BRANCH  41  43
ATOM     43  CA  ASP d   1       2.472  18.501  -2.680  0.00  0.00     0.098 C 
ATOM     44  H83 ASP d   1       3.437  18.897  -3.030  0.00  0.00     0.088 H 
BRANCH  43  45
ATOM     45  C   ASP d   1       1.392  19.572  -2.845  0.00  0.00     0.241 C 
ATOM     46  O   ASP d   1       0.277  19.288  -3.234  0.00  0.00    -0.271 OA
ATOM     47  N   ALA d   1       1.713  20.803  -2.553  0.00  0.00    -0.345 N 
ATOM     48  H86 ALA d   1       2.637  21.017  -2.235  0.00  0.00     0.163 HD
BRANCH  47  49
ATOM     49  CA  ALA d   1       0.704  21.890  -2.694  0.00  0.00     0.093 C 
ATOM     50  H87 ALA d   1       0.257  21.847  -3.698  0.00  0.00     0.089 H 
BRANCH  49  51
ATOM     51  C   ALA d   1       1.383  23.247  -2.495  0.00  0.00     0.196 C 
ATOM     52  O   ALA d   1       2.562  23.346  -2.789  0.00  0.00    -0.646 OA
ATOM     53  OXT ALA d   1       0.711  24.164  -2.051  0.00  0.00    -0.646 OA
ENDBRANCH  49  51
BRANCH  49  54
ATOM     54  CB  ALA d   1      -0.391  21.709  -1.641  0.00  0.00    -0.048 C 
ATOM     55  H88 ALA d   1      -1.136  22.512  -1.745  0.00  0.00     0.030 H 
ATOM     56  H89 ALA d   1       0.056  21.751  -0.637  0.00  0.00     0.030 H 
ATOM     57  H90 ALA d   1      -0.880  20.734  -1.784  0.00  0.00     0.030 H 
ENDBRANCH  49  54
ENDBRANCH  47  49
ENDBRANCH  43  45
BRANCH  43  58
ATOM     58  CB  ASP d   1       2.099  17.267  -3.504  0.00  0.00     0.043 C 
ATOM     59  H84 ASP d   1       1.310  17.531  -4.224  0.00  0.00     0.052 H 
ATOM     60  H85 ASP d   1       1.733  16.475  -2.834  0.00  0.00     0.052 H 
BRANCH  58  61
ATOM     61  CG  ASP d   1       3.332  16.767  -4.259  0.00  0.00     0.175 C 
ATOM     62  OD1 ASP d   1       4.422  16.904  -3.729  0.00  0.00    -0.648 OA
ATOM     63  OD2 ASP d   1       3.165  16.255  -5.354  0.00  0.00    -0.648 OA
ENDBRANCH  58  61
ENDBRANCH  43  58
ENDBRANCH  41  43
ENDBRANCH  37  39
BRANCH  37  64
ATOM     64  CB  SER d   1       4.389  18.768   1.603  0.00  0.00     0.044 C 
ATOM     65  H79 SER d   1       5.459  18.878   1.373  0.00  0.00     0.077 H 
ATOM     66  H80 SER d   1       4.264  18.562   2.676  0.00  0.00     0.077 H 
BRANCH  64  67
ATOM     67  OG  SER d   1       3.704  19.968   1.267  0.00  0.00    -0.398 OA
ATOM     68  H81 SER d   1       4.064  20.688   1.771  0.00  0.00     0.209 HD
ENDBRANCH  64  67
ENDBRANCH  37  64
ENDBRANCH  35  37
ENDBRANCH  31  33
BRANCH  31  69
ATOM     69  CB  PHE d   1       4.670  12.952   0.326  0.00  0.00    -0.014 C 
ATOM     70  H70 PHE d   1       4.320  13.421  -0.606  0.00  0.00     0.043 H 
ATOM     71  H71 PHE d   1       3.867  12.330   0.748  0.00  0.00     0.043 H 
BRANCH  69  72
ATOM     72  CG  PHE d   1       5.873  12.089   0.034  0.00  0.00    -0.056 A 
ATOM     73  CD1 PHE d   1       6.421  11.291   1.044  0.00  0.00    -0.077 A 
ATOM     74  CE1 PHE d   1       7.535  10.488   0.776  0.00  0.00    -0.082 A 
ATOM     75  H72 PHE d   1       5.982  11.295   2.035  0.00  0.00     0.084 H 
ATOM     76  CZ  PHE d   1       8.101  10.483  -0.503  0.00  0.00    -0.083 A 
ATOM     77  H74 PHE d   1       7.959   9.870   1.559  0.00  0.00     0.083 H 
ATOM     78  CE2 PHE d   1       7.554  11.281  -1.515  0.00  0.00    -0.082 A 
ATOM     79  H76 PHE d   1       8.964   9.861  -0.711  0.00  0.00     0.083 H 
ATOM     80  CD2 PHE d   1       6.440  12.085  -1.246  0.00  0.00    -0.077 A 
ATOM     81  H75 PHE d   1       7.993  11.276  -2.506  0.00  0.00     0.083 H 
ATOM     82  H73 PHE d   1       6.017  12.704  -2.029  0.00  0.00     0.084 H 
ENDBRANCH  69  72
ENDBRANCH  31  69
ENDBRANCH  29  31
ENDBRANCH  25  27
BRANCH  25  83
ATOM     83  CB  PTR d   1       5.762  11.697   4.973  0.00  0.00    -0.014 C 
ATOM     84  H61 PTR d   1       5.617  11.351   3.939  0.00  0.00     0.043 H 
ATOM     85  H62 PTR d   1       4.984  11.263   5.618  0.00  0.00     0.043 H 
BRANCH  83  86
ATOM     86  CG  PTR d   1       7.122  11.258   5.463  0.00  0.00    -0.056 A 
ATOM     87  CD1 PTR d   1       7.230  10.478   6.621  0.00  0.00    -0.074 A 
ATOM     88  CE1 PTR d   1       8.490  10.066   7.072  0.00  0.00    -0.050 A 
ATOM     89  H63 PTR d   1       6.338  10.193   7.168  0.00  0.00     0.084 H 
ATOM     90  CZ  PTR d   1       9.640  10.432   6.364  0.00  0.00     0.081 A 
ATOM     91  H65 PTR d   1       8.574   9.464   7.969  0.00  0.00     0.087 H 
ATOM     92  CE2 PTR d   1       9.532  11.212   5.207  0.00  0.00    -0.050 A 
ATOM     93  CD2 PTR d   1       8.273  11.624   4.756  0.00  0.00    -0.074 A 
ATOM     94  H66 PTR d   1      10.424  11.497   4.660  0.00  0.00     0.087 H 
ATOM     95  H64 PTR d   1       8.189  12.227   3.859  0.00  0.00     0.084 H 
BRANCH  90  96
ATOM     96  OH  PTR d   1      10.900  10.021   6.815  0.00  0.00    -0.247 OA
BRANCH  96  97
ATOM     97  P   PTR d   1      11.824  11.088   7.479  0.00  0.00     0.411 P 
ATOM     98  O1P PTR d   1      12.379  11.915   6.292  0.00  0.00    -0.624 OA
ATOM     99  O2P PTR d   1      12.982  10.268   8.104  0.00  0.00    -0.624 OA
BRANCH  97 100
ATOM    100  O3P PTR d   1      10.869  11.864   8.503  0.00  0.00    -0.300 OA
ATOM    101  H67 PTR d   1      11.367  12.538   8.950  0.00  0.00     0.223 HD
ENDBRANCH  97 100
ENDBRANCH  96  97
ENDBRANCH  90  96
ENDBRANCH  83  86
ENDBRANCH  25  83
ENDBRANCH  23  25
ENDBRANCH  19  21
BRANCH  19 102
ATOM    102  CB  GLN d   1       2.497  14.314   7.903  0.00  0.00    -0.030 C 
ATOM    103  H53 GLN d   1       3.421  13.813   8.228  0.00  0.00     0.037 H 
ATOM    104  H54 GLN d   1       1.723  13.559   7.699  0.00  0.00     0.037 H 
BRANCH 102 105
ATOM    105  CG  GLN d   1       2.012  15.255   9.008  0.00  0.00     0.011 C 
ATOM    106  H55 GLN d   1       1.473  14.676   9.772  0.00  0.00     0.047 H 
ATOM    107  H56 GLN d   1       1.338  16.010   8.577  0.00  0.00     0.047 H 
BRANCH 105 108
ATOM    108  CD  GLN d   1       3.214  15.951   9.649  0.00  0.00     0.215 C 
ATOM    109  OE1 GLN d   1       4.069  16.471   8.959  0.00  0.00    -0.274 OA
ATOM    110  NE2 GLN d   1       3.318  15.983  10.949  0.00  0.00    -0.370 N 
ATOM    111  H57 GLN d   1       4.100  16.436  11.377  0.00  0.00     0.159 HD
ATOM    112  H58 GLN d   1       2.615  15.555  11.518  0.00  0.00     0.159 HD
ENDBRANCH 105 108
ENDBRANCH 102 105
ENDBRANCH  19 102
ENDBRANCH  17  19
ENDBRANCH   4  15
BRANCH   1 113
ATOM    113  CA  ASN d   1       0.453  11.492   3.311  0.00  0.00     0.097 C 
ATOM    114  H39 ASN d   1      -0.635  11.427   3.166  0.00  0.00     0.088 H 
BRANCH 113 115
ATOM    115  N   ASN d   1       1.141  10.670   2.277  0.00  0.00    -0.346 N 
ATOM    116  C   GLU d   1       0.505  10.324   1.193  0.00  0.00     0.241 C 
ATOM    117  O   GLU d   1      -0.648  10.659   1.005  0.00  0.00    -0.271 OA
ATOM    118  H38 ASN d   1       2.089  10.384   2.414  0.00  0.00     0.163 HD
BRANCH 116 119
ATOM    119  CA  GLU d   1       1.259   9.473   0.171  0.00  0.00     0.090 C 
ATOM    120  H33 GLU d   1       2.012   8.861   0.689  0.00  0.00     0.087 H 
BRANCH 119 121
ATOM    121  N   GLU d   1       0.292   8.585  -0.532  0.00  0.00    -0.346 N 
ATOM    122  C   ILE d   1       0.603   7.342  -0.779  0.00  0.00     0.241 C 
ATOM    123  O   ILE d   1       1.678   6.880  -0.446  0.00  0.00    -0.271 OA
ATOM    124  H32 GLU d   1      -0.598   8.942  -0.816  0.00  0.00     0.163 HD
BRANCH 122 125
ATOM    125  CA  ILE d   1      -0.441   6.490  -1.502  0.00  0.00     0.092 C 
ATOM    126  H22 ILE d   1      -1.336   7.098  -1.702  0.00  0.00     0.088 H 
BRANCH 125 127
ATOM    127  N   ILE d   1       0.124   5.997  -2.790  0.00  0.00    -0.346 N 
ATOM    128  C   ILE d   1       0.585   6.842  -3.671  0.00  0.00     0.241 C 
ATOM    129  O   ILE d   1       0.566   8.039  -3.467  0.00  0.00    -0.271 OA
ATOM    130  H21 ILE d   1       0.150   5.016  -2.980  0.00  0.00     0.163 HD
BRANCH 128 131
ATOM    131  CA  ILE d   1       1.151   6.264  -4.969  0.00  0.00     0.092 C 
ATOM    132  H11 ILE d   1       1.584   5.273  -4.769  0.00  0.00     0.088 H 
BRANCH 131 133
ATOM    133  N   ILE d   1       0.056   6.134  -5.972  0.00  0.00    -0.346 N 
ATOM    134  C   HIS d   1      -0.489   4.969  -6.194  0.00  0.00     0.249 C 
ATOM    135  O   HIS d   1      -0.121   3.978  -5.596  0.00  0.00    -0.271 OA
ATOM    136  H10 ILE d   1      -0.261   6.939  -6.474  0.00  0.00     0.163 HD
BRANCH 134 137
ATOM    137  CA  HIS d   1      -1.609   4.899  -7.235  0.00  0.00     0.181 C 
ATOM    138  H4  HIS d   1      -2.579   5.061  -6.741  0.00  0.00     0.099 H 
BRANCH 137 139
ATOM    139  N   HIS d   1      -1.396   5.952  -8.268  0.00  0.00    -0.066 N 
ATOM    140  H1  HIS d   1      -2.134   5.905  -8.953  0.00  0.00     0.275 HD
ATOM    141  H2  HIS d   1      -0.508   5.804  -8.721  0.00  0.00     0.275 HD
ATOM    142  H3  HIS d   1      -1.402   6.859  -7.829  0.00  0.00     0.275 HD
ENDBRANCH 137 139
BRANCH 137 143
ATOM    143  CB  HIS d   1      -1.600   3.522  -7.902  0.00  0.00     0.009 C 
ATOM    144  H5  HIS d   1      -1.391   2.750  -7.147  0.00  0.00     0.046 H 
ATOM    145  H6  HIS d   1      -0.821   3.496  -8.678  0.00  0.00     0.046 H 
BRANCH 143 146
ATOM    146  CG  HIS d   1      -2.942   3.260  -8.529  0.00  0.00     0.030 A 
ATOM    147  ND1 HIS d   1      -4.130   3.571  -7.887  0.00  0.00    -0.353 N 
ATOM    148  CE1 HIS d   1      -5.138   3.218  -8.706  0.00  0.00     0.063 A 
ATOM    149  H7  HIS d   1      -4.224   3.995  -6.953  0.00  0.00     0.166 HD
ATOM    150  NE2 HIS d   1      -4.687   2.693  -9.849  0.00  0.00    -0.254 NA
ATOM    151  H9  HIS d   1      -6.193   3.345  -8.466  0.00  0.00     0.143 H 
ATOM    152  CD2 HIS d   1      -3.300   2.719  -9.739  0.00  0.00     0.025 A 
ATOM    153  H8  HIS d   1      -2.604   2.364 -10.498  0.00  0.00     0.117 H 
ENDBRANCH 143 146
ENDBRANCH 137 143
ENDBRANCH 134 137
ENDBRANCH 131 133
BRANCH 131 154
ATOM    154  CB  ILE d   1       2.237   7.192  -5.517  0.00  0.00    -0.030 C 
ATOM    155  H12 ILE d   1       1.815   8.194  -5.684  0.00  0.00     0.043 H 
BRANCH 154 156
ATOM    156  CG1 ILE d   1       2.764   6.631  -6.840  0.00  0.00    -0.063 C 
ATOM    157  H13 ILE d   1       2.005   5.972  -7.287  0.00  0.00     0.033 H 
ATOM    158  H14 ILE d   1       3.684   6.058  -6.654  0.00  0.00     0.033 H 
BRANCH 156 159
ATOM    159  CD1 ILE d   1       3.067   7.782  -7.800  0.00  0.00    -0.076 C 
ATOM    160  H18 ILE d   1       3.446   7.377  -8.750  0.00  0.00     0.027 H 
ATOM    161  H19 ILE d   1       3.826   8.441  -7.354  0.00  0.00     0.027 H 
ATOM    162  H20 ILE d   1       2.147   8.356  -7.987  0.00  0.00     0.027 H 
ENDBRANCH 156 159
ENDBRANCH 154 156
BRANCH 154 163
ATOM    163  CG2 ILE d   1       3.388   7.283  -4.512  0.00  0.00    -0.071 C 
ATOM    164  H15 ILE d   1       3.012   7.686  -3.560  0.00  0.00     0.028 H 
ATOM    165  H16 ILE d   1       4.169   7.948  -4.909  0.00  0.00     0.028 H 
ATOM    166  H17 ILE d   1       3.809   6.281  -4.345  0.00  0.00     0.028 H 
ENDBRANCH 154 163
ENDBRANCH 131 154
ENDBRANCH 128 131
ENDBRANCH 125 127
BRANCH 125 167
ATOM    167  CB  ILE d   1      -0.821   5.296  -0.623  0.00  0.00    -0.030 C 
ATOM    168  H23 ILE d   1       0.095   4.797  -0.274  0.00  0.00     0.043 H 
BRANCH 167 169
ATOM    169  CG1 ILE d   1      -1.663   4.305  -1.427  0.00  0.00    -0.063 C 
ATOM    170  H24 ILE d   1      -2.264   3.693  -0.738  0.00  0.00     0.033 H 
ATOM    171  H25 ILE d   1      -0.999   3.652  -2.013  0.00  0.00     0.033 H 
BRANCH 169 172
ATOM    172  CD1 ILE d   1      -2.593   5.065  -2.375  0.00  0.00    -0.076 C 
ATOM    173  H29 ILE d   1      -3.196   4.347  -2.951  0.00  0.00     0.027 H 
ATOM    174  H30 ILE d   1      -1.993   5.676  -3.065  0.00  0.00     0.027 H 
ATOM    175  H31 ILE d   1      -3.259   5.718  -1.791  0.00  0.00     0.027 H 
ENDBRANCH 169 172
ENDBRANCH 167 169
BRANCH 167 176
ATOM    176  CG2 ILE d   1      -1.628   5.773   0.583  0.00  0.00    -0.071 C 
ATOM    177  H26 ILE d   1      -1.028   6.487   1.167  0.00  0.00     0.028 H 
ATOM    178  H27 ILE d   1      -1.888   4.911   1.214  0.00  0.00     0.028 H 
ATOM    179  H28 ILE d   1      -2.549   6.265   0.237  0.00  0.00     0.028 H 
ENDBRANCH 167 176
ENDBRANCH 125 167
ENDBRANCH 122 125
ENDBRANCH 119 121
BRANCH 119 180
ATOM    180  CB  GLU d   1       1.953  10.376  -0.847  0.00  0.00    -0.029 C 
ATOM    181  H34 GLU d   1       2.586  11.106  -0.321  0.00  0.00     0.037 H 
ATOM    182  H35 GLU d   1       1.197  10.909  -1.442  0.00  0.00     0.037 H 
BRANCH 180 183
ATOM    183  CG  GLU d   1       2.820   9.519  -1.770  0.00  0.00     0.018 C 
ATOM    184  H36 GLU d   1       2.239   8.652  -2.117  0.00  0.00     0.049 H 
ATOM    185  H37 GLU d   1       3.707   9.170  -1.220  0.00  0.00     0.049 H 
BRANCH 183 186
ATOM    186  CD  GLU d   1       3.263  10.351  -2.975  0.00  0.00     0.172 C 
ATOM    187  OE1 GLU d   1       3.935  11.348  -2.767  0.00  0.00    -0.648 OA
ATOM    188  OE2 GLU d   1       2.924   9.976  -4.085  0.00  0.00    -0.648 OA
ENDBRANCH 183 186
ENDBRANCH 180 183
ENDBRANCH 119 180
ENDBRANCH 116 119
ENDBRANCH 113 115
BRANCH 113 189
ATOM    189  CB  ASN d   1       0.817  10.956   4.696  0.00  0.00     0.036 C 
ATOM    190  H40 ASN d   1       0.510  11.683   5.463  0.00  0.00     0.051 H 
ATOM    191  H41 ASN d   1       1.904  10.798   4.754  0.00  0.00     0.051 H 
BRANCH 189 192
ATOM    192  CG  ASN d   1       0.095   9.628   4.934  0.00  0.00     0.217 C 
ATOM    193  OD1 ASN d   1      -1.117   9.564   4.886  0.00  0.00    -0.274 OA
ATOM    194  ND2 ASN d   1       0.794   8.556   5.193  0.00  0.00    -0.370 N 
ATOM    195  H42 ASN d   1       0.332   7.683   5.350  0.00  0.00     0.159 HD
ATOM    196  H43 ASN d   1       1.792   8.608   5.234  0.00  0.00     0.159 HD
ENDBRANCH 189 192
ENDBRANCH 113 189
ENDBRANCH   1 113
TORSDOF 53
