REMARK  21 active torsions:
REMARK  status: ('A' for Active; 'I' for Inactive)
REMARK       I    between atoms: N_3  and  C_1 
REMARK    1  A    between atoms: CA_4  and  N_3 
REMARK    2  A    between atoms: C_5  and  CA_4 
REMARK    3  A    between atoms: CA_4  and  CB_7 
REMARK       I    between atoms: N_24  and  C_5 
REMARK    4  A    between atoms: CB_7  and  CG_8 
REMARK    5  A    between atoms: CZ_13  and  OH_14 
REMARK    6  A    between atoms: CA_25  and  N_24 
REMARK    7  A    between atoms: C_26  and  CA_25 
REMARK    8  A    between atoms: CA_25  and  CB_28 
REMARK       I    between atoms: N_39  and  C_26 
REMARK    9  A    between atoms: CB_28  and  CG_29 
REMARK   10  A    between atoms: CG_29  and  CD_30 
REMARK   11  A    between atoms: CA_40  and  N_39 
REMARK   12  A    between atoms: C_41  and  CA_40 
REMARK   13  A    between atoms: CA_40  and  CB_43 
REMARK       I    between atoms: C_41  and  N_54 
REMARK   14  A    between atoms: CB_43  and  CG_44 
REMARK   15  A    between atoms: CG_44  and  CD_45 
REMARK   16  A    between atoms: N_54  and  CA_55 
REMARK   17  A    between atoms: CA_55  and  C_56 
REMARK   18  A    between atoms: CA_55  and  CB_58 
REMARK   19  A    between atoms: CB_58  and  CG1_59 
REMARK   20  A    between atoms: CB_58  and  CG2_60 
REMARK   21  A    between atoms: CG1_59  and  CD1_61 
ROOT
ATOM      1  CA  GLU d   1      17.133   6.965   1.167  0.00  0.00     0.090 C 
ATOM      2  H11 GLU d   1      17.683   6.583   0.294  0.00  0.00     0.087 H 
ENDROOT
BRANCH   1   3
ATOM      3  C   GLU d   1      15.659   7.044   0.845  0.00  0.00     0.241 C 
ATOM      4  O   GLU d   1      14.881   7.765   1.479  0.00  0.00    -0.271 OA
ATOM      5  N   GLU d   1      15.284   6.356  -0.220  0.00  0.00    -0.346 N 
ATOM      6  H16 GLU d   1      15.981   5.913  -0.784  0.00  0.00     0.163 HD
BRANCH   5   7
ATOM      7  CA  GLU d   1      13.889   6.227  -0.592  0.00  0.00     0.090 C 
ATOM      8  H17 GLU d   1      13.297   7.042  -0.149  0.00  0.00     0.087 H 
BRANCH   7   9
ATOM      9  C   GLU d   1      13.452   4.889  -0.022  0.00  0.00     0.241 C 
ATOM     10  O   GLU d   1      14.163   3.874  -0.064  0.00  0.00    -0.271 OA
ATOM     11  N   ILE d   1      12.367   4.951   0.706  0.00  0.00    -0.344 N 
ATOM     12  H22 ILE d   1      11.944   5.842   0.871  0.00  0.00     0.163 HD
BRANCH  11  13
ATOM     13  CA  ILE d   1      11.761   3.771   1.279  0.00  0.00     0.099 C 
ATOM     14  H23 ILE d   1      12.499   2.967   1.418  0.00  0.00     0.090 H 
BRANCH  13  15
ATOM     15  C   ILE d   1      10.713   3.326   0.219  0.00  0.00     0.197 C 
ATOM     16  OXT ILE d   1      10.561   2.113   0.030  0.00  0.00    -0.646 OA
ATOM     17  O   ILE d   1      10.151   4.151  -0.530  0.00  0.00    -0.646 OA
ENDBRANCH  13  15
BRANCH  13  18
ATOM     18  CB  ILE d   1      11.213   4.198   2.676  0.00  0.00    -0.029 C 
ATOM     19  H24 ILE d   1      12.054   4.266   3.381  0.00  0.00     0.043 H 
BRANCH  18  20
ATOM     20  CG1 ILE d   1      10.206   3.234   3.200  0.00  0.00    -0.063 C 
ATOM     21  H25 ILE d   1      10.693   2.261   3.362  0.00  0.00     0.033 H 
ATOM     22  H26 ILE d   1       9.399   3.122   2.461  0.00  0.00     0.033 H 
BRANCH  20  23
ATOM     23  CD1 ILE d   1       9.597   3.723   4.541  0.00  0.00    -0.076 C 
ATOM     24  H30 ILE d   1       8.860   2.989   4.898  0.00  0.00     0.027 H 
ATOM     25  H31 ILE d   1       9.103   4.694   4.387  0.00  0.00     0.027 H 
ATOM     26  H32 ILE d   1      10.396   3.833   5.288  0.00  0.00     0.027 H 
ENDBRANCH  20  23
ENDBRANCH  18  20
BRANCH  18  27
ATOM     27  CG2 ILE d   1      10.530   5.530   2.569  0.00  0.00    -0.070 C 
ATOM     28  H27 ILE d   1      11.240   6.276   2.184  0.00  0.00     0.028 H 
ATOM     29  H28 ILE d   1      10.175   5.841   3.562  0.00  0.00     0.028 H 
ATOM     30  H29 ILE d   1       9.675   5.449   1.882  0.00  0.00     0.028 H 
ENDBRANCH  18  27
ENDBRANCH  13  18
ENDBRANCH  11  13
ENDBRANCH   7   9
BRANCH   7  31
ATOM     31  CB  GLU d   1      13.732   6.261  -2.106  0.00  0.00    -0.029 C 
ATOM     32  H18 GLU d   1      12.687   6.033  -2.364  0.00  0.00     0.037 H 
ATOM     33  H19 GLU d   1      14.394   5.505  -2.553  0.00  0.00     0.037 H 
BRANCH  31  34
ATOM     34  CG  GLU d   1      14.098   7.644  -2.669  0.00  0.00     0.018 C 
ATOM     35  H20 GLU d   1      13.928   7.619  -3.756  0.00  0.00     0.049 H 
ATOM     36  H21 GLU d   1      15.166   7.815  -2.469  0.00  0.00     0.049 H 
BRANCH  34  37
ATOM     37  CD  GLU d   1      13.313   8.850  -2.098  0.00  0.00     0.172 C 
ATOM     38  OE1 GLU d   1      12.065   8.797  -2.051  0.00  0.00    -0.648 OA
ATOM     39  OE2 GLU d   1      13.957   9.847  -1.701  0.00  0.00    -0.648 OA
ENDBRANCH  34  37
ENDBRANCH  31  34
ENDBRANCH   7  31
ENDBRANCH   5   7
ENDBRANCH   1   3
BRANCH   1  40
ATOM     40  CB  GLU d   1      17.263   5.976   2.313  0.00  0.00    -0.029 C 
ATOM     41  H12 GLU d   1      16.688   5.075   2.056  0.00  0.00     0.037 H 
ATOM     42  H13 GLU d   1      16.836   6.438   3.216  0.00  0.00     0.037 H 
BRANCH  40  43
ATOM     43  CG  GLU d   1      18.700   5.552   2.627  0.00  0.00     0.018 C 
ATOM     44  H14 GLU d   1      18.687   5.012   3.585  0.00  0.00     0.049 H 
ATOM     45  H15 GLU d   1      19.303   6.466   2.730  0.00  0.00     0.049 H 
BRANCH  43  46
ATOM     46  CD  GLU d   1      19.378   4.669   1.614  0.00  0.00     0.172 C 
ATOM     47  OE1 GLU d   1      18.699   4.179   0.749  0.00  0.00    -0.648 OA
ATOM     48  OE2 GLU d   1      20.572   4.441   1.670  0.00  0.00    -0.648 OA
ENDBRANCH  43  46
ENDBRANCH  40  43
ENDBRANCH   1  40
BRANCH   1  49
ATOM     49  N   GLU d   1      17.657   8.282   1.500  0.00  0.00    -0.346 N 
ATOM     50  H10 GLU d   1      17.886   8.462   2.457  0.00  0.00     0.163 HD
ATOM     51  C   PTR d   1      17.853   9.264   0.621  0.00  0.00     0.241 C 
ATOM     52  O   PTR d   1      17.670   9.150  -0.593  0.00  0.00    -0.271 OA
BRANCH  51  53
ATOM     53  CA  PTR d   1      18.388  10.561   1.144  0.00  0.00     0.096 C 
ATOM     54  H2  PTR d   1      18.695  10.459   2.195  0.00  0.00     0.088 H 
BRANCH  53  55
ATOM     55  CB  PTR d   1      17.350  11.599   1.017  0.00  0.00    -0.014 C 
ATOM     56  H3  PTR d   1      16.421  11.245   1.487  0.00  0.00     0.043 H 
ATOM     57  H4  PTR d   1      17.168  11.804  -0.048  0.00  0.00     0.043 H 
BRANCH  55  58
ATOM     58  CG  PTR d   1      17.804  12.865   1.699  0.00  0.00    -0.056 A 
ATOM     59  CD2 PTR d   1      18.443  13.860   0.980  0.00  0.00    -0.074 A 
ATOM     60  H6  PTR d   1      18.567  13.750  -0.091  0.00  0.00     0.084 H 
ATOM     61  CE2 PTR d   1      18.921  14.984   1.605  0.00  0.00    -0.051 A 
ATOM     62  CZ  PTR d   1      18.733  15.094   2.963  0.00  0.00     0.065 A 
ATOM     63  H8  PTR d   1      19.431  15.761   1.046  0.00  0.00     0.087 H 
ATOM     64  CE1 PTR d   1      18.088  14.112   3.705  0.00  0.00    -0.051 A 
ATOM     65  CD1 PTR d   1      17.618  12.989   3.061  0.00  0.00    -0.074 A 
ATOM     66  H7  PTR d   1      17.957  14.228   4.775  0.00  0.00     0.087 H 
ATOM     67  H5  PTR d   1      17.108  12.211   3.618  0.00  0.00     0.084 H 
BRANCH  62  68
ATOM     68  OH  PTR d   1      19.152  16.289   3.641  0.00  0.00    -0.361 OA
ATOM     69  H9  PTR d   1      19.576  16.871   3.021  0.00  0.00     0.217 HD
ENDBRANCH  62  68
ENDBRANCH  55  58
ENDBRANCH  53  55
BRANCH  53  70
ATOM     70  N   PTR d   1      19.519  10.908   0.316  0.00  0.00    -0.322 N 
ATOM     71  H1  PTR d   1      19.353  11.123  -0.646  0.00  0.00     0.166 HD
ATOM     72  C   ACE d   1      20.764  10.956   0.763  0.00  0.00     0.284 C 
ATOM     73  O   ACE d   1      21.051  10.568   1.895  0.00  0.00    -0.630 OA
ATOM     74  O1  ACE d   1      21.672  11.407   0.015  0.00  0.00    -0.630 OA
ENDBRANCH  53  70
ENDBRANCH  51  53
ENDBRANCH   1  49
TORSDOF 21
