REMARK  8 active torsions:
REMARK  status: ('A' for Active; 'I' for Inactive)
REMARK    1  A    between atoms: C1_1  and  C12_12 
REMARK    2  A    between atoms: C2_2  and  C19_19 
REMARK    3  A    between atoms: C7_7  and  O8_8 
REMARK    4  A    between atoms: C15_15  and  O16_16 
REMARK    5  A    between atoms: C22_22  and  O25_25 
REMARK    6  A    between atoms: O25_25  and  C26_26 
REMARK    7  A    between atoms: C26_26  and  C27_27 
REMARK    8  A    between atoms: C27_27  and  N28_28 
ROOT
ATOM      1  C19 E4D d   1      31.630  -1.840  26.702  0.00  0.00    -0.027 A 
ATOM      2  C20 E4D d   1      32.648  -2.767  26.448  0.00  0.00    -0.072 A 
ATOM      3  C21 E4D d   1      33.073  -3.050  25.148  0.00  0.00    -0.050 A 
ATOM      4  C22 E4D d   1      32.496  -2.352  24.060  0.00  0.00     0.068 A 
ATOM      5  C23 E4D d   1      31.455  -1.471  24.295  0.00  0.00    -0.050 A 
ATOM      6  C24 E4D d   1      31.047  -1.171  25.623  0.00  0.00    -0.072 A 
ATOM      7  H12 E4D d   1      33.118  -3.278  27.281  0.00  0.00     0.084 H 
ATOM      8  H13 E4D d   1      33.838  -3.798  24.974  0.00  0.00     0.087 H 
ATOM      9  H14 E4D d   1      30.946  -1.006  23.459  0.00  0.00     0.087 H 
ATOM     10  H15 E4D d   1      30.283  -0.422  25.799  0.00  0.00     0.084 H 
ENDROOT
BRANCH   1  11
ATOM     11  C2  E4D d   1      31.276  -1.669  28.177  0.00  0.00     0.086 C 
ATOM     12  C1  E4D d   1      31.172  -0.238  28.707  0.00  0.00     0.050 C 
ATOM     13  S11 E4D d   1      29.608   0.457  28.191  0.00  0.00    -0.114 SA
ATOM     14  H1  E4D d   1      31.112  -0.295  29.804  0.00  0.00     0.069 H 
ATOM     15  C10 E4D d   1      28.555  -0.563  27.854  0.00  0.00     0.037 C 
ATOM     16  C4  E4D d   1      28.861  -1.948  27.967  0.00  0.00     0.086 C 
ATOM     17  C9  E4D d   1      27.284  -0.215  27.426  0.00  0.00    -0.032 C 
ATOM     18  O3  E4D d   1      30.050  -2.369  28.431  0.00  0.00    -0.338 OA
ATOM     19  C5  E4D d   1      27.932  -2.901  27.580  0.00  0.00    -0.047 C 
ATOM     20  C6  E4D d   1      26.724  -2.535  27.003  0.00  0.00    -0.048 C 
ATOM     21  H3  E4D d   1      28.153  -3.951  27.731  0.00  0.00     0.087 H 
ATOM     22  C7  E4D d   1      26.346  -1.183  27.031  0.00  0.00     0.067 C 
ATOM     23  H4  E4D d   1      26.085  -3.278  26.540  0.00  0.00     0.087 H 
ATOM     24  H6  E4D d   1      27.006   0.832  27.395  0.00  0.00     0.089 H 
ATOM     25  H2  E4D d   1      32.076  -2.157  28.753  0.00  0.00     0.094 H 
BRANCH  12  26
ATOM     26  C12 E4D d   1      32.470   0.480  28.420  0.00  0.00    -0.041 A 
ATOM     27  C13 E4D d   1      32.680   1.380  27.373  0.00  0.00    -0.073 A 
ATOM     28  C14 E4D d   1      33.932   1.987  27.205  0.00  0.00    -0.051 A 
ATOM     29  H7  E4D d   1      31.872   1.610  26.688  0.00  0.00     0.084 H 
ATOM     30  C15 E4D d   1      34.976   1.698  28.099  0.00  0.00     0.065 A 
ATOM     31  H8  E4D d   1      34.094   2.679  26.386  0.00  0.00     0.087 H 
ATOM     32  C17 E4D d   1      34.783   0.784  29.143  0.00  0.00    -0.051 A 
ATOM     33  C18 E4D d   1      33.519   0.203  29.311  0.00  0.00    -0.073 A 
ATOM     34  H10 E4D d   1      35.599   0.530  29.810  0.00  0.00     0.087 H 
ATOM     35  H11 E4D d   1      33.348  -0.471  30.142  0.00  0.00     0.084 H 
BRANCH  30  36
ATOM     36  O16 E4D d   1      36.191   2.251  27.923  0.00  0.00    -0.361 OA
ATOM     37  H9  E4D d   1      36.776   1.953  28.610  0.00  0.00     0.217 HD
ENDBRANCH  30  36
ENDBRANCH  12  26
BRANCH  22  38
ATOM     38  O8  E4D d   1      25.128  -0.857  26.584  0.00  0.00    -0.361 OA
ATOM     39  H5  E4D d   1      25.005   0.082  26.660  0.00  0.00     0.217 HD
ENDBRANCH  22  38
ENDBRANCH   1  11
BRANCH   4  40
ATOM     40  O25 E4D d   1      32.911  -2.572  22.785  0.00  0.00    -0.350 OA
BRANCH  40  41
ATOM     41  C26 E4D d   1      34.002  -3.400  22.346  0.00  0.00     0.049 C 
ATOM     42  H16 E4D d   1      34.354  -3.986  23.208  0.00  0.00     0.077 H 
ATOM     43  H17 E4D d   1      34.810  -2.742  21.995  0.00  0.00     0.077 H 
BRANCH  41  44
ATOM     44  C27 E4D d   1      33.655  -4.384  21.206  0.00  0.00     0.103 C 
ATOM     45  H18 E4D d   1      33.162  -5.242  21.686  0.00  0.00     0.079 H 
ATOM     46  H19 E4D d   1      34.617  -4.705  20.779  0.00  0.00     0.079 H 
BRANCH  44  47
ATOM     47  N28 E4D d   1      32.800  -4.012  20.054  0.00  0.00    -0.069 N 
ATOM     48  C29 E4D d   1      31.597  -3.241  20.319  0.00  0.00     0.084 C 
ATOM     49  C30 E4D d   1      30.557  -3.264  19.177  0.00  0.00    -0.042 C 
ATOM     50  H21 E4D d   1      31.891  -2.196  20.495  0.00  0.00     0.076 H 
ATOM     51  H22 E4D d   1      31.122  -3.646  21.225  0.00  0.00     0.076 H 
ATOM     52  C31 E4D d   1      31.187  -2.912  17.813  0.00  0.00    -0.062 C 
ATOM     53  H23 E4D d   1      29.766  -2.533  19.402  0.00  0.00     0.035 H 
ATOM     54  H24 E4D d   1      30.119  -4.271  19.116  0.00  0.00     0.035 H 
ATOM     55  C32 E4D d   1      32.413  -3.842  17.617  0.00  0.00    -0.042 C 
ATOM     56  H25 E4D d   1      31.508  -1.860  17.807  0.00  0.00     0.033 H 
ATOM     57  H26 E4D d   1      30.457  -3.077  17.007  0.00  0.00     0.033 H 
ATOM     58  C33 E4D d   1      33.434  -3.674  18.776  0.00  0.00     0.084 C 
ATOM     59  H27 E4D d   1      32.905  -3.592  16.666  0.00  0.00     0.035 H 
ATOM     60  H28 E4D d   1      32.070  -4.887  17.589  0.00  0.00     0.035 H 
ATOM     61  H29 E4D d   1      34.291  -4.342  18.606  0.00  0.00     0.076 H 
ATOM     62  H30 E4D d   1      33.782  -2.631  18.806  0.00  0.00     0.076 H 
ATOM     63  H20 E4D d   1      32.405  -4.913  19.835  0.00  0.00     0.280 HD
ENDBRANCH  44  47
ENDBRANCH  41  44
ENDBRANCH  40  41
ENDBRANCH   4  40
TORSDOF 8
