REMARK WARNING: 32 MAX_TORS EXCEEDED!!!
REMARK  60 active torsions:
REMARK  status: ('A' for Active; 'I' for Inactive)
REMARK    1  A    between atoms: CA_2  and  C_3 
REMARK       I    between atoms: C_3  and  N_8 
REMARK    2  A    between atoms: N_8  and  CA_9 
REMARK    3  A    between atoms: CA_9  and  C_10 
REMARK    4  A    between atoms: CA_9  and  CB_12 
REMARK       I    between atoms: C_10  and  N_17 
REMARK    5  A    between atoms: CB_12  and  CG_13 
REMARK    6  A    between atoms: CG_13  and  CD_14 
REMARK    7  A    between atoms: N_17  and  CA_18 
REMARK    8  A    between atoms: CA_18  and  C_19 
REMARK    9  A    between atoms: CA_18  and  CB_21 
REMARK       I    between atoms: C_19  and  N_24 
REMARK   10  A    between atoms: CB_21  and  CG1_22 
REMARK   11  A    between atoms: CB_21  and  CG2_23 
REMARK   12  A    between atoms: N_24  and  CA_25 
REMARK   13  A    between atoms: CA_25  and  C_26 
REMARK   14  A    between atoms: CA_25  and  CB_28 
REMARK       I    between atoms: C_26  and  N_32 
REMARK   15  A    between atoms: CB_28  and  CG1_29 
REMARK   16  A    between atoms: CB_28  and  CG2_30 
REMARK   17  A    between atoms: CG1_29  and  CD1_31 
REMARK   18  A    between atoms: CA_33  and  C_34 
REMARK       I    between atoms: C_34  and  N_39 
REMARK   19  A    between atoms: N_39  and  CA_40 
REMARK   20  A    between atoms: CA_40  and  C_41 
REMARK   21  A    between atoms: CA_40  and  CB_43 
REMARK       I    between atoms: C_41  and  N_47 
REMARK   22  A    between atoms: CB_43  and  CG_44 
REMARK   23  A    between atoms: CG_44  and  SD_45 
REMARK   24  A    between atoms: SD_45  and  CE_46 
REMARK   25  A    between atoms: N_47  and  CA_48 
REMARK   26  A    between atoms: CA_48  and  C_49 
REMARK   27  A    between atoms: CA_48  and  CB_51 
REMARK       I    between atoms: C_49  and  N_58 
REMARK   28  A    between atoms: CB_51  and  CG_52 
REMARK   29  A    between atoms: N_58  and  CA_59 
REMARK   30  A    between atoms: CA_59  and  C_60 
REMARK   31  A    between atoms: CA_59  and  CB_62 
REMARK       I    between atoms: C_60  and  N_64 
REMARK   32  A    between atoms: CB_62  and  OG_63 
REMARK   33  A    between atoms: N_64  and  CA_65 
REMARK   34  A    between atoms: CA_65  and  C_66 
REMARK   35  A    between atoms: CA_65  and  CB_68 
REMARK       I    between atoms: C_66  and  N_69 
REMARK   36  A    between atoms: N_69  and  CA_70 
REMARK   37  A    between atoms: CA_70  and  C_71 
REMARK   38  A    between atoms: CA_70  and  CB_73 
REMARK       I    between atoms: C_71  and  N_77 
REMARK   39  A    between atoms: CB_73  and  CG_74 
REMARK   40  A    between atoms: CG_74  and  CD1_75 
REMARK   41  A    between atoms: CG_74  and  CD2_76 
REMARK   42  A    between atoms: N_77  and  CA_78 
REMARK   43  A    between atoms: CA_78  and  C_79 
REMARK   44  A    between atoms: CA_78  and  CB_81 
REMARK       I    between atoms: C_79  and  N_83 
REMARK   45  A    between atoms: CB_81  and  OG_82 
REMARK   46  A    between atoms: N_83  and  CA_84 
REMARK   47  A    between atoms: CA_84  and  C_85 
REMARK   48  A    between atoms: CA_84  and  CB_87 
REMARK       I    between atoms: C_85  and  N_92 
REMARK   49  A    between atoms: CB_87  and  CG_88 
REMARK   50  A    between atoms: CG_88  and  CD_89 
REMARK   51  A    between atoms: N_92  and  CA_93 
REMARK   52  A    between atoms: CA_93  and  C_94 
REMARK       I    between atoms: C_94  and  N_96 
REMARK   53  A    between atoms: N_96  and  CA_97 
REMARK   54  A    between atoms: CA_97  and  C_98 
REMARK   55  A    between atoms: CA_97  and  CB_100 
REMARK       I    between atoms: C_98  and  N_101 
REMARK   56  A    between atoms: N_101  and  CA_102 
REMARK   57  A    between atoms: CA_102  and  C_103 
REMARK   58  A    between atoms: CA_102  and  CB_105 
REMARK   59  A    between atoms: CB_105  and  OG1_106 
REMARK   60  A    between atoms: CB_105  and  CG2_107 
ROOT
ATOM      1  CA  PHE d   1     142.981  49.265  -8.343  0.00  0.00     0.093 C 
ATOM      2  H53 PHE d   1     142.055  49.203  -7.753  0.00  0.00     0.088 H 
ENDROOT
BRANCH   1   3
ATOM      3  N   PHE d   1     142.813  50.338  -9.319  0.00  0.00    -0.346 N 
ATOM      4  C   MET d   1     141.878  51.264  -9.133  0.00  0.00     0.241 C 
ATOM      5  O   MET d   1     141.129  51.258  -8.150  0.00  0.00    -0.271 OA
ATOM      6  H52 PHE d   1     143.401  50.376 -10.127  0.00  0.00     0.163 HD
BRANCH   4   7
ATOM      7  CA  MET d   1     141.735  52.363 -10.188  0.00  0.00     0.090 C 
ATOM      8  H44 MET d   1     142.146  52.062 -11.163  0.00  0.00     0.087 H 
BRANCH   7   9
ATOM      9  N   MET d   1     140.291  52.539 -10.237  0.00  0.00    -0.346 N 
ATOM     10  C   PRO d   1     139.511  51.867 -11.081  0.00  0.00     0.241 C 
ATOM     11  O   PRO d   1     139.933  51.105 -11.953  0.00  0.00    -0.271 OA
ATOM     12  H43 MET d   1     139.867  53.193  -9.610  0.00  0.00     0.163 HD
BRANCH  10  13
ATOM     13  CA  PRO d   1     138.021  52.104 -10.909  0.00  0.00     0.091 C 
ATOM     14  N   PRO d   1     137.243  51.770 -12.099  0.00  0.00    -0.337 N 
ATOM     15  C   ILE d   1     136.965  52.678 -13.043  0.00  0.00     0.243 C 
ATOM     16  CD  PRO d   1     136.681  50.413 -11.979  0.00  0.00    -0.001 C 
ATOM     17  O   ILE d   1     137.365  53.842 -12.968  0.00  0.00    -0.271 OA
ATOM     18  CG  PRO d   1     137.336  49.896 -10.704  0.00  0.00    -0.048 C 
ATOM     19  H41 PRO d   1     136.953  49.792 -12.845  0.00  0.00     0.064 H 
ATOM     20  H42 PRO d   1     135.586  50.444 -11.879  0.00  0.00     0.064 H 
ATOM     21  CB  PRO d   1     137.460  51.151  -9.877  0.00  0.00    -0.036 C 
ATOM     22  H39 PRO d   1     136.701  49.150 -10.204  0.00  0.00     0.035 H 
ATOM     23  H40 PRO d   1     138.323  49.457 -10.913  0.00  0.00     0.035 H 
ATOM     24  H37 PRO d   1     136.483  51.488  -9.501  0.00  0.00     0.036 H 
ATOM     25  H38 PRO d   1     138.151  51.014  -9.032  0.00  0.00     0.036 H 
ATOM     26  H36 PRO d   1     137.854  53.152 -10.618  0.00  0.00     0.087 H 
BRANCH  15  27
ATOM     27  CA  ILE d   1     136.145  52.201 -14.232  0.00  0.00     0.092 C 
ATOM     28  H26 ILE d   1     135.726  51.216 -13.980  0.00  0.00     0.088 H 
BRANCH  27  29
ATOM     29  N   ILE d   1     135.027  53.084 -14.551  0.00  0.00    -0.346 N 
ATOM     30  C   VAL d   1     133.780  52.797 -14.181  0.00  0.00     0.241 C 
ATOM     31  O   VAL d   1     133.487  51.787 -13.544  0.00  0.00    -0.271 OA
ATOM     32  H25 ILE d   1     135.202  53.926 -15.061  0.00  0.00     0.163 HD
BRANCH  30  33
ATOM     33  CA  VAL d   1     132.692  53.788 -14.599  0.00  0.00     0.092 C 
ATOM     34  H17 VAL d   1     133.101  54.575 -15.249  0.00  0.00     0.088 H 
BRANCH  33  35
ATOM     35  N   VAL d   1     131.712  52.981 -15.327  0.00  0.00    -0.346 N 
ATOM     36  C   GLU d   1     131.900  52.649 -16.604  0.00  0.00     0.241 C 
ATOM     37  O   GLU d   1     132.856  53.053 -17.267  0.00  0.00    -0.271 OA
ATOM     38  H16 VAL d   1     130.885  52.673 -14.857  0.00  0.00     0.163 HD
BRANCH  36  39
ATOM     39  CA  GLU d   1     130.838  51.745 -17.229  0.00  0.00     0.090 C 
ATOM     40  H11 GLU d   1     129.963  51.751 -16.563  0.00  0.00     0.087 H 
BRANCH  39  41
ATOM     41  N   GLU d   1     130.389  52.179 -18.545  0.00  0.00    -0.346 N 
ATOM     42  C   PRO d   1     129.182  52.709 -18.720  0.00  0.00     0.249 C 
ATOM     43  O   PRO d   1     128.381  52.873 -17.796  0.00  0.00    -0.271 OA
ATOM     44  H10 GLU d   1     130.999  52.077 -19.331  0.00  0.00     0.163 HD
BRANCH  42  45
ATOM     45  CA  PRO d   1     128.821  53.124 -20.145  0.00  0.00     0.178 C 
ATOM     46  N   PRO d   1     127.440  52.679 -20.440  0.00  0.00    -0.062 N 
ATOM     47  CD  PRO d   1     126.563  53.855 -20.550  0.00  0.00     0.083 C 
ATOM     48  H1  PRO d   1     127.112  52.083 -19.696  0.00  0.00     0.278 HD
ATOM     49  H2  PRO d   1     127.429  52.169 -21.309  0.00  0.00     0.278 HD
ATOM     50  CG  PRO d   1     127.542  54.938 -21.019  0.00  0.00    -0.040 C 
ATOM     51  H8  PRO d   1     126.117  54.113 -19.578  0.00  0.00     0.075 H 
ATOM     52  H9  PRO d   1     125.764  53.691 -21.288  0.00  0.00     0.075 H 
ATOM     53  CB  PRO d   1     128.847  54.645 -20.271  0.00  0.00    -0.028 C 
ATOM     54  H6  PRO d   1     127.697  54.874 -22.106  0.00  0.00     0.035 H 
ATOM     55  H7  PRO d   1     127.165  55.938 -20.760  0.00  0.00     0.035 H 
ATOM     56  H4  PRO d   1     129.720  54.981 -20.849  0.00  0.00     0.036 H 
ATOM     57  H5  PRO d   1     128.855  55.126 -19.282  0.00  0.00     0.036 H 
ATOM     58  H3  PRO d   1     129.529  52.673 -20.856  0.00  0.00     0.099 H 
ENDBRANCH  42  45
ENDBRANCH  39  41
BRANCH  39  59
ATOM     59  CB  GLU d   1     131.375  50.319 -17.308  0.00  0.00    -0.029 C 
ATOM     60  H12 GLU d   1     132.108  50.269 -18.127  0.00  0.00     0.037 H 
ATOM     61  H13 GLU d   1     130.535  49.644 -17.527  0.00  0.00     0.037 H 
BRANCH  59  62
ATOM     62  CG  GLU d   1     132.046  49.849 -16.038  0.00  0.00     0.018 C 
ATOM     63  H14 GLU d   1     131.362  50.018 -15.194  0.00  0.00     0.049 H 
ATOM     64  H15 GLU d   1     132.966  50.433 -15.887  0.00  0.00     0.049 H 
BRANCH  62  65
ATOM     65  CD  GLU d   1     132.406  48.379 -16.085  0.00  0.00     0.172 C 
ATOM     66  OE1 GLU d   1     133.087  47.895 -15.156  0.00  0.00    -0.648 OA
ATOM     67  OE2 GLU d   1     132.004  47.701 -17.051  0.00  0.00    -0.648 OA
ENDBRANCH  62  65
ENDBRANCH  59  62
ENDBRANCH  39  59
ENDBRANCH  36  39
ENDBRANCH  33  35
BRANCH  33  68
ATOM     68  CB  VAL d   1     132.087  54.425 -13.328  0.00  0.00    -0.033 C 
ATOM     69  H18 VAL d   1     131.596  53.639 -12.735  0.00  0.00     0.042 H 
BRANCH  68  70
ATOM     70  CG1 VAL d   1     133.193  55.058 -12.489  0.00  0.00    -0.071 C 
ATOM     71  H19 VAL d   1     132.756  55.509 -11.586  0.00  0.00     0.028 H 
ATOM     72  H20 VAL d   1     133.701  55.836 -13.078  0.00  0.00     0.028 H 
ATOM     73  H21 VAL d   1     133.920  54.285 -12.197  0.00  0.00     0.028 H 
ENDBRANCH  68  70
BRANCH  68  74
ATOM     74  CG2 VAL d   1     131.046  55.477 -13.709  0.00  0.00    -0.071 C 
ATOM     75  H22 VAL d   1     130.255  55.008 -14.313  0.00  0.00     0.028 H 
ATOM     76  H23 VAL d   1     131.528  56.276 -14.292  0.00  0.00     0.028 H 
ATOM     77  H24 VAL d   1     130.606  55.904 -12.796  0.00  0.00     0.028 H 
ENDBRANCH  68  74
ENDBRANCH  33  68
ENDBRANCH  30  33
ENDBRANCH  27  29
BRANCH  27  78
ATOM     78  CB  ILE d   1     137.086  52.033 -15.456  0.00  0.00    -0.030 C 
ATOM     79  H27 ILE d   1     137.111  52.979 -16.016  0.00  0.00     0.043 H 
BRANCH  78  80
ATOM     80  CG1 ILE d   1     136.563  50.926 -16.371  0.00  0.00    -0.063 C 
ATOM     81  H28 ILE d   1     136.491  49.999 -15.783  0.00  0.00     0.033 H 
ATOM     82  H29 ILE d   1     137.285  50.786 -17.189  0.00  0.00     0.033 H 
BRANCH  80  83
ATOM     83  CD1 ILE d   1     135.216  51.206 -16.975  0.00  0.00    -0.076 C 
ATOM     84  H33 ILE d   1     134.919  50.362 -17.615  0.00  0.00     0.027 H 
ATOM     85  H34 ILE d   1     135.269  52.124 -17.579  0.00  0.00     0.027 H 
ATOM     86  H35 ILE d   1     134.475  51.337 -16.173  0.00  0.00     0.027 H 
ENDBRANCH  80  83
ENDBRANCH  78  80
BRANCH  78  87
ATOM     87  CG2 ILE d   1     138.492  51.692 -15.006  0.00  0.00    -0.071 C 
ATOM     88  H30 ILE d   1     138.869  52.488 -14.347  0.00  0.00     0.028 H 
ATOM     89  H31 ILE d   1     139.147  51.602 -15.885  0.00  0.00     0.028 H 
ATOM     90  H32 ILE d   1     138.481  50.738 -14.459  0.00  0.00     0.028 H 
ENDBRANCH  78  87
ENDBRANCH  27  78
ENDBRANCH  15  27
ENDBRANCH  10  13
ENDBRANCH   7   9
BRANCH   7  91
ATOM     91  CB  MET d   1     142.422  53.635  -9.687  0.00  0.00    -0.030 C 
ATOM     92  H45 MET d   1     143.415  53.361  -9.302  0.00  0.00     0.037 H 
ATOM     93  H46 MET d   1     141.816  54.056  -8.871  0.00  0.00     0.037 H 
BRANCH  91  94
ATOM     94  CG  MET d   1     142.601  54.703 -10.745  0.00  0.00    -0.021 C 
ATOM     95  H47 MET d   1     143.011  55.609 -10.275  0.00  0.00     0.049 H 
ATOM     96  H48 MET d   1     141.623  54.933 -11.192  0.00  0.00     0.049 H 
BRANCH  94  97
ATOM     97  SD  MET d   1     143.722  54.154 -12.038  0.00  0.00    -0.173 SA
BRANCH  97  98
ATOM     98  CE  MET d   1     145.278  54.684 -11.371  0.00  0.00    -0.035 C 
ATOM     99  H49 MET d   1     146.086  54.413 -12.066  0.00  0.00     0.041 H 
ATOM    100  H50 MET d   1     145.448  54.193 -10.402  0.00  0.00     0.041 H 
ATOM    101  H51 MET d   1     145.265  55.775 -11.232  0.00  0.00     0.041 H 
ENDBRANCH  97  98
ENDBRANCH  94  97
ENDBRANCH  91  94
ENDBRANCH   7  91
ENDBRANCH   4   7
ENDBRANCH   1   3
BRANCH   1 102
ATOM    102  C   PHE d   1     144.123  49.536  -7.374  0.00  0.00     0.241 C 
ATOM    103  O   PHE d   1     145.182  50.023  -7.760  0.00  0.00    -0.271 OA
ATOM    104  N   SER d   1     143.879  49.226  -6.106  0.00  0.00    -0.344 N 
ATOM    105  H61 SER d   1     142.989  48.835  -5.873  0.00  0.00     0.163 HD
BRANCH 104 106
ATOM    106  CA  SER d   1     144.850  49.430  -5.040  0.00  0.00     0.109 C 
ATOM    107  H62 SER d   1     145.120  50.496  -5.022  0.00  0.00     0.090 H 
BRANCH 106 108
ATOM    108  C   SER d   1     146.120  48.614  -5.229  0.00  0.00     0.243 C 
ATOM    109  O   SER d   1     146.073  47.459  -5.642  0.00  0.00    -0.271 OA
ATOM    110  N   ALA d   1     147.258  49.217  -4.908  0.00  0.00    -0.346 N 
ATOM    111  H66 ALA d   1     147.240  50.167  -4.596  0.00  0.00     0.163 HD
BRANCH 110 112
ATOM    112  CA  ALA d   1     148.531  48.519  -5.002  0.00  0.00     0.086 C 
ATOM    113  H67 ALA d   1     148.436  47.650  -5.669  0.00  0.00     0.086 H 
BRANCH 112 114
ATOM    114  C   ALA d   1     148.894  48.060  -3.589  0.00  0.00     0.240 C 
ATOM    115  O   ALA d   1     148.741  48.815  -2.627  0.00  0.00    -0.271 OA
ATOM    116  N   LEU d   1     149.357  46.822  -3.469  0.00  0.00    -0.346 N 
ATOM    117  H71 LEU d   1     149.437  46.255  -4.288  0.00  0.00     0.163 HD
BRANCH 116 118
ATOM    118  CA  LEU d   1     149.753  46.261  -2.181  0.00  0.00     0.089 C 
ATOM    119  H72 LEU d   1     149.010  46.563  -1.428  0.00  0.00     0.087 H 
BRANCH 118 120
ATOM    120  C   LEU d   1     151.129  46.756  -1.736  0.00  0.00     0.241 C 
ATOM    121  O   LEU d   1     152.053  46.838  -2.549  0.00  0.00    -0.271 OA
ATOM    122  N   SER d   1     151.262  47.099  -0.455  0.00  0.00    -0.344 N 
ATOM    123  H82 SER d   1     150.466  47.066   0.149  0.00  0.00     0.163 HD
BRANCH 122 124
ATOM    124  CA  SER d   1     152.558  47.524   0.082  0.00  0.00     0.109 C 
ATOM    125  H83 SER d   1     153.034  48.255  -0.588  0.00  0.00     0.090 H 
BRANCH 124 126
ATOM    126  C   SER d   1     153.388  46.244   0.188  0.00  0.00     0.243 C 
ATOM    127  O   SER d   1     152.830  45.140   0.182  0.00  0.00    -0.271 OA
ATOM    128  N   GLU d   1     154.709  46.373   0.286  0.00  0.00    -0.346 N 
ATOM    129  H87 GLU d   1     155.128  47.281   0.268  0.00  0.00     0.163 HD
BRANCH 128 130
ATOM    130  CA  GLU d   1     155.542  45.182   0.420  0.00  0.00     0.090 C 
ATOM    131  H88 GLU d   1     155.200  44.414  -0.290  0.00  0.00     0.087 H 
BRANCH 130 132
ATOM    132  C   GLU d   1     155.376  44.668   1.847  0.00  0.00     0.240 C 
ATOM    133  O   GLU d   1     155.415  45.442   2.813  0.00  0.00    -0.271 OA
ATOM    134  N   GLY d   1     155.178  43.363   1.973  0.00  0.00    -0.351 N 
ATOM    135  H93 GLY d   1     155.168  42.781   1.160  0.00  0.00     0.163 HD
BRANCH 134 136
ATOM    136  CA  GLY d   1     154.976  42.774   3.281  0.00  0.00     0.069 C 
ATOM    137  H94 GLY d   1     155.229  43.504   4.064  0.00  0.00     0.078 H 
ATOM    138  H95 GLY d   1     155.610  41.882   3.392  0.00  0.00     0.078 H 
BRANCH 136 139
ATOM    139  C   GLY d   1     153.515  42.386   3.390  0.00  0.00     0.236 C 
ATOM    140  O   GLY d   1     153.162  41.415   4.061  0.00  0.00    -0.272 OA
ATOM    141  N   ALA d   1     152.664  43.161   2.722  0.00  0.00    -0.347 N 
ATOM    142  H96 ALA d   1     153.021  43.945   2.215  0.00  0.00     0.163 HD
BRANCH 141 143
ATOM    143  CA  ALA d   1     151.230  42.905   2.705  0.00  0.00     0.086 C 
ATOM    144  H97 ALA d   1     150.898  42.536   3.687  0.00  0.00     0.086 H 
BRANCH 143 145
ATOM    145  C   ALA d   1     150.991  41.847   1.636  0.00  0.00     0.240 C 
ATOM    146  O   ALA d   1     149.981  41.138   1.651  0.00  0.00    -0.271 OA
ATOM    147  N   THR d   1     151.948  41.755   0.715  0.00  0.00    -0.343 N 
ATOM    148 1H10 THR d   1     152.734  42.369   0.784  0.00  0.00     0.163 HD
BRANCH 147 149
ATOM    149  CA  THR d   1     151.907  40.804  -0.390  0.00  0.00     0.120 C 
ATOM    150 2H10 THR d   1     150.903  40.836  -0.839  0.00  0.00     0.093 H 
BRANCH 149 151
ATOM    151  C   THR d   1     152.188  39.381   0.093  0.00  0.00     0.199 C 
ATOM    152  O   THR d   1     151.331  38.501  -0.136  0.00  0.00    -0.646 OA
ATOM    153  OXT THR d   1     153.262  39.164   0.694  0.00  0.00    -0.646 OA
ENDBRANCH 149 151
BRANCH 149 154
ATOM    154  CB  THR d   1     152.952  41.169  -1.469  0.00  0.00     0.061 C 
ATOM    155 3H10 THR d   1     153.960  41.086  -1.036  0.00  0.00     0.086 H 
BRANCH 154 156
ATOM    156  OG1 THR d   1     152.736  42.514  -1.913  0.00  0.00    -0.393 OA
ATOM    157 4H10 THR d   1     152.822  43.107  -1.176  0.00  0.00     0.210 HD
ENDBRANCH 154 156
BRANCH 154 158
ATOM    158  CG2 THR d   1     152.841  40.227  -2.658  0.00  0.00    -0.050 C 
ATOM    159 5H10 THR d   1     153.591  40.501  -3.414  0.00  0.00     0.031 H 
ATOM    160 6H10 THR d   1     151.834  40.305  -3.095  0.00  0.00     0.031 H 
ATOM    161 7H10 THR d   1     153.017  39.194  -2.325  0.00  0.00     0.031 H 
ENDBRANCH 154 158
ENDBRANCH 149 154
ENDBRANCH 147 149
ENDBRANCH 143 145
BRANCH 143 162
ATOM    162  CB  ALA d   1     150.474  44.180   2.359  0.00  0.00    -0.049 C 
ATOM    163  H98 ALA d   1     149.393  43.974   2.349  0.00  0.00     0.030 H 
ATOM    164  H99 ALA d   1     150.789  44.535   1.367  0.00  0.00     0.030 H 
ATOM    165 0H10 ALA d   1     150.694  44.952   3.111  0.00  0.00     0.030 H 
ENDBRANCH 143 162
ENDBRANCH 141 143
ENDBRANCH 136 139
ENDBRANCH 134 136
ENDBRANCH 130 132
BRANCH 130 166
ATOM    166  CB  GLU d   1     157.009  45.504   0.130  0.00  0.00    -0.029 C 
ATOM    167  H89 GLU d   1     157.378  46.180   0.915  0.00  0.00     0.037 H 
ATOM    168  H90 GLU d   1     157.067  46.009  -0.846  0.00  0.00     0.037 H 
BRANCH 166 169
ATOM    169  CG  GLU d   1     157.907  44.280   0.091  0.00  0.00     0.018 C 
ATOM    170  H91 GLU d   1     157.375  43.469  -0.427  0.00  0.00     0.049 H 
ATOM    171  H92 GLU d   1     158.129  43.972   1.124  0.00  0.00     0.049 H 
BRANCH 169 172
ATOM    172  CD  GLU d   1     159.216  44.541  -0.630  0.00  0.00     0.172 C 
ATOM    173  OE1 GLU d   1     159.897  45.531  -0.289  0.00  0.00    -0.648 OA
ATOM    174  OE2 GLU d   1     159.567  43.756  -1.537  0.00  0.00    -0.648 OA
ENDBRANCH 169 172
ENDBRANCH 166 169
ENDBRANCH 130 166
ENDBRANCH 128 130
ENDBRANCH 124 126
BRANCH 124 175
ATOM    175  CB  SER d   1     152.415  48.114   1.489  0.00  0.00     0.044 C 
ATOM    176  H84 SER d   1     153.414  48.373   1.870  0.00  0.00     0.077 H 
ATOM    177  H85 SER d   1     151.956  47.361   2.146  0.00  0.00     0.077 H 
BRANCH 175 178
ATOM    178  OG  SER d   1     151.608  49.277   1.491  0.00  0.00    -0.398 OA
ATOM    179  H86 SER d   1     150.741  49.060   1.168  0.00  0.00     0.209 HD
ENDBRANCH 175 178
ENDBRANCH 124 175
ENDBRANCH 122 124
ENDBRANCH 118 120
BRANCH 118 180
ATOM    180  CB  LEU d   1     149.786  44.731  -2.265  0.00  0.00    -0.035 C 
ATOM    181  H73 LEU d   1     150.581  44.389  -1.587  0.00  0.00     0.037 H 
ATOM    182  H74 LEU d   1     150.050  44.471  -3.301  0.00  0.00     0.037 H 
BRANCH 180 183
ATOM    183  CG  LEU d   1     148.523  43.937  -1.912  0.00  0.00    -0.059 C 
ATOM    184  H75 LEU d   1     147.664  44.376  -2.441  0.00  0.00     0.038 H 
BRANCH 183 185
ATOM    185  CD1 LEU d   1     148.676  42.472  -2.353  0.00  0.00    -0.073 C 
ATOM    186  H76 LEU d   1     147.764  41.914  -2.094  0.00  0.00     0.028 H 
ATOM    187  H77 LEU d   1     149.539  42.023  -1.839  0.00  0.00     0.028 H 
ATOM    188  H78 LEU d   1     148.834  42.431  -3.441  0.00  0.00     0.028 H 
ENDBRANCH 183 185
BRANCH 183 189
ATOM    189  CD2 LEU d   1     148.277  44.028  -0.409  0.00  0.00    -0.073 C 
ATOM    190  H79 LEU d   1     148.171  45.084  -0.118  0.00  0.00     0.028 H 
ATOM    191  H80 LEU d   1     149.127  43.583   0.129  0.00  0.00     0.028 H 
ATOM    192  H81 LEU d   1     147.356  43.483  -0.155  0.00  0.00     0.028 H 
ENDBRANCH 183 189
ENDBRANCH 180 183
ENDBRANCH 118 180
ENDBRANCH 116 118
ENDBRANCH 112 114
BRANCH 112 193
ATOM    193  CB  ALA d   1     149.606  49.457  -5.540  0.00  0.00    -0.049 C 
ATOM    194  H68 ALA d   1     150.563  48.918  -5.606  0.00  0.00     0.030 H 
ATOM    195  H69 ALA d   1     149.715  50.316  -4.862  0.00  0.00     0.030 H 
ATOM    196  H70 ALA d   1     149.315  49.813  -6.540  0.00  0.00     0.030 H 
ENDBRANCH 112 193
ENDBRANCH 110 112
ENDBRANCH 106 108
BRANCH 106 197
ATOM    197  CB  SER d   1     144.232  49.046  -3.693  0.00  0.00     0.044 C 
ATOM    198  H63 SER d   1     144.914  49.355  -2.887  0.00  0.00     0.077 H 
ATOM    199  H64 SER d   1     144.096  47.955  -3.661  0.00  0.00     0.077 H 
BRANCH 197 200
ATOM    200  OG  SER d   1     142.981  49.668  -3.497  0.00  0.00    -0.398 OA
ATOM    201  H65 SER d   1     142.628  49.408  -2.654  0.00  0.00     0.209 HD
ENDBRANCH 197 200
ENDBRANCH 106 197
ENDBRANCH 104 106
ENDBRANCH   1 102
BRANCH   1 202
ATOM    202  CB  PHE d   1     143.175  47.923  -9.061  0.00  0.00    -0.014 C 
ATOM    203  H54 PHE d   1     143.407  47.155  -8.308  0.00  0.00     0.043 H 
ATOM    204  H55 PHE d   1     144.020  48.020  -9.759  0.00  0.00     0.043 H 
BRANCH 202 205
ATOM    205  CG  PHE d   1     141.958  47.477  -9.841  0.00  0.00    -0.056 A 
ATOM    206  CD1 PHE d   1     140.803  47.051  -9.175  0.00  0.00    -0.077 A 
ATOM    207  CE1 PHE d   1     139.658  46.664  -9.885  0.00  0.00    -0.082 A 
ATOM    208  H56 PHE d   1     140.794  47.020  -8.091  0.00  0.00     0.084 H 
ATOM    209  CZ  PHE d   1     139.660  46.701 -11.290  0.00  0.00    -0.083 A 
ATOM    210  H58 PHE d   1     138.773  46.337  -9.351  0.00  0.00     0.083 H 
ATOM    211  CE2 PHE d   1     140.813  47.126 -11.970  0.00  0.00    -0.082 A 
ATOM    212  H60 PHE d   1     138.778  46.404 -11.845  0.00  0.00     0.083 H 
ATOM    213  CD2 PHE d   1     141.954  47.510 -11.242  0.00  0.00    -0.077 A 
ATOM    214  H59 PHE d   1     140.824  47.158 -13.053  0.00  0.00     0.083 H 
ATOM    215  H57 PHE d   1     142.842  47.836 -11.772  0.00  0.00     0.084 H 
ENDBRANCH 202 205
ENDBRANCH   1 202
TORSDOF 60
