REMARK WARNING: 32 MAX_TORS EXCEEDED!!!
REMARK  52 active torsions:
REMARK  status: ('A' for Active; 'I' for Inactive)
REMARK    1  A    between atoms: CA_2  and  C_3 
REMARK       I    between atoms: C_3  and  N_8 
REMARK    2  A    between atoms: N_8  and  CA_9 
REMARK    3  A    between atoms: CA_9  and  C_10 
REMARK    4  A    between atoms: CA_9  and  CB_12 
REMARK       I    between atoms: C_10  and  N_17 
REMARK    5  A    between atoms: CB_12  and  CG_13 
REMARK    6  A    between atoms: CG_13  and  CD_14 
REMARK    7  A    between atoms: N_17  and  CA_18 
REMARK    8  A    between atoms: CA_18  and  C_19 
REMARK    9  A    between atoms: CA_18  and  CB_21 
REMARK       I    between atoms: C_19  and  N_24 
REMARK   10  A    between atoms: CB_21  and  CG1_22 
REMARK   11  A    between atoms: CB_21  and  CG2_23 
REMARK   12  A    between atoms: N_24  and  CA_25 
REMARK   13  A    between atoms: CA_25  and  C_26 
REMARK   14  A    between atoms: CA_25  and  CB_28 
REMARK       I    between atoms: C_26  and  N_32 
REMARK   15  A    between atoms: CB_28  and  CG1_29 
REMARK   16  A    between atoms: CB_28  and  CG2_30 
REMARK   17  A    between atoms: CG1_29  and  CD1_31 
REMARK   18  A    between atoms: CA_33  and  C_34 
REMARK       I    between atoms: C_34  and  N_39 
REMARK   19  A    between atoms: N_39  and  CA_40 
REMARK   20  A    between atoms: CA_40  and  C_41 
REMARK   21  A    between atoms: CA_40  and  CB_43 
REMARK       I    between atoms: C_41  and  N_47 
REMARK   22  A    between atoms: CB_43  and  CG_44 
REMARK   23  A    between atoms: CG_44  and  SD_45 
REMARK   24  A    between atoms: SD_45  and  CE_46 
REMARK   25  A    between atoms: N_47  and  CA_48 
REMARK   26  A    between atoms: CA_48  and  C_49 
REMARK   27  A    between atoms: CA_48  and  CB_51 
REMARK       I    between atoms: C_49  and  N_58 
REMARK   28  A    between atoms: CB_51  and  CG_52 
REMARK   29  A    between atoms: N_58  and  CA_59 
REMARK   30  A    between atoms: CA_59  and  C_60 
REMARK   31  A    between atoms: CA_59  and  CB_62 
REMARK       I    between atoms: C_60  and  N_64 
REMARK   32  A    between atoms: CB_62  and  OG_63 
REMARK   33  A    between atoms: N_64  and  CA_65 
REMARK   34  A    between atoms: CA_65  and  C_66 
REMARK   35  A    between atoms: CA_65  and  CB_68 
REMARK       I    between atoms: C_66  and  N_69 
REMARK   36  A    between atoms: N_69  and  CA_70 
REMARK   37  A    between atoms: CA_70  and  C_71 
REMARK   38  A    between atoms: CA_70  and  CB_73 
REMARK       I    between atoms: C_71  and  N_77 
REMARK   39  A    between atoms: CB_73  and  CG_74 
REMARK   40  A    between atoms: CG_74  and  CD1_75 
REMARK   41  A    between atoms: CG_74  and  CD2_76 
REMARK   42  A    between atoms: N_77  and  CA_78 
REMARK   43  A    between atoms: CA_78  and  C_79 
REMARK   44  A    between atoms: CA_78  and  CB_81 
REMARK       I    between atoms: C_79  and  N_83 
REMARK   45  A    between atoms: CB_81  and  OG_82 
REMARK   46  A    between atoms: N_83  and  CA_84 
REMARK   47  A    between atoms: CA_84  and  C_85 
REMARK   48  A    between atoms: CA_84  and  CB_87 
REMARK       I    between atoms: C_85  and  N_92 
REMARK   49  A    between atoms: CB_87  and  CG_88 
REMARK   50  A    between atoms: CG_88  and  CD_89 
REMARK   51  A    between atoms: N_92  and  CA_93 
REMARK   52  A    between atoms: CA_93  and  C_94 
ROOT
ATOM      1  C   MET d   1     141.712  51.120  -9.307  0.00  0.00     0.241 C 
ATOM      2  O   MET d   1     140.977  51.136  -8.327  0.00  0.00    -0.271 OA
ATOM      3  N   PHE d   1     142.633  50.179  -9.479  0.00  0.00    -0.346 N 
ATOM      4  H52 PHE d   1     143.222  50.196 -10.287  0.00  0.00     0.163 HD
ENDROOT
BRANCH   1   5
ATOM      5  CA  MET d   1     141.574  52.212 -10.362  0.00  0.00     0.090 C 
ATOM      6  H44 MET d   1     141.961  51.900 -11.343  0.00  0.00     0.087 H 
BRANCH   5   7
ATOM      7  N   MET d   1     140.130  52.432 -10.388  0.00  0.00    -0.346 N 
ATOM      8  C   PRO d   1     139.304  51.755 -11.185  0.00  0.00     0.241 C 
ATOM      9  O   PRO d   1     139.684  50.959 -12.037  0.00  0.00    -0.271 OA
ATOM     10  H43 MET d   1     139.743  53.124  -9.778  0.00  0.00     0.163 HD
BRANCH   8  11
ATOM     11  CA  PRO d   1     137.814  52.044 -10.994  0.00  0.00     0.091 C 
ATOM     12  N   PRO d   1     136.998  51.621 -12.136  0.00  0.00    -0.337 N 
ATOM     13  C   ILE d   1     136.682  52.497 -13.098  0.00  0.00     0.243 C 
ATOM     14  CD  PRO d   1     136.462  50.262 -11.925  0.00  0.00    -0.001 C 
ATOM     15  O   ILE d   1     137.069  53.662 -13.066  0.00  0.00    -0.271 OA
ATOM     16  CG  PRO d   1     137.077  49.862 -10.575  0.00  0.00    -0.048 C 
ATOM     17  H41 PRO d   1     136.784  49.580 -12.725  0.00  0.00     0.064 H 
ATOM     18  H42 PRO d   1     135.363  50.273 -11.873  0.00  0.00     0.064 H 
ATOM     19  CB  PRO d   1     137.257  51.202  -9.864  0.00  0.00    -0.036 C 
ATOM     20  H39 PRO d   1     136.399  49.204 -10.012  0.00  0.00     0.035 H 
ATOM     21  H40 PRO d   1     138.044  49.357 -10.716  0.00  0.00     0.035 H 
ATOM     22  H37 PRO d   1     136.299  51.598  -9.497  0.00  0.00     0.036 H 
ATOM     23  H38 PRO d   1     137.967  51.125  -9.027  0.00  0.00     0.036 H 
ATOM     24  H36 PRO d   1     137.677  53.117 -10.796  0.00  0.00     0.087 H 
BRANCH  13  25
ATOM     25  CA  ILE d   1     135.834  51.993 -14.253  0.00  0.00     0.092 C 
ATOM     26  H26 ILE d   1     135.405  51.014 -13.991  0.00  0.00     0.088 H 
BRANCH  25  27
ATOM     27  N   ILE d   1     134.745  52.926 -14.526  0.00  0.00    -0.346 N 
ATOM     28  C   VAL d   1     133.482  52.627 -14.246  0.00  0.00     0.241 C 
ATOM     29  O   VAL d   1     133.146  51.552 -13.755  0.00  0.00    -0.271 OA
ATOM     30  H25 ILE d   1     134.956  53.814 -14.935  0.00  0.00     0.163 HD
BRANCH  28  31
ATOM     31  CA  VAL d   1     132.429  53.678 -14.603  0.00  0.00     0.092 C 
ATOM     32  H17 VAL d   1     132.855  54.491 -15.209  0.00  0.00     0.088 H 
BRANCH  31  33
ATOM     33  N   VAL d   1     131.461  52.905 -15.365  0.00  0.00    -0.346 N 
ATOM     34  C   GLU d   1     131.659  52.628 -16.649  0.00  0.00     0.241 C 
ATOM     35  O   GLU d   1     132.614  53.068 -17.297  0.00  0.00    -0.271 OA
ATOM     36  H16 VAL d   1     130.631  52.576 -14.914  0.00  0.00     0.163 HD
BRANCH  34  37
ATOM     37  CA  GLU d   1     130.605  51.736 -17.296  0.00  0.00     0.090 C 
ATOM     38  H11 GLU d   1     129.729  51.725 -16.631  0.00  0.00     0.087 H 
BRANCH  37  39
ATOM     39  N   GLU d   1     130.149  52.185 -18.600  0.00  0.00    -0.346 N 
ATOM     40  C   PRO d   1     128.911  52.636 -18.765  0.00  0.00     0.249 C 
ATOM     41  O   PRO d   1     128.098  52.713 -17.843  0.00  0.00    -0.271 OA
ATOM     42  H10 GLU d   1     130.773  52.154 -19.381  0.00  0.00     0.163 HD
BRANCH  40  43
ATOM     43  CA  PRO d   1     128.532  53.075 -20.177  0.00  0.00     0.178 C 
ATOM     44  N   PRO d   1     127.141  52.659 -20.457  0.00  0.00    -0.062 N 
ATOM     45  CD  PRO d   1     126.313  53.854 -20.690  0.00  0.00     0.083 C 
ATOM     46  H1  PRO d   1     126.778  52.146 -19.669  0.00  0.00     0.278 HD
ATOM     47  H2  PRO d   1     127.124  52.072 -21.276  0.00  0.00     0.278 HD
ATOM     48  CG  PRO d   1     127.358  54.889 -21.137  0.00  0.00    -0.040 C 
ATOM     49  H8  PRO d   1     125.804  54.173 -19.768  0.00  0.00     0.075 H 
ATOM     50  H9  PRO d   1     125.566  53.675 -21.478  0.00  0.00     0.075 H 
ATOM     51  CB  PRO d   1     128.581  54.595 -20.286  0.00  0.00    -0.028 C 
ATOM     52  H6  PRO d   1     127.591  54.769 -22.205  0.00  0.00     0.035 H 
ATOM     53  H7  PRO d   1     126.995  55.911 -20.954  0.00  0.00     0.035 H 
ATOM     54  H4  PRO d   1     129.504  54.931 -20.782  0.00  0.00     0.036 H 
ATOM     55  H5  PRO d   1     128.503  55.070 -19.297  0.00  0.00     0.036 H 
ATOM     56  H3  PRO d   1     129.221  52.621 -20.905  0.00  0.00     0.099 H 
ENDBRANCH  40  43
ENDBRANCH  37  39
BRANCH  37  57
ATOM     57  CB  GLU d   1     131.153  50.316 -17.391  0.00  0.00    -0.029 C 
ATOM     58  H12 GLU d   1     131.923  50.292 -18.176  0.00  0.00     0.037 H 
ATOM     59  H13 GLU d   1     130.328  49.642 -17.666  0.00  0.00     0.037 H 
BRANCH  57  60
ATOM     60  CG  GLU d   1     131.768  49.820 -16.100  0.00  0.00     0.018 C 
ATOM     61  H14 GLU d   1     131.022  49.908 -15.297  0.00  0.00     0.049 H 
ATOM     62  H15 GLU d   1     132.640  50.446 -15.861  0.00  0.00     0.049 H 
BRANCH  60  63
ATOM     63  CD  GLU d   1     132.215  48.380 -16.190  0.00  0.00     0.172 C 
ATOM     64  OE1 GLU d   1     132.785  47.866 -15.205  0.00  0.00    -0.648 OA
ATOM     65  OE2 GLU d   1     131.995  47.756 -17.249  0.00  0.00    -0.648 OA
ENDBRANCH  60  63
ENDBRANCH  57  60
ENDBRANCH  37  57
ENDBRANCH  34  37
ENDBRANCH  31  33
BRANCH  31  66
ATOM     66  CB  VAL d   1     131.812  54.258 -13.309  0.00  0.00    -0.033 C 
ATOM     67  H18 VAL d   1     131.324  53.447 -12.749  0.00  0.00     0.042 H 
BRANCH  66  68
ATOM     68  CG1 VAL d   1     132.912  54.877 -12.441  0.00  0.00    -0.071 C 
ATOM     69  H19 VAL d   1     132.467  55.288 -11.523  0.00  0.00     0.028 H 
ATOM     70  H20 VAL d   1     133.410  55.684 -12.999  0.00  0.00     0.028 H 
ATOM     71  H21 VAL d   1     133.649  54.105 -12.177  0.00  0.00     0.028 H 
ENDBRANCH  66  68
BRANCH  66  72
ATOM     72  CG2 VAL d   1     130.769  55.325 -13.659  0.00  0.00    -0.071 C 
ATOM     73  H22 VAL d   1     129.981  54.877 -14.282  0.00  0.00     0.028 H 
ATOM     74  H23 VAL d   1     131.253  56.143 -14.212  0.00  0.00     0.028 H 
ATOM     75  H24 VAL d   1     130.324  55.721 -12.734  0.00  0.00     0.028 H 
ENDBRANCH  66  72
ENDBRANCH  31  66
ENDBRANCH  28  31
ENDBRANCH  25  27
BRANCH  25  76
ATOM     76  CB  ILE d   1     136.752  51.833 -15.491  0.00  0.00    -0.030 C 
ATOM     77  H27 ILE d   1     137.197  52.809 -15.732  0.00  0.00     0.043 H 
BRANCH  76  78
ATOM     78  CG1 ILE d   1     135.928  51.357 -16.692  0.00  0.00    -0.063 C 
ATOM     79  H28 ILE d   1     135.093  52.058 -16.838  0.00  0.00     0.033 H 
ATOM     80  H29 ILE d   1     135.531  50.357 -16.464  0.00  0.00     0.033 H 
BRANCH  78  81
ATOM     81  CD1 ILE d   1     136.718  51.274 -17.994  0.00  0.00    -0.076 C 
ATOM     82  H33 ILE d   1     136.058  50.926 -18.802  0.00  0.00     0.027 H 
ATOM     83  H34 ILE d   1     137.552  50.567 -17.872  0.00  0.00     0.027 H 
ATOM     84  H35 ILE d   1     137.114  52.269 -18.247  0.00  0.00     0.027 H 
ENDBRANCH  78  81
ENDBRANCH  76  78
BRANCH  76  85
ATOM     85  CG2 ILE d   1     137.872  50.848 -15.185  0.00  0.00    -0.071 C 
ATOM     86  H30 ILE d   1     138.451  51.207 -14.321  0.00  0.00     0.028 H 
ATOM     87  H31 ILE d   1     138.534  50.762 -16.059  0.00  0.00     0.028 H 
ATOM     88  H32 ILE d   1     137.441  49.863 -14.953  0.00  0.00     0.028 H 
ENDBRANCH  76  85
ENDBRANCH  25  76
ENDBRANCH  13  25
ENDBRANCH   8  11
ENDBRANCH   5   7
BRANCH   5  89
ATOM     89  CB  MET d   1     142.305  53.463  -9.863  0.00  0.00    -0.030 C 
ATOM     90  H45 MET d   1     143.326  53.172  -9.576  0.00  0.00     0.037 H 
ATOM     91  H46 MET d   1     141.770  53.843  -8.980  0.00  0.00     0.037 H 
BRANCH  89  92
ATOM     92  CG  MET d   1     142.402  54.582 -10.872  0.00  0.00    -0.021 C 
ATOM     93  H47 MET d   1     142.770  55.490 -10.372  0.00  0.00     0.049 H 
ATOM     94  H48 MET d   1     141.405  54.775 -11.296  0.00  0.00     0.049 H 
BRANCH  92  95
ATOM     95  SD  MET d   1     143.523  54.140 -12.185  0.00  0.00    -0.173 SA
BRANCH  95  96
ATOM     96  CE  MET d   1     145.046  54.791 -11.538  0.00  0.00    -0.035 C 
ATOM     97  H49 MET d   1     145.861  54.594 -12.250  0.00  0.00     0.041 H 
ATOM     98  H50 MET d   1     145.274  54.306 -10.578  0.00  0.00     0.041 H 
ATOM     99  H51 MET d   1     144.946  55.876 -11.386  0.00  0.00     0.041 H 
ENDBRANCH  95  96
ENDBRANCH  92  95
ENDBRANCH  89  92
ENDBRANCH   5  89
ENDBRANCH   1   5
BRANCH   3 100
ATOM    100  CA  PHE d   1     142.784  49.116  -8.482  0.00  0.00     0.093 C 
ATOM    101  H53 PHE d   1     141.843  49.060  -7.915  0.00  0.00     0.088 H 
BRANCH 100 102
ATOM    102  C   PHE d   1     143.904  49.397  -7.480  0.00  0.00     0.241 C 
ATOM    103  O   PHE d   1     144.967  49.899  -7.837  0.00  0.00    -0.271 OA
ATOM    104  N   SER d   1     143.639  49.069  -6.219  0.00  0.00    -0.344 N 
ATOM    105  H61 SER d   1     142.754  48.652  -6.012  0.00  0.00     0.163 HD
BRANCH 104 106
ATOM    106  CA  SER d   1     144.577  49.288  -5.122  0.00  0.00     0.109 C 
ATOM    107  H62 SER d   1     144.760  50.371  -5.058  0.00  0.00     0.090 H 
BRANCH 106 108
ATOM    108  C   SER d   1     145.918  48.597  -5.276  0.00  0.00     0.243 C 
ATOM    109  O   SER d   1     145.988  47.429  -5.656  0.00  0.00    -0.271 OA
ATOM    110  N   ALA d   1     146.983  49.326  -4.958  0.00  0.00    -0.346 N 
ATOM    111  H66 ALA d   1     146.856  50.279  -4.683  0.00  0.00     0.163 HD
BRANCH 110 112
ATOM    112  CA  ALA d   1     148.334  48.772  -5.000  0.00  0.00     0.086 C 
ATOM    113  H67 ALA d   1     148.393  47.957  -5.736  0.00  0.00     0.086 H 
BRANCH 112 114
ATOM    114  C   ALA d   1     148.609  48.244  -3.590  0.00  0.00     0.240 C 
ATOM    115  O   ALA d   1     148.351  48.935  -2.602  0.00  0.00    -0.271 OA
ATOM    116  N   LEU d   1     149.124  47.023  -3.502  0.00  0.00    -0.346 N 
ATOM    117  H71 LEU d   1     149.302  46.510  -4.342  0.00  0.00     0.163 HD
BRANCH 116 118
ATOM    118  CA  LEU d   1     149.438  46.406  -2.215  0.00  0.00     0.089 C 
ATOM    119  H72 LEU d   1     148.719  46.767  -1.464  0.00  0.00     0.087 H 
BRANCH 118 120
ATOM    120  C   LEU d   1     150.854  46.772  -1.757  0.00  0.00     0.241 C 
ATOM    121  O   LEU d   1     151.799  46.748  -2.555  0.00  0.00    -0.271 OA
ATOM    122  N   SER d   1     150.995  47.127  -0.479  0.00  0.00    -0.344 N 
ATOM    123  H82 SER d   1     150.188  47.167   0.110  0.00  0.00     0.163 HD
BRANCH 122 124
ATOM    124  CA  SER d   1     152.305  47.459   0.078  0.00  0.00     0.109 C 
ATOM    125  H83 SER d   1     152.836  48.153  -0.590  0.00  0.00     0.090 H 
BRANCH 124 126
ATOM    126  C   SER d   1     153.067  46.146   0.208  0.00  0.00     0.243 C 
ATOM    127  O   SER d   1     152.462  45.073   0.277  0.00  0.00    -0.271 OA
ATOM    128  N   GLU d   1     154.391  46.224   0.248  0.00  0.00    -0.346 N 
ATOM    129  H87 GLU d   1     154.840  47.115   0.181  0.00  0.00     0.163 HD
BRANCH 128 130
ATOM    130  CA  GLU d   1     155.194  45.014   0.389  0.00  0.00     0.090 C 
ATOM    131  H88 GLU d   1     154.812  44.236  -0.289  0.00  0.00     0.087 H 
BRANCH 130 132
ATOM    132  C   GLU d   1     155.069  44.538   1.835  0.00  0.00     0.240 C 
ATOM    133  O   GLU d   1     155.288  45.312   2.772  0.00  0.00    -0.271 OA
ATOM    134  N   GLY d   1     154.690  43.275   2.002  0.00  0.00    -0.349 N 
ATOM    135  H93 GLY d   1     154.514  42.708   1.198  0.00  0.00     0.163 HD
BRANCH 134 136
ATOM    136  CA  GLY d   1     154.526  42.700   3.326  0.00  0.00     0.075 C 
ATOM    137  H94 GLY d   1     154.499  41.605   3.224  0.00  0.00     0.080 H 
ATOM    138  H95 GLY d   1     153.569  43.054   3.738  0.00  0.00     0.080 H 
BRANCH 136 139
ATOM    139  C   GLY d   1     155.626  43.056   4.311  0.00  0.00     0.191 C 
ATOM    140  O   GLY d   1     156.507  42.202   4.547  0.00  0.00    -0.647 OA
ATOM    141  OXT GLY d   1     155.616  44.185   4.846  0.00  0.00    -0.647 OA
ENDBRANCH 136 139
ENDBRANCH 134 136
ENDBRANCH 130 132
BRANCH 130 142
ATOM    142  CB  GLU d   1     156.658  45.306   0.042  0.00  0.00    -0.029 C 
ATOM    143  H89 GLU d   1     157.055  46.007   0.791  0.00  0.00     0.037 H 
ATOM    144  H90 GLU d   1     156.688  45.776  -0.952  0.00  0.00     0.037 H 
BRANCH 142 145
ATOM    145  CG  GLU d   1     157.558  44.083   0.014  0.00  0.00     0.018 C 
ATOM    146  H91 GLU d   1     157.018  43.258  -0.474  0.00  0.00     0.049 H 
ATOM    147  H92 GLU d   1     157.802  43.800   1.049  0.00  0.00     0.049 H 
BRANCH 145 148
ATOM    148  CD  GLU d   1     158.853  44.332  -0.741  0.00  0.00     0.172 C 
ATOM    149  OE1 GLU d   1     159.537  45.331  -0.440  0.00  0.00    -0.648 OA
ATOM    150  OE2 GLU d   1     159.189  43.526  -1.635  0.00  0.00    -0.648 OA
ENDBRANCH 145 148
ENDBRANCH 142 145
ENDBRANCH 130 142
ENDBRANCH 128 130
ENDBRANCH 124 126
BRANCH 124 151
ATOM    151  CB  SER d   1     152.176  48.078   1.472  0.00  0.00     0.044 C 
ATOM    152  H84 SER d   1     153.175  48.370   1.826  0.00  0.00     0.077 H 
ATOM    153  H85 SER d   1     151.748  47.330   2.156  0.00  0.00     0.077 H 
BRANCH 151 154
ATOM    154  OG  SER d   1     151.342  49.219   1.461  0.00  0.00    -0.398 OA
ATOM    155  H86 SER d   1     150.475  48.973   1.161  0.00  0.00     0.209 HD
ENDBRANCH 151 154
ENDBRANCH 124 151
ENDBRANCH 122 124
ENDBRANCH 118 120
BRANCH 118 156
ATOM    156  CB  LEU d   1     149.314  44.885  -2.336  0.00  0.00    -0.035 C 
ATOM    157  H73 LEU d   1     150.067  44.568  -3.073  0.00  0.00     0.037 H 
ATOM    158  H74 LEU d   1     148.307  44.684  -2.731  0.00  0.00     0.037 H 
BRANCH 156 159
ATOM    159  CG  LEU d   1     149.491  43.975  -1.115  0.00  0.00    -0.059 C 
ATOM    160  H75 LEU d   1     150.510  44.094  -0.717  0.00  0.00     0.038 H 
BRANCH 159 161
ATOM    161  CD1 LEU d   1     148.487  44.318  -0.017  0.00  0.00    -0.073 C 
ATOM    162  H76 LEU d   1     148.641  43.649   0.842  0.00  0.00     0.028 H 
ATOM    163  H77 LEU d   1     147.465  44.191  -0.402  0.00  0.00     0.028 H 
ATOM    164  H78 LEU d   1     148.633  45.361   0.300  0.00  0.00     0.028 H 
ENDBRANCH 159 161
BRANCH 159 165
ATOM    165  CD2 LEU d   1     149.284  42.532  -1.572  0.00  0.00    -0.073 C 
ATOM    166  H79 LEU d   1     150.010  42.290  -2.363  0.00  0.00     0.028 H 
ATOM    167  H80 LEU d   1     148.263  42.414  -1.963  0.00  0.00     0.028 H 
ATOM    168  H81 LEU d   1     149.431  41.853  -0.719  0.00  0.00     0.028 H 
ENDBRANCH 159 165
ENDBRANCH 156 159
ENDBRANCH 118 156
ENDBRANCH 116 118
ENDBRANCH 112 114
BRANCH 112 169
ATOM    169  CB  ALA d   1     149.352  49.866  -5.359  0.00  0.00    -0.049 C 
ATOM    170  H68 ALA d   1     150.362  49.432  -5.386  0.00  0.00     0.030 H 
ATOM    171  H69 ALA d   1     149.316  50.663  -4.602  0.00  0.00     0.030 H 
ATOM    172  H70 ALA d   1     149.107  50.286  -6.346  0.00  0.00     0.030 H 
ENDBRANCH 112 169
ENDBRANCH 110 112
ENDBRANCH 106 108
BRANCH 106 173
ATOM    173  CB  SER d   1     143.965  48.811  -3.805  0.00  0.00     0.044 C 
ATOM    174  H63 SER d   1     144.638  49.086  -2.980  0.00  0.00     0.077 H 
ATOM    175  H64 SER d   1     143.856  47.717  -3.840  0.00  0.00     0.077 H 
BRANCH 173 176
ATOM    176  OG  SER d   1     142.702  49.387  -3.572  0.00  0.00    -0.398 OA
ATOM    177  H65 SER d   1     142.356  49.067  -2.747  0.00  0.00     0.209 HD
ENDBRANCH 173 176
ENDBRANCH 106 173
ENDBRANCH 104 106
ENDBRANCH 100 102
BRANCH 100 178
ATOM    178  CB  PHE d   1     142.997  47.762  -9.172  0.00  0.00    -0.014 C 
ATOM    179  H54 PHE d   1     143.207  47.007  -8.400  0.00  0.00     0.043 H 
ATOM    180  H55 PHE d   1     143.862  47.847  -9.846  0.00  0.00     0.043 H 
BRANCH 178 181
ATOM    181  CG  PHE d   1     141.806  47.301  -9.980  0.00  0.00    -0.056 A 
ATOM    182  CD1 PHE d   1     140.603  46.967  -9.346  0.00  0.00    -0.077 A 
ATOM    183  CE1 PHE d   1     139.488  46.551 -10.082  0.00  0.00    -0.082 A 
ATOM    184  H56 PHE d   1     140.534  47.032  -8.266  0.00  0.00     0.084 H 
ATOM    185  CZ  PHE d   1     139.569  46.468 -11.479  0.00  0.00    -0.083 A 
ATOM    186  H58 PHE d   1     138.565  46.294  -9.574  0.00  0.00     0.083 H 
ATOM    187  CE2 PHE d   1     140.771  46.802 -12.126  0.00  0.00    -0.082 A 
ATOM    188  H60 PHE d   1     138.709  46.148 -12.057  0.00  0.00     0.083 H 
ATOM    189  CD2 PHE d   1     141.878  47.214 -11.375  0.00  0.00    -0.077 A 
ATOM    190  H59 PHE d   1     140.841  46.741 -13.206  0.00  0.00     0.083 H 
ATOM    191  H57 PHE d   1     142.803  47.469 -11.880  0.00  0.00     0.084 H 
ENDBRANCH 178 181
ENDBRANCH 100 178
ENDBRANCH   3 100
TORSDOF 52
