REMARK  8 active torsions:
REMARK  status: ('A' for Active; 'I' for Inactive)
REMARK    1  A    between atoms: C_53  and  CH3_55 
REMARK       I    between atoms: N_56  and  C_53 
REMARK    2  A    between atoms: CA_57  and  N_56 
REMARK    3  A    between atoms: CA_63  and  CB_66 
REMARK    4  A    between atoms: CB_66  and  CG_67 
REMARK    5  A    between atoms: CA_80  and  CB_83 
REMARK    6  A    between atoms: CB_83  and  CG_84 
REMARK    7  A    between atoms: CG_84  and  CD_85 
REMARK       I    between atoms: CD_85  and  NE2_87 
REMARK    8  A    between atoms: C_108  and  CA_107 
REMARK       I    between atoms: C_108  and  N_112 
ROOT
ATOM      1  H5  CYS d   1      18.928  -1.018  21.149  0.00  0.00     0.088 H 
ATOM      2  H6  CYS d   1      16.918   0.259  21.759  0.00  0.00     0.053 H 
ATOM      3  H7  CYS d   1      17.766   0.951  23.184  0.00  0.00     0.053 H 
ATOM      4  H47 CYS d   1      12.553   0.396  22.535  0.00  0.00     0.163 HD
ATOM      5  H48 CYS d   1      13.054  -2.244  21.232  0.00  0.00     0.088 H 
ATOM      6  H49 CYS d   1      14.910  -0.418  22.786  0.00  0.00     0.053 H 
ATOM      7  H50 CYS d   1      14.902  -0.695  21.011  0.00  0.00     0.053 H 
ATOM      8  CA  CYS d   1      19.016  -0.180  21.856  0.00  0.00     0.098 C 
ATOM      9  C   CYS d   1      19.496   1.071  21.132  0.00  0.00     0.242 C 
ATOM     10  O   CYS d   1      19.247   2.183  21.603  0.00  0.00    -0.271 OA
ATOM     11  CB  CYS d   1      17.677   0.069  22.532  0.00  0.00     0.013 C 
ATOM     12  SG  CYS d   1      17.153  -1.349  23.532  0.00  0.00    -0.095 SA
ATOM     13  N   CYS d   1      12.557  -0.321  21.838  0.00  0.00    -0.345 N 
ATOM     14  CA  CYS d   1      13.271  -1.556  22.062  0.00  0.00     0.098 C 
ATOM     15  CB  CYS d   1      14.752  -1.165  21.994  0.00  0.00     0.013 C 
ATOM     16  SG  CYS d   1      16.080  -2.393  22.179  0.00  0.00    -0.095 SA
ATOM     17  H8  HIS d   1      20.349  -0.011  19.646  0.00  0.00     0.163 HD
ATOM     18  H9  HIS d   1      21.540   2.510  19.904  0.00  0.00     0.088 H 
ATOM     19  N   HIS d   1      20.202   0.912  20.002  0.00  0.00    -0.346 N 
ATOM     20  CA  HIS d   1      20.761   2.048  19.280  0.00  0.00     0.094 C 
ATOM     21  C   HIS d   1      19.706   3.108  18.969  0.00  0.00     0.243 C 
ATOM     22  O   HIS d   1      18.617   2.748  18.505  0.00  0.00    -0.271 OA
ATOM     23  H15 PRO d   1      18.010   5.193  19.538  0.00  0.00     0.087 H 
ATOM     24  H16 PRO d   1      19.193   6.922  20.444  0.00  0.00     0.036 H 
ATOM     25  H17 PRO d   1      19.280   7.551  18.764  0.00  0.00     0.036 H 
ATOM     26  H18 PRO d   1      21.530   7.076  20.080  0.00  0.00     0.035 H 
ATOM     27  H19 PRO d   1      21.388   6.545  18.370  0.00  0.00     0.035 H 
ATOM     28  H20 PRO d   1      21.047   4.899  20.915  0.00  0.00     0.064 H 
ATOM     29  H21 PRO d   1      22.018   4.524  19.451  0.00  0.00     0.064 H 
ATOM     30  H33 PRO d   1      12.165   2.031  16.312  0.00  0.00     0.087 H 
ATOM     31  H34 PRO d   1      11.667   0.001  15.213  0.00  0.00     0.036 H 
ATOM     32  H35 PRO d   1      11.153  -0.399  16.887  0.00  0.00     0.036 H 
ATOM     33  H36 PRO d   1      12.897  -2.037  15.757  0.00  0.00     0.035 H 
ATOM     34  H37 PRO d   1      13.316  -1.425  17.393  0.00  0.00     0.035 H 
ATOM     35  H38 PRO d   1      14.257  -0.404  14.661  0.00  0.00     0.064 H 
ATOM     36  H39 PRO d   1      15.229  -0.705  16.141  0.00  0.00     0.064 H 
ATOM     37  H40 PRO d   1      11.800   1.980  21.013  0.00  0.00     0.087 H 
ATOM     38  H41 PRO d   1       9.574   1.591  21.640  0.00  0.00     0.036 H 
ATOM     39  H42 PRO d   1       9.348   0.292  20.420  0.00  0.00     0.036 H 
ATOM     40  H43 PRO d   1       9.578   3.318  19.958  0.00  0.00     0.035 H 
ATOM     41  H44 PRO d   1       8.293   2.200  19.387  0.00  0.00     0.035 H 
ATOM     42  H45 PRO d   1      10.344   2.848  17.737  0.00  0.00     0.064 H 
ATOM     43  H46 PRO d   1       9.742   1.156  17.788  0.00  0.00     0.064 H 
ATOM     44  N   PRO d   1      19.913   4.414  19.185  0.00  0.00    -0.337 N 
ATOM     45  CA  PRO d   1      18.880   5.422  18.905  0.00  0.00     0.091 C 
ATOM     46  C   PRO d   1      18.329   5.515  17.472  0.00  0.00     0.241 C 
ATOM     47  O   PRO d   1      17.328   6.199  17.264  0.00  0.00    -0.271 OA
ATOM     48  CB  PRO d   1      19.525   6.702  19.418  0.00  0.00    -0.036 C 
ATOM     49  CG  PRO d   1      20.988   6.416  19.386  0.00  0.00    -0.048 C 
ATOM     50  CD  PRO d   1      21.093   4.991  19.820  0.00  0.00    -0.001 C 
ATOM     51  N   PRO d   1      14.014   1.034  16.203  0.00  0.00    -0.337 N 
ATOM     52  CA  PRO d   1      12.666   1.160  16.760  0.00  0.00     0.092 C 
ATOM     53  C   PRO d   1      12.622   1.357  18.290  0.00  0.00     0.243 C 
ATOM     54  O   PRO d   1      13.671   1.354  18.939  0.00  0.00    -0.271 OA
ATOM     55  CB  PRO d   1      12.006  -0.116  16.253  0.00  0.00    -0.036 C 
ATOM     56  CG  PRO d   1      13.117  -1.137  16.350  0.00  0.00    -0.048 C 
ATOM     57  CD  PRO d   1      14.264  -0.341  15.759  0.00  0.00    -0.001 C 
ATOM     58  N   PRO d   1      11.470   1.530  18.962  0.00  0.00    -0.337 N 
ATOM     59  CA  PRO d   1      11.301   1.223  20.390  0.00  0.00     0.091 C 
ATOM     60  C   PRO d   1      11.904  -0.150  20.691  0.00  0.00     0.241 C 
ATOM     61  O   PRO d   1      11.765  -1.081  19.882  0.00  0.00    -0.271 OA
ATOM     62  CB  PRO d   1       9.812   1.270  20.615  0.00  0.00    -0.036 C 
ATOM     63  CG  PRO d   1       9.367   2.298  19.603  0.00  0.00    -0.048 C 
ATOM     64  CD  PRO d   1      10.204   1.963  18.376  0.00  0.00    -0.001 C 
ATOM     65  H22 GLN d   1      19.756   4.396  16.550  0.00  0.00     0.163 HD
ATOM     66  H23 GLN d   1      17.862   5.948  14.944  0.00  0.00     0.087 H 
ATOM     67  N   GLN d   1      18.904   4.902  16.415  0.00  0.00    -0.346 N 
ATOM     68  CA  GLN d   1      18.319   4.958  15.089  0.00  0.00     0.090 C 
ATOM     69  C   GLN d   1      17.228   3.891  14.915  0.00  0.00     0.240 C 
ATOM     70  O   GLN d   1      16.312   4.077  14.119  0.00  0.00    -0.271 OA
ATOM     71  H30 GLY d   1      17.945   2.719  16.385  0.00  0.00     0.163 HD
ATOM     72  H31 GLY d   1      16.124   1.577  14.433  0.00  0.00     0.078 H 
ATOM     73  H32 GLY d   1      16.678   0.830  15.969  0.00  0.00     0.078 H 
ATOM     74  N   GLY d   1      17.244   2.806  15.677  0.00  0.00    -0.351 N 
ATOM     75  CA  GLY d   1      16.272   1.743  15.510  0.00  0.00     0.069 C 
ATOM     76  C   GLY d   1      14.917   2.032  16.139  0.00  0.00     0.238 C 
ATOM     77  O   GLY d   1      14.645   3.167  16.557  0.00  0.00    -0.272 OA
ENDROOT
BRANCH  20  78
ATOM     78  CB  HIS d   1      21.396   1.544  17.991  0.00  0.00     0.002 C 
ATOM     79  H10 HIS d   1      20.603   1.168  17.328  0.00  0.00     0.046 H 
ATOM     80  H11 HIS d   1      22.090   0.726  18.234  0.00  0.00     0.046 H 
BRANCH  78  81
ATOM     81  CG  HIS d   1      22.168   2.645  17.261  0.00  0.00     0.030 A 
ATOM     82  CD2 HIS d   1      23.505   2.912  17.413  0.00  0.00     0.025 A 
ATOM     83  H13 HIS d   1      24.257   2.356  17.971  0.00  0.00     0.117 H 
ATOM     84  NE2 HIS d   1      23.641   4.010  16.713  0.00  0.00    -0.254 NA
ATOM     85  CE1 HIS d   1      22.497   4.376  16.172  0.00  0.00     0.063 A 
ATOM     86  H14 HIS d   1      22.363   5.254  15.542  0.00  0.00     0.143 H 
ATOM     87  ND1 HIS d   1      21.537   3.534  16.498  0.00  0.00    -0.353 N 
ATOM     88  H12 HIS d   1      20.543   3.558  16.229  0.00  0.00     0.166 HD
ENDBRANCH  78  81
ENDBRANCH  20  78
BRANCH   8  89
ATOM     89  N   CYS d   1      19.997  -0.472  22.876  0.00  0.00    -0.347 N 
ATOM     90  H4  CYS d   1      20.458   0.287  23.335  0.00  0.00     0.163 HD
ATOM     91  C   ACE d   1      20.305  -1.712  23.222  0.00  0.00     0.214 C 
ATOM     92  O   ACE d   1      21.095  -1.861  24.152  0.00  0.00    -0.274 OA
BRANCH  91  93
ATOM     93  CH3 ACE d   1      19.786  -2.994  22.572  0.00  0.00    -0.003 C 
ATOM     94  H1  ACE d   1      19.092  -2.737  21.758  0.00  0.00     0.040 H 
ATOM     95  H2  ACE d   1      19.261  -3.600  23.325  0.00  0.00     0.040 H 
ATOM     96  H3  ACE d   1      20.632  -3.567  22.165  0.00  0.00     0.040 H 
ENDBRANCH  91  93
ENDBRANCH   8  89
BRANCH  68  97
ATOM     97  CB  GLN d   1      19.426   4.770  14.065  0.00  0.00    -0.030 C 
ATOM     98  H24 GLN d   1      19.790   3.734  14.134  0.00  0.00     0.037 H 
ATOM     99  H25 GLN d   1      20.245   5.463  14.308  0.00  0.00     0.037 H 
BRANCH  97 100
ATOM    100  CG  GLN d   1      18.986   5.031  12.628  0.00  0.00     0.011 C 
ATOM    101  H26 GLN d   1      18.629   6.069  12.556  0.00  0.00     0.047 H 
ATOM    102  H27 GLN d   1      18.163   4.342  12.385  0.00  0.00     0.047 H 
BRANCH 100 103
ATOM    103  CD  GLN d   1      20.099   4.832  11.609  0.00  0.00     0.215 C 
ATOM    104  OE1 GLN d   1      21.295   5.030  11.862  0.00  0.00    -0.274 OA
ATOM    105  NE2 GLN d   1      19.741   4.449  10.404  0.00  0.00    -0.370 N 
ATOM    106  H28 GLN d   1      20.435   4.304   9.698  0.00  0.00     0.159 HD
ATOM    107  H29 GLN d   1      18.775   4.302  10.193  0.00  0.00     0.159 HD
ENDBRANCH 100 103
ENDBRANCH  97 100
ENDBRANCH  68  97
BRANCH  14 108
ATOM    108  C   CYS d   1      12.863  -2.270  23.344  0.00  0.00     0.239 C 
ATOM    109  O   CYS d   1      12.706  -1.709  24.434  0.00  0.00    -0.271 OA
ATOM    110  N   NH2 d   1      12.637  -3.566  23.142  0.00  0.00    -0.368 N 
ATOM    111  H51 NH2 d   1      12.361  -4.150  23.905  0.00  0.00     0.159 HD
ATOM    112  H52 NH2 d   1      12.743  -3.955  22.227  0.00  0.00     0.159 HD
ENDBRANCH  14 108
TORSDOF 8
