REMARK  27 active torsions:
REMARK  status: ('A' for Active; 'I' for Inactive)
REMARK    1  A    between atoms: CA_2  and  N_1 
REMARK    2  A    between atoms: C_3  and  CA_2 
REMARK    3  A    between atoms: CA_2  and  CB_5 
REMARK       I    between atoms: N_12  and  C_3 
REMARK    4  A    between atoms: CB_5  and  CG_6 
REMARK    5  A    between atoms: CA_13  and  N_12 
REMARK    6  A    between atoms: C_14  and  CA_13 
REMARK    7  A    between atoms: CA_13  and  CB_16 
REMARK       I    between atoms: N_18  and  C_14 
REMARK    8  A    between atoms: CB_16  and  OG_17 
REMARK    9  A    between atoms: CA_19  and  N_18 
REMARK   10  A    between atoms: C_20  and  CA_19 
REMARK   11  A    between atoms: CA_19  and  CB_22 
REMARK       I    between atoms: N_28  and  C_20 
REMARK   12  A    between atoms: CB_22  and  CG_23 
REMARK   13  A    between atoms: C_30  and  CA_29 
REMARK       I    between atoms: N_35  and  C_30 
REMARK   14  A    between atoms: CA_36  and  N_35 
REMARK   15  A    between atoms: C_37  and  CA_36 
REMARK   16  A    between atoms: CA_36  and  CB_39 
REMARK       I    between atoms: N_44  and  C_37 
REMARK   17  A    between atoms: CB_39  and  CG_40 
REMARK   18  A    between atoms: CG_40  and  CD_41 
REMARK       I    between atoms: CD_41  and  NE2_43 
REMARK   19  A    between atoms: CA_45  and  N_44 
REMARK   20  A    between atoms: C_46  and  CA_45 
REMARK   21  A    between atoms: CA_45  and  CB_48 
REMARK       I    between atoms: C_46  and  N_52 
REMARK   22  A    between atoms: CB_48  and  CG_49 
REMARK       I    between atoms: CG_49  and  ND2_51 
REMARK   23  A    between atoms: N_52  and  CA_53 
REMARK   24  A    between atoms: CA_53  and  C_54 
REMARK   25  A    between atoms: CA_53  and  CB_56 
REMARK   26  A    between atoms: CB_56  and  OG1_57 
REMARK   27  A    between atoms: CB_56  and  CG2_58 
ROOT
ATOM      1  C   HIS d   1      19.968   2.680  18.507  0.00  0.00     0.243 C 
ATOM      2  O   HIS d   1      18.804   2.232  18.408  0.00  0.00    -0.271 OA
ATOM      3  N   PRO d   1      20.217   4.032  18.651  0.00  0.00    -0.337 N 
ATOM      4  CA  PRO d   1      19.196   5.070  18.658  0.00  0.00     0.091 C 
ATOM      5  CB  PRO d   1      19.897   6.347  19.056  0.00  0.00    -0.036 C 
ATOM      6  CG  PRO d   1      21.143   5.912  19.734  0.00  0.00    -0.048 C 
ATOM      7  CD  PRO d   1      21.497   4.660  18.983  0.00  0.00    -0.001 C 
ATOM      8  H24 PRO d   1      18.445   4.809  19.418  0.00  0.00     0.087 H 
ATOM      9  H25 PRO d   1      19.269   6.934  19.742  0.00  0.00     0.036 H 
ATOM     10  H26 PRO d   1      20.132   6.951  18.167  0.00  0.00     0.036 H 
ATOM     11  H27 PRO d   1      20.964   5.701  20.799  0.00  0.00     0.035 H 
ATOM     12  H28 PRO d   1      21.934   6.670  19.639  0.00  0.00     0.035 H 
ATOM     13  H29 PRO d   1      22.102   3.991  19.613  0.00  0.00     0.064 H 
ATOM     14  H30 PRO d   1      22.055   4.905  18.067  0.00  0.00     0.064 H 
ENDROOT
BRANCH   4  15
ATOM     15  C   PRO d   1      18.473   5.287  17.359  0.00  0.00     0.241 C 
ATOM     16  O   PRO d   1      17.401   5.865  17.388  0.00  0.00    -0.271 OA
ATOM     17  N   GLN d   1      19.026   4.864  16.202  0.00  0.00    -0.346 N 
ATOM     18  H31 GLN d   1      19.821   4.258  16.221  0.00  0.00     0.163 HD
BRANCH  17  19
ATOM     19  CA  GLN d   1      18.467   5.288  14.932  0.00  0.00     0.090 C 
ATOM     20  H32 GLN d   1      18.478   6.388  14.917  0.00  0.00     0.087 H 
BRANCH  19  21
ATOM     21  C   GLN d   1      17.023   4.859  14.680  0.00  0.00     0.241 C 
ATOM     22  O   GLN d   1      16.254   5.624  14.058  0.00  0.00    -0.271 OA
ATOM     23  N   ASN d   1      16.595   3.680  15.134  0.00  0.00    -0.346 N 
ATOM     24  H39 ASN d   1      17.224   3.065  15.610  0.00  0.00     0.163 HD
BRANCH  23  25
ATOM     25  CA  ASN d   1      15.212   3.297  14.933  0.00  0.00     0.097 C 
ATOM     26  H40 ASN d   1      14.607   4.209  14.821  0.00  0.00     0.088 H 
BRANCH  25  27
ATOM     27  C   ASN d   1      14.736   2.516  16.121  0.00  0.00     0.241 C 
ATOM     28  O   ASN d   1      15.517   1.715  16.638  0.00  0.00    -0.271 OA
ATOM     29  N   THR d   1      13.447   2.789  16.356  0.00  0.00    -0.343 N 
ATOM     30  H45 THR d   1      13.048   3.459  15.730  0.00  0.00     0.163 HD
BRANCH  29  31
ATOM     31  CA  THR d   1      12.523   2.284  17.360  0.00  0.00     0.120 C 
ATOM     32  H46 THR d   1      11.663   2.969  17.400  0.00  0.00     0.093 H 
BRANCH  31  33
ATOM     33  C   THR d   1      13.081   2.247  18.768  0.00  0.00     0.199 C 
ATOM     34  OXT THR d   1      12.897   1.282  19.515  0.00  0.00    -0.646 OA
ATOM     35  O   THR d   1      13.661   3.285  19.122  0.00  0.00    -0.646 OA
ENDBRANCH  31  33
BRANCH  31  36
ATOM     36  CB  THR d   1      12.005   0.905  16.782  0.00  0.00     0.061 C 
ATOM     37  H47 THR d   1      11.878   1.018  15.695  0.00  0.00     0.086 H 
BRANCH  36  38
ATOM     38  OG1 THR d   1      10.709   0.819  17.389  0.00  0.00    -0.393 OA
ATOM     39  H48 THR d   1      10.803   0.822  18.334  0.00  0.00     0.210 HD
ENDBRANCH  36  38
BRANCH  36  40
ATOM     40  CG2 THR d   1      12.892  -0.343  16.962  0.00  0.00    -0.050 C 
ATOM     41  H49 THR d   1      12.396  -1.214  16.509  0.00  0.00     0.031 H 
ATOM     42  H50 THR d   1      13.051  -0.528  18.035  0.00  0.00     0.031 H 
ATOM     43  H51 THR d   1      13.862  -0.177  16.471  0.00  0.00     0.031 H 
ENDBRANCH  36  40
ENDBRANCH  31  36
ENDBRANCH  29  31
ENDBRANCH  25  27
BRANCH  25  44
ATOM     44  CB  ASN d   1      15.015   2.406  13.689  0.00  0.00     0.036 C 
ATOM     45  H41 ASN d   1      14.027   1.925  13.745  0.00  0.00     0.051 H 
ATOM     46  H42 ASN d   1      15.798   1.634  13.673  0.00  0.00     0.051 H 
BRANCH  44  47
ATOM     47  CG  ASN d   1      15.097   3.220  12.414  0.00  0.00     0.217 C 
ATOM     48  OD1 ASN d   1      14.250   4.064  12.135  0.00  0.00    -0.274 OA
ATOM     49  ND2 ASN d   1      16.103   3.003  11.598  0.00  0.00    -0.370 N 
ATOM     50  H43 ASN d   1      16.181   3.527  10.750  0.00  0.00     0.159 HD
ATOM     51  H44 ASN d   1      16.791   2.314  11.825  0.00  0.00     0.159 HD
ENDBRANCH  44  47
ENDBRANCH  25  44
ENDBRANCH  23  25
ENDBRANCH  19  21
BRANCH  19  52
ATOM     52  CB  GLN d   1      19.405   4.779  13.820  0.00  0.00    -0.030 C 
ATOM     53  H33 GLN d   1      19.429   3.680  13.852  0.00  0.00     0.037 H 
ATOM     54  H34 GLN d   1      20.416   5.173  14.001  0.00  0.00     0.037 H 
BRANCH  52  55
ATOM     55  CG  GLN d   1      18.947   5.220  12.435  0.00  0.00     0.011 C 
ATOM     56  H35 GLN d   1      18.797   6.310  12.440  0.00  0.00     0.047 H 
ATOM     57  H36 GLN d   1      17.996   4.720  12.199  0.00  0.00     0.047 H 
BRANCH  55  58
ATOM     58  CD  GLN d   1      19.957   4.872  11.371  0.00  0.00     0.215 C 
ATOM     59  OE1 GLN d   1      21.157   4.965  11.608  0.00  0.00    -0.274 OA
ATOM     60  NE2 GLN d   1      19.487   4.475  10.191  0.00  0.00    -0.370 N 
ATOM     61  H37 GLN d   1      20.121   4.234   9.456  0.00  0.00     0.159 HD
ATOM     62  H38 GLN d   1      18.500   4.418  10.040  0.00  0.00     0.159 HD
ENDBRANCH  55  58
ENDBRANCH  52  55
ENDBRANCH  19  52
ENDBRANCH  17  19
ENDBRANCH   4  15
BRANCH   1  63
ATOM     63  CA  HIS d   1      21.125   1.666  18.489  0.00  0.00     0.095 C 
ATOM     64  H18 HIS d   1      21.898   1.992  19.200  0.00  0.00     0.088 H 
BRANCH  63  65
ATOM     65  CB  HIS d   1      21.758   1.429  17.110  0.00  0.00     0.004 C 
ATOM     66  H19 HIS d   1      20.979   1.057  16.428  0.00  0.00     0.046 H 
ATOM     67  H20 HIS d   1      22.547   0.669  17.215  0.00  0.00     0.046 H 
BRANCH  65  68
ATOM     68  CG  HIS d   1      22.371   2.678  16.504  0.00  0.00     0.053 A 
ATOM     69  CD2 HIS d   1      23.697   2.999  16.580  0.00  0.00     0.002 A 
ATOM     70  NE2 HIS d   1      23.682   4.212  16.060  0.00  0.00    -0.359 N 
ATOM     71  H21 HIS d   1      24.533   2.416  16.963  0.00  0.00     0.114 H 
ATOM     72  CE1 HIS d   1      22.450   4.562  15.691  0.00  0.00     0.064 A 
ATOM     73  H23 HIS d   1      24.514   4.810  15.953  0.00  0.00     0.166 HD
ATOM     74  ND1 HIS d   1      21.597   3.620  15.964  0.00  0.00    -0.247 NA
ATOM     75  H22 HIS d   1      22.192   5.511  15.223  0.00  0.00     0.143 H 
ENDBRANCH  65  68
ENDBRANCH  63  65
BRANCH  63  76
ATOM     76  N   HIS d   1      20.587   0.380  18.857  0.00  0.00    -0.346 N 
ATOM     77  C   SER d   1      21.354  -0.537  19.481  0.00  0.00     0.243 C 
ATOM     78  O   SER d   1      22.582  -0.461  19.779  0.00  0.00    -0.271 OA
ATOM     79  H17 HIS d   1      19.633   0.165  18.647  0.00  0.00     0.163 HD
BRANCH  77  80
ATOM     80  CA  SER d   1      20.623  -1.884  19.410  0.00  0.00     0.109 C 
ATOM     81  H13 SER d   1      19.714  -1.815  18.795  0.00  0.00     0.090 H 
BRANCH  80  82
ATOM     82  CB  SER d   1      20.198  -2.384  20.893  0.00  0.00     0.044 C 
ATOM     83  H14 SER d   1      19.331  -1.813  21.256  0.00  0.00     0.077 H 
ATOM     84  H15 SER d   1      21.037  -2.262  21.594  0.00  0.00     0.077 H 
BRANCH  82  85
ATOM     85  OG  SER d   1      19.846  -3.830  20.750  0.00  0.00    -0.398 OA
ATOM     86  H16 SER d   1      20.601  -4.308  20.428  0.00  0.00     0.209 HD
ENDBRANCH  82  85
ENDBRANCH  80  82
BRANCH  80  87
ATOM     87  N   SER d   1      21.664  -2.717  18.712  0.00  0.00    -0.344 N 
ATOM     88  C   PHE d   1      22.720  -3.331  19.310  0.00  0.00     0.249 C 
ATOM     89  O   PHE d   1      22.873  -3.470  20.538  0.00  0.00    -0.271 OA
ATOM     90  H12 SER d   1      21.571  -2.829  17.723  0.00  0.00     0.163 HD
BRANCH  88  91
ATOM     91  CA  PHE d   1      23.754  -4.107  18.517  0.00  0.00     0.179 C 
ATOM     92  H4  PHE d   1      24.786  -3.876  18.820  0.00  0.00     0.099 H 
BRANCH  91  93
ATOM     93  CB  PHE d   1      23.596  -3.915  17.009  0.00  0.00    -0.006 C 
ATOM     94  H5  PHE d   1      22.527  -3.792  16.781  0.00  0.00     0.043 H 
ATOM     95  H6  PHE d   1      23.979  -4.811  16.499  0.00  0.00     0.043 H 
BRANCH  93  96
ATOM     96  CG  PHE d   1      24.350  -2.695  16.484  0.00  0.00    -0.056 A 
ATOM     97  CD2 PHE d   1      23.738  -1.818  15.580  0.00  0.00    -0.077 A 
ATOM     98  CE2 PHE d   1      24.455  -0.731  15.079  0.00  0.00    -0.082 A 
ATOM     99  H8  PHE d   1      22.712  -1.983  15.271  0.00  0.00     0.084 H 
ATOM    100  CZ  PHE d   1      25.776  -0.510  15.466  0.00  0.00    -0.083 A 
ATOM    101  H10 PHE d   1      23.980  -0.051  14.381  0.00  0.00     0.083 H 
ATOM    102  CE1 PHE d   1      26.389  -1.388  16.363  0.00  0.00    -0.082 A 
ATOM    103  H11 PHE d   1      26.324   0.339  15.073  0.00  0.00     0.083 H 
ATOM    104  CD1 PHE d   1      25.681  -2.482  16.876  0.00  0.00    -0.077 A 
ATOM    105  H9  PHE d   1      27.417  -1.222  16.663  0.00  0.00     0.083 H 
ATOM    106  H7  PHE d   1      26.159  -3.161  17.573  0.00  0.00     0.084 H 
ENDBRANCH  93  96
ENDBRANCH  91  93
BRANCH  91 107
ATOM    107  N   PHE d   1      23.325  -5.426  18.927  0.00  0.00    -0.066 N 
ATOM    108  H1  PHE d   1      23.911  -6.121  18.490  0.00  0.00     0.275 HD
ATOM    109  H2  PHE d   1      22.367  -5.570  18.647  0.00  0.00     0.275 HD
ATOM    110  H3  PHE d   1      23.398  -5.507  19.929  0.00  0.00     0.275 HD
ENDBRANCH  91 107
ENDBRANCH  88  91
ENDBRANCH  80  87
ENDBRANCH  77  80
ENDBRANCH  63  76
ENDBRANCH   1  63
TORSDOF 27
