REMARK  10 active torsions:
REMARK  status: ('A' for Active; 'I' for Inactive)
REMARK    1  A    between atoms: N6_6  and  C24_24 
REMARK    2  A    between atoms: C7_7  and  C8_8 
REMARK    3  A    between atoms: N9_9  and  C28_28 
REMARK    4  A    between atoms: C16_16  and  C17_17 
REMARK    5  A    between atoms: C21_21  and  C22_22 
REMARK    6  A    between atoms: C24_24  and  C35_35 
REMARK    7  A    between atoms: C25_25  and  O33_33 
REMARK    8  A    between atoms: C26_26  and  N31_31 
REMARK    9  A    between atoms: N31_31  and  C32_32 
REMARK   10  A    between atoms: O33_33  and  C34_34 
ROOT
ATOM      1  C24 STU d   1      21.503 -10.157   8.146  0.00  0.00     0.168 C 
ATOM      2  C25 STU d   1      22.088  -9.106   9.177  0.00  0.00     0.113 C 
ATOM      3  C26 STU d   1      23.326  -9.763   9.815  0.00  0.00     0.134 C 
ATOM      4  C27 STU d   1      24.348 -10.043   8.758  0.00  0.00     0.005 C 
ATOM      5  C28 STU d   1      23.844 -10.938   7.617  0.00  0.00     0.115 C 
ATOM      6  O29 STU d   1      22.426 -11.189   7.808  0.00  0.00    -0.333 OA
ATOM      7  H12 STU d   1      21.326  -8.847   9.927  0.00  0.00     0.094 H 
ATOM      8  H13 STU d   1      23.030 -10.708  10.294  0.00  0.00     0.088 H 
ATOM      9  H14 STU d   1      25.207 -10.540   9.232  0.00  0.00     0.042 H 
ATOM     10  H15 STU d   1      24.671  -9.084   8.327  0.00  0.00     0.042 H 
ATOM     11  H16 STU d   1      24.387 -11.894   7.645  0.00  0.00     0.118 H 
ENDROOT
BRANCH   3  12
ATOM     12  N31 STU d   1      23.893  -8.867  10.823  0.00  0.00    -0.072 N 
ATOM     13  H17 STU d   1      23.132  -8.404  11.294  0.00  0.00     0.277 HD
ATOM     14  H18 STU d   1      24.461  -8.182  10.349  0.00  0.00     0.277 HD
BRANCH  12  15
ATOM     15  C32 STU d   1      24.734  -9.533  11.850  0.00  0.00     0.065 C 
ATOM     16  H19 STU d   1      25.112  -8.781  12.558  0.00  0.00     0.067 H 
ATOM     17  H20 STU d   1      25.582 -10.035  11.361  0.00  0.00     0.067 H 
ATOM     18  H21 STU d   1      24.131 -10.277  12.392  0.00  0.00     0.067 H 
ENDBRANCH  12  15
ENDBRANCH   3  12
BRANCH   2  19
ATOM     19  O33 STU d   1      22.612  -7.906   8.545  0.00  0.00    -0.384 OA
BRANCH  19  20
ATOM     20  C34 STU d   1      21.853  -6.710   8.556  0.00  0.00     0.005 C 
ATOM     21  H22 STU d   1      22.409  -5.918   8.034  0.00  0.00     0.066 H 
ATOM     22  H23 STU d   1      21.668  -6.403   9.596  0.00  0.00     0.066 H 
ATOM     23  H24 STU d   1      20.893  -6.880   8.047  0.00  0.00     0.066 H 
ENDBRANCH  19  20
ENDBRANCH   2  19
BRANCH   1  24
ATOM     24  N6  STU d   1      21.082  -9.437   6.911  0.00  0.00    -0.308 N 
ATOM     25  C5  STU d   1      19.847  -8.811   6.663  0.00  0.00     0.049 A 
ATOM     26  C4  STU d   1      18.617  -8.703   7.430  0.00  0.00    -0.056 A 
ATOM     27  C23 STU d   1      19.901  -8.144   5.432  0.00  0.00     0.004 A 
ATOM     28  C3  STU d   1      17.494  -7.916   6.918  0.00  0.00    -0.081 A 
ATOM     29  H4  STU d   1      18.531  -9.208   8.386  0.00  0.00     0.087 H 
ATOM     30  C2  STU d   1      17.588  -7.253   5.654  0.00  0.00    -0.082 A 
ATOM     31  H3  STU d   1      16.584  -7.835   7.501  0.00  0.00     0.083 H 
ATOM     32  C1  STU d   1      18.810  -7.376   4.901  0.00  0.00    -0.070 A 
ATOM     33  H2  STU d   1      16.758  -6.671   5.271  0.00  0.00     0.083 H 
ATOM     34  H1  STU d   1      18.906  -6.890   3.937  0.00  0.00     0.084 H 
ATOM     35  C22 STU d   1      21.123  -8.311   4.859  0.00  0.00     0.015 A 
ATOM     36  C7  STU d   1      21.860  -9.127   5.805  0.00  0.00     0.077 A 
BRANCH  35  37
ATOM     37  C21 STU d   1      21.809  -7.883   3.624  0.00  0.00    -0.010 A 
ATOM     38  C17 STU d   1      23.103  -8.238   3.352  0.00  0.00     0.054 A 
ATOM     39  C18 STU d   1      23.481  -7.641   2.072  0.00  0.00     0.253 A 
ATOM     40  N19 STU d   1      22.474  -6.863   1.617  0.00  0.00    -0.353 N 
ATOM     41  O30 STU d   1      24.544  -7.794   1.495  0.00  0.00    -0.268 OA
ATOM     42  C20 STU d   1      21.284  -6.979   2.499  0.00  0.00     0.021 A 
ATOM     43  H9  STU d   1      22.523  -6.289   0.800  0.00  0.00     0.163 HD
ATOM     44  H10 STU d   1      20.439  -7.447   1.972  0.00  0.00     0.071 H 
ATOM     45  H11 STU d   1      20.976  -5.997   2.886  0.00  0.00     0.071 H 
BRANCH  38  46
ATOM     46  C16 STU d   1      23.796  -9.028   4.267  0.00  0.00     0.022 A 
ATOM     47  C8  STU d   1      23.256  -9.509   5.512  0.00  0.00     0.077 A 
ATOM     48  N9  STU d   1      24.075 -10.303   6.316  0.00  0.00    -0.316 N 
ATOM     49  C10 STU d   1      25.250 -10.376   5.556  0.00  0.00     0.048 A 
ATOM     50  C11 STU d   1      26.466 -11.066   5.782  0.00  0.00    -0.056 A 
ATOM     51  C15 STU d   1      25.062  -9.596   4.333  0.00  0.00     0.004 A 
ATOM     52  C12 STU d   1      27.505 -10.983   4.796  0.00  0.00    -0.081 A 
ATOM     53  H5  STU d   1      26.609 -11.648   6.686  0.00  0.00     0.087 H 
ATOM     54  C13 STU d   1      27.330 -10.211   3.596  0.00  0.00    -0.082 A 
ATOM     55  H6  STU d   1      28.438 -11.511   4.959  0.00  0.00     0.083 H 
ATOM     56  C14 STU d   1      26.108  -9.510   3.349  0.00  0.00    -0.070 A 
ATOM     57  H7  STU d   1      28.133 -10.160   2.870  0.00  0.00     0.083 H 
ATOM     58  H8  STU d   1      25.974  -8.929   2.444  0.00  0.00     0.084 H 
ENDBRANCH  38  46
ENDBRANCH  35  37
ENDBRANCH   1  24
BRANCH   1  59
ATOM     59  C35 STU d   1      20.386 -10.880   8.903  0.00  0.00    -0.028 C 
ATOM     60  H25 STU d   1      20.806 -11.374   9.792  0.00  0.00     0.034 H 
ATOM     61  H26 STU d   1      19.927 -11.634   8.247  0.00  0.00     0.034 H 
ATOM     62  H27 STU d   1      19.623 -10.151   9.215  0.00  0.00     0.034 H 
ENDBRANCH   1  59
TORSDOF 10
