REMARK WARNING: 32 MAX_TORS EXCEEDED!!!
REMARK  35 active torsions:
REMARK  status: ('A' for Active; 'I' for Inactive)
REMARK    1  A    between atoms: C1_1  and  C2_4 
REMARK    2  A    between atoms: C2_4  and  C3_5 
REMARK    3  A    between atoms: C3_5  and  O3_6 
REMARK    4  A    between atoms: C3_5  and  C4_7 
REMARK    5  A    between atoms: C4_7  and  N5_8 
REMARK    6  A    between atoms: C4_7  and  C25_34 
REMARK       I    between atoms: N5_8  and  C6_9 
REMARK    7  A    between atoms: C6_9  and  C7_11 
REMARK    8  A    between atoms: C7_11  and  N8_12 
REMARK    9  A    between atoms: C7_11  and  C29_38 
REMARK       I    between atoms: N8_12  and  C9_13 
REMARK   10  A    between atoms: C9_13  and  C10_15 
REMARK   11  A    between atoms: C10_15  and  C11_16 
REMARK   12  A    between atoms: C11_16  and  O11_17 
REMARK   13  A    between atoms: C11_16  and  C12_18 
REMARK   14  A    between atoms: C12_18  and  C13_19 
REMARK   15  A    between atoms: C12_18  and  N14_20 
REMARK   16  A    between atoms: C13_19  and  C30_39 
REMARK       I    between atoms: N14_20  and  C15_21 
REMARK   17  A    between atoms: C15_21  and  C16_23 
REMARK   18  A    between atoms: C16_23  and  N17_24 
REMARK   19  A    between atoms: C16_23  and  C33_42 
REMARK       I    between atoms: N17_24  and  C18_25 
REMARK   20  A    between atoms: C18_25  and  C19_27 
REMARK   21  A    between atoms: C19_27  and  N20_28 
REMARK   22  A    between atoms: C19_27  and  C36_45 
REMARK       I    between atoms: N20_28  and  C21_29 
REMARK   23  A    between atoms: C21_29  and  C22_31 
REMARK   24  A    between atoms: C22_31  and  C23_32 
REMARK   25  A    between atoms: C23_32  and  C24_33 
REMARK   26  A    between atoms: C23_32  and  C39_48 
REMARK   27  A    between atoms: C25_34  and  C26_35 
REMARK   28  A    between atoms: C26_35  and  C27_36 
REMARK   29  A    between atoms: C26_35  and  C28_37 
REMARK   30  A    between atoms: C30_39  and  C31_40 
REMARK   31  A    between atoms: C30_39  and  C32_41 
REMARK   32  A    between atoms: C33_42  and  C34_43 
REMARK   33  A    between atoms: C33_42  and  C35_44 
REMARK   34  A    between atoms: C36_45  and  C37_46 
REMARK   35  A    between atoms: C36_45  and  C38_47 
ROOT
ATOM      1  C12 STA d   1      55.159  60.309  24.161  0.00  0.00     0.037 C 
ATOM      2  H13 STA d   1      56.044  60.956  24.242  0.00  0.00     0.076 H 
ENDROOT
BRANCH   1   3
ATOM      3  C11 STA d   1      53.945  61.213  23.801  0.00  0.00     0.063 C 
ATOM      4  H11 STA d   1      54.142  61.778  22.878  0.00  0.00     0.086 H 
BRANCH   3   5
ATOM      5  C10 STA d   1      53.551  62.140  24.961  0.00  0.00     0.035 C 
ATOM      6  H9  STA d   1      52.497  62.428  24.835  0.00  0.00     0.051 H 
ATOM      7  H10 STA d   1      53.670  61.588  25.905  0.00  0.00     0.051 H 
BRANCH   5   8
ATOM      8  C9  STA d   1      54.387  63.399  25.033  0.00  0.00     0.220 C 
ATOM      9  N8  ALA d   1      53.745  64.507  24.585  0.00  0.00    -0.348 N 
ATOM     10  H8  ALA d   1      52.786  64.461  24.305  0.00  0.00     0.163 HD
ATOM     11  O9  STA d   1      55.533  63.373  25.496  0.00  0.00    -0.274 OA
BRANCH   9  12
ATOM     12  C7  ALA d   1      54.473  65.759  24.520  0.00  0.00     0.086 C 
ATOM     13  H7  ALA d   1      55.496  65.516  24.198  0.00  0.00     0.086 H 
BRANCH  12  14
ATOM     14  C6  ALA d   1      54.605  66.538  25.828  0.00  0.00     0.240 C 
ATOM     15  N5  STA d   1      55.776  67.111  26.094  0.00  0.00    -0.352 N 
ATOM     16  H6  STA d   1      56.594  66.869  25.573  0.00  0.00     0.163 HD
ATOM     17  O6  ALA d   1      53.645  66.689  26.580  0.00  0.00    -0.271 OA
BRANCH  15  18
ATOM     18  C4  STA d   1      55.839  68.124  27.189  0.00  0.00     0.038 C 
ATOM     19  H5  STA d   1      55.133  67.823  27.977  0.00  0.00     0.076 H 
BRANCH  18  20
ATOM     20  C3  STA d   1      55.441  69.572  26.717  0.00  0.00     0.064 C 
ATOM     21  H3  STA d   1      55.480  70.227  27.600  0.00  0.00     0.086 H 
BRANCH  20  22
ATOM     22  C2  STA d   1      53.988  69.555  26.246  0.00  0.00     0.041 C 
ATOM     23  H1  STA d   1      53.889  68.806  25.447  0.00  0.00     0.053 H 
ATOM     24  H2  STA d   1      53.349  69.272  27.095  0.00  0.00     0.053 H 
BRANCH  22  25
ATOM     25  C1  STA d   1      53.520  70.880  25.718  0.00  0.00     0.175 C 
ATOM     26  O1  STA d   1      53.721  71.097  24.522  0.00  0.00    -0.648 OA
ATOM     27  O2  STA d   1      52.955  71.644  26.456  0.00  0.00    -0.648 OA
ENDBRANCH  22  25
ENDBRANCH  20  22
BRANCH  20  28
ATOM     28  O3  STA d   1      56.430  70.143  25.729  0.00  0.00    -0.393 OA
ATOM     29  H4  STA d   1      57.303  70.114  26.103  0.00  0.00     0.210 HD
ENDBRANCH  20  28
ENDBRANCH  18  20
BRANCH  18  30
ATOM     30  C25 STA d   1      57.261  68.110  27.771  0.00  0.00    -0.041 C 
ATOM     31  H27 STA d   1      57.331  68.902  28.531  0.00  0.00     0.036 H 
ATOM     32  H28 STA d   1      57.970  68.320  26.956  0.00  0.00     0.036 H 
BRANCH  30  33
ATOM     33  C26 STA d   1      57.660  66.775  28.427  0.00  0.00    -0.059 C 
ATOM     34  H29 STA d   1      57.608  65.989  27.660  0.00  0.00     0.038 H 
BRANCH  33  35
ATOM     35  C27 STA d   1      59.113  66.842  28.886  0.00  0.00    -0.073 C 
ATOM     36  H30 STA d   1      59.394  65.887  29.354  0.00  0.00     0.028 H 
ATOM     37  H31 STA d   1      59.230  67.656  29.616  0.00  0.00     0.028 H 
ATOM     38  H32 STA d   1      59.763  67.031  28.019  0.00  0.00     0.028 H 
ENDBRANCH  33  35
BRANCH  33  39
ATOM     39  C28 STA d   1      56.632  66.418  29.492  0.00  0.00    -0.073 C 
ATOM     40  H33 STA d   1      55.628  66.401  29.042  0.00  0.00     0.028 H 
ATOM     41  H34 STA d   1      56.661  67.168  30.296  0.00  0.00     0.028 H 
ATOM     42  H35 STA d   1      56.864  65.426  29.908  0.00  0.00     0.028 H 
ENDBRANCH  33  39
ENDBRANCH  30  33
ENDBRANCH  18  30
ENDBRANCH  15  18
ENDBRANCH  12  14
BRANCH  12  43
ATOM     43  C29 ALA d   1      53.838  66.628  23.450  0.00  0.00    -0.049 C 
ATOM     44  H36 ALA d   1      54.378  67.584  23.386  0.00  0.00     0.030 H 
ATOM     45  H37 ALA d   1      52.786  66.818  23.709  0.00  0.00     0.030 H 
ATOM     46  H38 ALA d   1      53.890  66.112  22.480  0.00  0.00     0.030 H 
ENDBRANCH  12  43
ENDBRANCH   9  12
ENDBRANCH   5   8
ENDBRANCH   3   5
BRANCH   3  47
ATOM     47  O11 STA d   1      52.797  60.363  23.693  0.00  0.00    -0.393 OA
ATOM     48  H12 STA d   1      52.669  59.900  24.512  0.00  0.00     0.210 HD
ENDBRANCH   3  47
ENDBRANCH   1   3
BRANCH   1  49
ATOM     49  C13 STA d   1      55.382  59.239  23.092  0.00  0.00    -0.041 C 
ATOM     50  H14 STA d   1      54.393  58.870  22.782  0.00  0.00     0.036 H 
ATOM     51  H15 STA d   1      55.949  58.420  23.558  0.00  0.00     0.036 H 
BRANCH  49  52
ATOM     52  C30 STA d   1      56.127  59.652  21.837  0.00  0.00    -0.059 C 
ATOM     53  H39 STA d   1      55.632  60.513  21.364  0.00  0.00     0.038 H 
BRANCH  52  54
ATOM     54  C31 STA d   1      57.546  59.990  22.217  0.00  0.00    -0.073 C 
ATOM     55  H40 STA d   1      58.104  60.293  21.319  0.00  0.00     0.028 H 
ATOM     56  H41 STA d   1      58.025  59.108  22.666  0.00  0.00     0.028 H 
ATOM     57  H42 STA d   1      57.544  60.816  22.943  0.00  0.00     0.028 H 
ENDBRANCH  52  54
BRANCH  52  58
ATOM     58  C32 STA d   1      56.195  58.496  20.888  0.00  0.00    -0.073 C 
ATOM     59  H43 STA d   1      55.177  58.213  20.582  0.00  0.00     0.028 H 
ATOM     60  H44 STA d   1      56.679  57.642  21.384  0.00  0.00     0.028 H 
ATOM     61  H45 STA d   1      56.778  58.784  20.001  0.00  0.00     0.028 H 
ENDBRANCH  52  58
ENDBRANCH  49  52
ENDBRANCH   1  49
BRANCH   1  62
ATOM     62  N14 STA d   1      55.027  59.523  25.381  0.00  0.00    -0.352 N 
ATOM     63  C15 VAL d   1      55.992  59.275  26.273  0.00  0.00     0.241 C 
ATOM     64  O15 VAL d   1      57.072  59.857  26.358  0.00  0.00    -0.271 OA
ATOM     65  H16 STA d   1      54.127  59.131  25.570  0.00  0.00     0.163 HD
BRANCH  63  66
ATOM     66  C16 VAL d   1      55.677  58.115  27.201  0.00  0.00     0.092 C 
ATOM     67  H17 VAL d   1      54.702  57.664  26.965  0.00  0.00     0.088 H 
BRANCH  66  68
ATOM     68  N17 VAL d   1      56.737  57.198  26.918  0.00  0.00    -0.346 N 
ATOM     69  C18 VAL d   1      56.399  56.008  26.468  0.00  0.00     0.241 C 
ATOM     70  O18 VAL d   1      55.287  55.496  26.514  0.00  0.00    -0.271 OA
ATOM     71  H18 VAL d   1      57.695  57.450  27.056  0.00  0.00     0.163 HD
BRANCH  69  72
ATOM     72  C19 VAL d   1      57.584  55.202  26.000  0.00  0.00     0.092 C 
ATOM     73  H19 VAL d   1      58.532  55.737  26.159  0.00  0.00     0.088 H 
BRANCH  72  74
ATOM     74  N20 VAL d   1      57.465  54.037  26.889  0.00  0.00    -0.347 N 
ATOM     75  C21 IVA d   1      58.574  53.713  27.530  0.00  0.00     0.218 C 
ATOM     76  O21 IVA d   1      59.649  54.317  27.465  0.00  0.00    -0.274 OA
ATOM     77  H20 VAL d   1      56.611  53.529  27.000  0.00  0.00     0.163 HD
BRANCH  75  78
ATOM     78  C22 IVA d   1      58.429  52.484  28.379  0.00  0.00     0.012 C 
ATOM     79  H21 IVA d   1      59.313  51.846  28.231  0.00  0.00     0.047 H 
ATOM     80  H22 IVA d   1      57.527  51.940  28.062  0.00  0.00     0.047 H 
BRANCH  78  81
ATOM     81  C23 IVA d   1      58.306  52.814  29.867  0.00  0.00    -0.053 C 
ATOM     82  H23 IVA d   1      59.225  53.331  30.180  0.00  0.00     0.039 H 
BRANCH  81  83
ATOM     83  C24 IVA d   1      57.152  53.794  30.124  0.00  0.00    -0.073 C 
ATOM     84  H24 IVA d   1      57.089  54.012  31.200  0.00  0.00     0.028 H 
ATOM     85  H25 IVA d   1      56.207  53.345  29.785  0.00  0.00     0.028 H 
ATOM     86  H26 IVA d   1      57.334  54.727  29.571  0.00  0.00     0.028 H 
ENDBRANCH  81  83
BRANCH  81  87
ATOM     87  C39 IVA d   1      58.260  51.475  30.628  0.00  0.00    -0.073 C 
ATOM     88  H60 IVA d   1      59.137  50.869  30.357  0.00  0.00     0.028 H 
ATOM     89  H61 IVA d   1      57.342  50.932  30.359  0.00  0.00     0.028 H 
ATOM     90  H62 IVA d   1      58.268  51.668  31.711  0.00  0.00     0.028 H 
ENDBRANCH  81  87
ENDBRANCH  78  81
ENDBRANCH  75  78
ENDBRANCH  72  74
BRANCH  72  91
ATOM     91  C36 VAL d   1      57.450  54.820  24.489  0.00  0.00    -0.033 C 
ATOM     92  H53 VAL d   1      56.538  54.232  24.308  0.00  0.00     0.042 H 
BRANCH  91  93
ATOM     93  C37 VAL d   1      57.593  56.036  23.591  0.00  0.00    -0.071 C 
ATOM     94  H54 VAL d   1      57.493  55.729  22.539  0.00  0.00     0.028 H 
ATOM     95  H55 VAL d   1      58.581  56.493  23.747  0.00  0.00     0.028 H 
ATOM     96  H56 VAL d   1      56.808  56.767  23.835  0.00  0.00     0.028 H 
ENDBRANCH  91  93
BRANCH  91  97
ATOM     97  C38 VAL d   1      58.745  54.152  24.004  0.00  0.00    -0.071 C 
ATOM     98  H57 VAL d   1      58.884  53.196  24.531  0.00  0.00     0.028 H 
ATOM     99  H58 VAL d   1      59.599  54.813  24.212  0.00  0.00     0.028 H 
ATOM    100  H59 VAL d   1      58.679  53.968  22.922  0.00  0.00     0.028 H 
ENDBRANCH  91  97
ENDBRANCH  72  91
ENDBRANCH  69  72
ENDBRANCH  66  68
BRANCH  66 101
ATOM    101  C33 VAL d   1      55.665  58.617  28.670  0.00  0.00    -0.033 C 
ATOM    102  H46 VAL d   1      56.598  59.154  28.895  0.00  0.00     0.042 H 
BRANCH 101 103
ATOM    103  C34 VAL d   1      54.433  59.499  28.916  0.00  0.00    -0.071 C 
ATOM    104  H47 VAL d   1      54.435  59.849  29.959  0.00  0.00     0.028 H 
ATOM    105  H48 VAL d   1      53.520  58.915  28.727  0.00  0.00     0.028 H 
ATOM    106  H49 VAL d   1      54.461  60.365  28.239  0.00  0.00     0.028 H 
ENDBRANCH 101 103
BRANCH 101 107
ATOM    107  C35 VAL d   1      55.449  57.457  29.618  0.00  0.00    -0.071 C 
ATOM    108  H50 VAL d   1      56.285  56.748  29.527  0.00  0.00     0.028 H 
ATOM    109  H51 VAL d   1      54.507  56.947  29.366  0.00  0.00     0.028 H 
ATOM    110  H52 VAL d   1      55.397  57.832  30.651  0.00  0.00     0.028 H 
ENDBRANCH 101 107
ENDBRANCH  66 101
ENDBRANCH  63  66
ENDBRANCH   1  62
TORSDOF 35
