REMARK  16 active torsions:
REMARK  status: ('A' for Active; 'I' for Inactive)
REMARK    1  A    between atoms: C2_1  and  C3_2 
REMARK    2  A    between atoms: C2_1  and  C1_27 
REMARK    3  A    between atoms: C3_2  and  C4_3 
REMARK    4  A    between atoms: C4_3  and  C5_4 
REMARK    5  A    between atoms: C5_4  and  N6_5 
REMARK    6  A    between atoms: C5_4  and  C26_25 
REMARK       I    between atoms: N6_5  and  C7_6 
REMARK    7  A    between atoms: C7_6  and  C9_8 
REMARK    8  A    between atoms: C9_8  and  C10_9 
REMARK    9  A    between atoms: C9_8  and  N14_13 
REMARK   10  A    between atoms: C10_9  and  C11_10 
REMARK   11  A    between atoms: C11_10  and  C12_11 
REMARK   12  A    between atoms: C11_10  and  C13_12 
REMARK       I    between atoms: N14_13  and  C15_14 
REMARK   13  A    between atoms: C15_14  and  O17_16 
REMARK   14  A    between atoms: O17_16  and  C18_17 
REMARK   15  A    between atoms: C18_17  and  C19_18 
REMARK   16  A    between atoms: C26_25  and  O27_26 
ROOT
ATOM      1  C9  MYE d   1     -18.420  35.578  79.851  0.00  0.00     0.092 C 
ATOM      2  H9  MYE d   1     -18.518  35.953  78.822  0.00  0.00     0.087 H 
ENDROOT
BRANCH   1   3
ATOM      3  C7  MYE d   1     -17.431  34.417  79.910  0.00  0.00     0.240 C 
ATOM      4  N6  MYE d   1     -16.610  34.184  78.896  0.00  0.00    -0.353 N 
ATOM      5  H8  MYE d   1     -16.651  34.753  78.075  0.00  0.00     0.163 HD
ATOM      6  O8  MYE d   1     -17.396  33.695  80.889  0.00  0.00    -0.271 OA
BRANCH   4   7
ATOM      7  C5  MYE d   1     -15.654  33.102  78.983  0.00  0.00     0.032 C 
ATOM      8  H7  MYE d   1     -15.880  32.479  79.861  0.00  0.00     0.075 H 
BRANCH   7   9
ATOM      9  C4  MYE d   1     -15.727  32.223  77.691  0.00  0.00    -0.044 C 
ATOM     10  H5  MYE d   1     -15.677  32.872  76.804  0.00  0.00     0.036 H 
ATOM     11  H6  MYE d   1     -14.882  31.520  77.679  0.00  0.00     0.036 H 
BRANCH   9  12
ATOM     12  C3  MYE d   1     -17.059  31.429  77.675  0.00  0.00    -0.064 C 
ATOM     13  H3  MYE d   1     -17.041  30.672  78.472  0.00  0.00     0.033 H 
ATOM     14  H4  MYE d   1     -17.897  32.121  77.846  0.00  0.00     0.033 H 
BRANCH  12  15
ATOM     15  C2  MYE d   1     -17.242  30.734  76.318  0.00  0.00    -0.068 C 
ATOM     16  H1  MYE d   1     -16.806  31.359  75.525  0.00  0.00     0.032 H 
ATOM     17  H2  MYE d   1     -18.315  30.589  76.123  0.00  0.00     0.032 H 
BRANCH  15  18
ATOM     18  C1  MYE d   1     -16.535  29.366  76.340  0.00  0.00    -0.077 C 
ATOM     19  H29 MYE d   1     -16.667  28.869  75.367  0.00  0.00     0.027 H 
ATOM     20  H30 MYE d   1     -16.971  28.741  77.133  0.00  0.00     0.027 H 
ATOM     21  H31 MYE d   1     -15.462  29.511  76.535  0.00  0.00     0.027 H 
ENDBRANCH  15  18
ENDBRANCH  12  15
ENDBRANCH   9  12
ENDBRANCH   7   9
BRANCH   7  22
ATOM     22  C26 MYE d   1     -14.284  33.691  79.125  0.00  0.00     0.035 C 
ATOM     23  H26 MYE d   1     -14.200  34.191  80.101  0.00  0.00     0.077 H 
ATOM     24  H27 MYE d   1     -14.116  34.424  78.322  0.00  0.00     0.077 H 
BRANCH  22  25
ATOM     25  O27 MYE d   1     -13.335  32.687  79.038  0.00  0.00    -0.399 OA
ATOM     26  H28 MYE d   1     -12.468  33.064  79.128  0.00  0.00     0.209 HD
ENDBRANCH  22  25
ENDBRANCH   7  22
ENDBRANCH   4   7
ENDBRANCH   1   3
BRANCH   1  27
ATOM     27  C10 MYE d   1     -17.918  36.688  80.792  0.00  0.00    -0.035 C 
ATOM     28  H10 MYE d   1     -16.856  36.509  81.014  0.00  0.00     0.037 H 
ATOM     29  H11 MYE d   1     -18.500  36.650  81.725  0.00  0.00     0.037 H 
BRANCH  27  30
ATOM     30  C11 MYE d   1     -18.065  38.098  80.172  0.00  0.00    -0.059 C 
ATOM     31  H12 MYE d   1     -17.162  38.327  79.587  0.00  0.00     0.038 H 
BRANCH  30  32
ATOM     32  C12 MYE d   1     -18.210  39.117  81.292  0.00  0.00    -0.073 C 
ATOM     33  H13 MYE d   1     -18.315  40.123  80.861  0.00  0.00     0.028 H 
ATOM     34  H14 MYE d   1     -17.318  39.085  81.935  0.00  0.00     0.028 H 
ATOM     35  H15 MYE d   1     -19.102  38.880  81.891  0.00  0.00     0.028 H 
ENDBRANCH  30  32
BRANCH  30  36
ATOM     36  C13 MYE d   1     -19.276  38.174  79.256  0.00  0.00    -0.073 C 
ATOM     37  H16 MYE d   1     -19.170  37.437  78.447  0.00  0.00     0.028 H 
ATOM     38  H17 MYE d   1     -19.347  39.184  78.825  0.00  0.00     0.028 H 
ATOM     39  H18 MYE d   1     -20.187  37.956  79.833  0.00  0.00     0.028 H 
ENDBRANCH  30  36
ENDBRANCH  27  30
ENDBRANCH   1  27
BRANCH   1  40
ATOM     40  N14 MYE d   1     -19.688  35.118  80.348  0.00  0.00    -0.324 N 
ATOM     41  C15 MYE d   1     -20.512  34.341  79.606  0.00  0.00     0.361 C 
ATOM     42  O16 MYE d   1     -20.110  33.782  78.581  0.00  0.00    -0.238 OA
ATOM     43  H19 MYE d   1     -19.970  35.380  81.271  0.00  0.00     0.165 HD
BRANCH  41  44
ATOM     44  O17 MYE d   1     -21.760  34.187  79.999  0.00  0.00    -0.299 OA
BRANCH  44  45
ATOM     45  C18 MYE d   1     -22.326  32.987  79.544  0.00  0.00     0.054 C 
ATOM     46  H20 MYE d   1     -21.525  32.282  79.276  0.00  0.00     0.082 H 
ATOM     47  H21 MYE d   1     -22.949  33.188  78.660  0.00  0.00     0.082 H 
BRANCH  45  48
ATOM     48  C19 MYE d   1     -23.177  32.389  80.633  0.00  0.00    -0.034 A 
ATOM     49  C20 MYE d   1     -23.847  31.207  80.403  0.00  0.00    -0.073 A 
ATOM     50  C21 MYE d   1     -24.626  30.650  81.396  0.00  0.00    -0.066 A 
ATOM     51  H22 MYE d   1     -23.762  30.715  79.441  0.00  0.00     0.084 H 
ATOM     52  C22 MYE d   1     -24.742  31.280  82.631  0.00  0.00     0.011 A 
ATOM     53  H23 MYE d   1     -25.149  29.718  81.213  0.00  0.00     0.085 H 
ATOM     54 BR2  MYE d   1     -25.832  30.485  84.010  0.00  0.00    -0.051 Br
ATOM     55  C24 MYE d   1     -24.070  32.470  82.866  0.00  0.00    -0.066 A 
ATOM     56  C25 MYE d   1     -23.289  33.027  81.869  0.00  0.00    -0.073 A 
ATOM     57  H24 MYE d   1     -24.156  32.962  83.828  0.00  0.00     0.085 H 
ATOM     58  H25 MYE d   1     -22.764  33.959  82.048  0.00  0.00     0.084 H 
ENDBRANCH  45  48
ENDBRANCH  44  45
ENDBRANCH  41  44
ENDBRANCH   1  40
TORSDOF 16
