REMARK  6 active torsions:
REMARK  status: ('A' for Active; 'I' for Inactive)
REMARK    1  A    between atoms: C3_3  and  C11_7 
REMARK    2  A    between atoms: C11_7  and  C12_8 
REMARK    3  A    between atoms: C15_9  and  N26_14 
REMARK    4  A    between atoms: N26_14  and  C27_15 
REMARK    5  A    between atoms: C30_18  and  C37_21 
REMARK    6  A    between atoms: C42_26  and  C47_29 
ROOT
ATOM      1  C12 666 d   1      63.216   3.292  11.369  0.00  0.00     0.014 C 
ATOM      2  C15 666 d   1      61.944   2.897  11.570  0.00  0.00     0.019 C 
ATOM      3  C16 666 d   1      60.949   3.621  12.524  0.00  0.00    -0.026 C 
ATOM      4  C17 666 d   1      60.938   5.195  12.273  0.00  0.00    -0.054 C 
ATOM      5  C18 666 d   1      62.577   5.644  12.441  0.00  0.00    -0.005 C 
ATOM      6  C19 666 d   1      63.650   4.551  12.222  0.00  0.00     0.157 C 
ATOM      7  O45 666 d   1      64.733   4.700  12.705  0.00  0.00    -0.293 OA
ATOM      8  H7  666 d   1      61.247   3.427  13.565  0.00  0.00     0.042 H 
ATOM      9  H8  666 d   1      59.937   3.225  12.352  0.00  0.00     0.042 H 
ATOM     10  H9  666 d   1      60.313   5.707  13.019  0.00  0.00     0.034 H 
ATOM     11  H10 666 d   1      60.569   5.428  11.263  0.00  0.00     0.034 H 
ATOM     12  H11 666 d   1      62.708   6.032  13.462  0.00  0.00     0.044 H 
ATOM     13  H12 666 d   1      62.773   6.447  11.715  0.00  0.00     0.044 H 
ENDROOT
BRANCH   2  14
ATOM     14  N26 666 d   1      61.580   1.690  10.775  0.00  0.00    -0.359 N 
ATOM     15  H13 666 d   1      62.361   1.361  10.190  0.00  0.00     0.166 HD
BRANCH  14  16
ATOM     16  C27 666 d   1      60.478   0.921  10.633  0.00  0.00     0.032 A 
ATOM     17  C28 666 d   1      59.432   0.888  11.599  0.00  0.00    -0.056 A 
ATOM     18  C29 666 d   1      58.320   0.061  11.453  0.00  0.00    -0.069 A 
ATOM     19  H14 666 d   1      59.503   1.525  12.473  0.00  0.00     0.086 H 
ATOM     20  C30 666 d   1      58.208  -0.788  10.309  0.00  0.00    -0.009 A 
ATOM     21  H15 666 d   1      57.541   0.062  12.207  0.00  0.00     0.085 H 
ATOM     22  C31 666 d   1      59.242  -0.772   9.301  0.00  0.00    -0.069 A 
ATOM     23  C32 666 d   1      60.382   0.090   9.465  0.00  0.00    -0.056 A 
ATOM     24  H16 666 d   1      59.160  -1.406   8.426  0.00  0.00     0.085 H 
ATOM     25  H17 666 d   1      61.163   0.112   8.713  0.00  0.00     0.086 H 
BRANCH  20  26
ATOM     26  C37 666 d   1      57.061  -1.694  10.226  0.00  0.00     0.069 C 
ATOM     27  N38 666 d   1      56.959  -2.625   9.207  0.00  0.00    -0.176 NA
ATOM     28  N39 666 d   1      56.028  -3.479   9.097  0.00  0.00    -0.247 N 
ATOM     29  C40 666 d   1      54.833  -3.474   9.771  0.00  0.00     0.238 C 
ATOM     30  H18 666 d   1      56.180  -4.231   8.455  0.00  0.00     0.192 HD
ATOM     31  C41 666 d   1      54.620  -2.290  10.739  0.00  0.00     0.019 C 
ATOM     32  O46 666 d   1      54.010  -4.315   9.643  0.00  0.00    -0.272 OA
ATOM     33  C42 666 d   1      55.932  -1.722  11.330  0.00  0.00    -0.005 C 
ATOM     34  H19 666 d   1      53.985  -2.631  11.570  0.00  0.00     0.048 H 
ATOM     35  H20 666 d   1      54.108  -1.484  10.193  0.00  0.00     0.048 H 
ATOM     36  H21 666 d   1      55.748  -0.694  11.676  0.00  0.00     0.050 H 
BRANCH  33  37
ATOM     37  C47 666 d   1      56.401  -2.590  12.549  0.00  0.00    -0.067 C 
ATOM     38  H22 666 d   1      57.334  -2.174  12.958  0.00  0.00     0.028 H 
ATOM     39  H23 666 d   1      56.575  -3.624  12.217  0.00  0.00     0.028 H 
ATOM     40  H24 666 d   1      55.623  -2.580  13.327  0.00  0.00     0.028 H 
ENDBRANCH  33  37
ENDBRANCH  20  26
ENDBRANCH  14  16
ENDBRANCH   2  14
BRANCH   1  41
ATOM     41  C11 666 d   1      64.464   2.395  11.356  0.00  0.00    -0.012 C 
ATOM     42  H5  666 d   1      65.344   3.014  11.582  0.00  0.00     0.047 H 
ATOM     43  H6  666 d   1      64.350   1.623  12.131  0.00  0.00     0.047 H 
BRANCH  41  44
ATOM     44  C3  666 d   1      64.686   1.700   9.998  0.00  0.00    -0.052 A 
ATOM     45  C2  666 d   1      64.433   2.414   8.749  0.00  0.00    -0.076 A 
ATOM     46  C1  666 d   1      64.638   1.781   7.477  0.00  0.00    -0.081 A 
ATOM     47  H2  666 d   1      64.084   3.440   8.783  0.00  0.00     0.084 H 
ATOM     48  C6  666 d   1      65.108   0.405   7.412  0.00  0.00    -0.067 A 
ATOM     49  H1  666 d   1      64.442   2.329   6.562  0.00  0.00     0.083 H 
ATOM     50  C5  666 d   1      65.374  -0.347   8.608  0.00  0.00     0.006 A 
ATOM     51  H4  666 d   1      65.260  -0.061   6.445  0.00  0.00     0.085 H 
ATOM     52  C4  666 d   1      65.156   0.326   9.912  0.00  0.00    -0.061 A 
ATOM     53  I54 666 d   1      66.077  -2.383   8.497  0.00  0.00    -0.045 I 
ATOM     54  H3  666 d   1      65.353  -0.222  10.827  0.00  0.00     0.086 H 
ENDBRANCH  41  44
ENDBRANCH   1  41
TORSDOF 6
