REMARK  26 active torsions:
REMARK  status: ('A' for Active; 'I' for Inactive)
REMARK    1  A    between atoms: C_3  and  CA_2 
REMARK       I    between atoms: N_8  and  C_3 
REMARK    2  A    between atoms: CA_9  and  N_8 
REMARK    3  A    between atoms: CA_9  and  CB_12 
REMARK    4  A    between atoms: C_10  and  CA_9 
REMARK       I    between atoms: N_14  and  C_10 
REMARK    5  A    between atoms: CA_15  and  N_14 
REMARK    6  A    between atoms: CA_15  and  CB_18 
REMARK    7  A    between atoms: C_16  and  CA_15 
REMARK       I    between atoms: N_27  and  C_16 
REMARK    8  A    between atoms: CB_18  and  CG_19 
REMARK    9  A    between atoms: CZ_24  and  OH_25 
REMARK   10  A    between atoms: CA_28  and  N_27 
REMARK   11  A    between atoms: CA_28  and  CB_31 
REMARK   12  A    between atoms: C_29  and  CA_28 
REMARK       I    between atoms: N_37  and  C_29 
REMARK   13  A    between atoms: CB_31  and  CG_32 
REMARK   14  A    between atoms: CG_32  and  CD_33 
REMARK   15  A    between atoms: CA_38  and  N_37 
REMARK   16  A    between atoms: CA_38  and  CB_41 
REMARK   17  A    between atoms: C_39  and  CA_38 
REMARK       I    between atoms: N_47  and  C_39 
REMARK   18  A    between atoms: CB_41  and  CG_42 
REMARK   19  A    between atoms: CG_42  and  CD_43 
REMARK   20  A    between atoms: CA_48  and  N_47 
REMARK   21  A    between atoms: CA_48  and  CB_51 
REMARK   22  A    between atoms: C_49  and  CA_48 
REMARK       I    between atoms: C_49  and  N_56 
REMARK   23  A    between atoms: CB_51  and  CG2_53 
REMARK   24  A    between atoms: CB_51  and  CG1_52 
REMARK   25  A    between atoms: CG1_52  and  CD1_54 
REMARK   26  A    between atoms: CA_57  and  C_58 
ROOT
ATOM      1  CA  GLU d   1      75.982  89.384  22.348  0.00  0.00     0.090 C 
ATOM      2  H25 GLU d   1      76.687  89.367  21.504  0.00  0.00     0.087 H 
ENDROOT
BRANCH   1   3
ATOM      3  N   GLU d   1      74.911  90.287  22.033  0.00  0.00    -0.346 N 
ATOM      4  C   PTR d   1      74.312  90.230  20.851  0.00  0.00     0.241 C 
ATOM      5  O   PTR d   1      74.725  89.513  19.942  0.00  0.00    -0.271 OA
ATOM      6  H24 GLU d   1      74.615  90.963  22.708  0.00  0.00     0.163 HD
BRANCH   4   7
ATOM      7  CA  PTR d   1      73.104  91.119  20.644  0.00  0.00     0.093 C 
ATOM      8  H16 PTR d   1      73.128  91.951  21.363  0.00  0.00     0.088 H 
BRANCH   7   9
ATOM      9  N   PTR d   1      73.143  91.642  19.305  0.00  0.00    -0.346 N 
ATOM     10  C   GLN d   1      73.102  92.935  19.072  0.00  0.00     0.240 C 
ATOM     11  O   GLN d   1      72.964  93.794  19.942  0.00  0.00    -0.271 OA
ATOM     12  H15 PTR d   1      73.203  91.008  18.534  0.00  0.00     0.163 HD
BRANCH  10  13
ATOM     13  CA  GLN d   1      73.151  93.219  17.588  0.00  0.00     0.086 C 
ATOM     14  H11 GLN d   1      72.726  92.364  17.043  0.00  0.00     0.086 H 
BRANCH  13  15
ATOM     15  N   GLN d   1      72.368  94.408  17.230  0.00  0.00    -0.346 N 
ATOM     16  C   PRO d   1      71.066  94.284  16.969  0.00  0.00     0.249 C 
ATOM     17  O   PRO d   1      70.488  93.212  17.123  0.00  0.00    -0.271 OA
ATOM     18  H10 GLN d   1      72.808  95.305  17.182  0.00  0.00     0.163 HD
BRANCH  16  19
ATOM     19  CA  PRO d   1      70.263  95.490  16.516  0.00  0.00     0.178 C 
ATOM     20  CB  PRO d   1      69.589  96.204  17.671  0.00  0.00    -0.028 C 
ATOM     21  CG  PRO d   1      68.258  95.482  17.777  0.00  0.00    -0.040 C 
ATOM     22  H4  PRO d   1      69.445  97.271  17.448  0.00  0.00     0.036 H 
ATOM     23  H5  PRO d   1      70.172  96.099  18.598  0.00  0.00     0.036 H 
ATOM     24  CD  PRO d   1      67.920  95.263  16.310  0.00  0.00     0.083 C 
ATOM     25  H6  PRO d   1      68.359  94.527  18.314  0.00  0.00     0.035 H 
ATOM     26  H7  PRO d   1      67.501  96.105  18.276  0.00  0.00     0.035 H 
ATOM     27  N   PRO d   1      69.189  95.083  15.606  0.00  0.00    -0.062 N 
ATOM     28  H8  PRO d   1      67.293  94.366  16.196  0.00  0.00     0.075 H 
ATOM     29  H9  PRO d   1      67.386  96.137  15.910  0.00  0.00     0.075 H 
ATOM     30  H1  PRO d   1      69.305  94.115  15.349  0.00  0.00     0.278 HD
ATOM     31  H2  PRO d   1      69.206  95.656  14.777  0.00  0.00     0.278 HD
ATOM     32  H3  PRO d   1      70.941  96.187  16.002  0.00  0.00     0.099 H 
ENDBRANCH  16  19
ENDBRANCH  13  15
BRANCH  13  33
ATOM     33  CB  GLN d   1      74.632  93.338  17.240  0.00  0.00    -0.049 C 
ATOM     34  H12 GLN d   1      75.153  92.415  17.535  0.00  0.00     0.030 H 
ATOM     35  H13 GLN d   1      75.067  94.193  17.778  0.00  0.00     0.030 H 
ATOM     36  H14 GLN d   1      74.743  93.491  16.156  0.00  0.00     0.030 H 
ENDBRANCH  13  33
ENDBRANCH  10  13
ENDBRANCH   7   9
BRANCH   7  37
ATOM     37  CB  PTR d   1      71.836  90.301  20.862  0.00  0.00    -0.014 C 
ATOM     38  H17 PTR d   1      71.995  89.683  21.758  0.00  0.00     0.043 H 
ATOM     39  H18 PTR d   1      71.711  89.650  19.984  0.00  0.00     0.043 H 
BRANCH  37  40
ATOM     40  CG  PTR d   1      70.521  91.058  21.058  0.00  0.00    -0.056 A 
ATOM     41  CD1 PTR d   1      69.953  91.759  20.012  0.00  0.00    -0.074 A 
ATOM     42  CE1 PTR d   1      68.737  92.392  20.170  0.00  0.00    -0.051 A 
ATOM     43  H19 PTR d   1      70.467  91.812  19.059  0.00  0.00     0.084 H 
ATOM     44  CZ  PTR d   1      68.118  92.304  21.393  0.00  0.00     0.065 A 
ATOM     45  H21 PTR d   1      68.284  92.942  19.353  0.00  0.00     0.087 H 
ATOM     46  CE2 PTR d   1      68.664  91.625  22.454  0.00  0.00    -0.051 A 
ATOM     47  CD2 PTR d   1      69.877  90.999  22.278  0.00  0.00    -0.074 A 
ATOM     48  H22 PTR d   1      68.152  91.583  23.408  0.00  0.00     0.087 H 
ATOM     49  H20 PTR d   1      70.329  90.457  23.101  0.00  0.00     0.084 H 
BRANCH  44  50
ATOM     50  OH  PTR d   1      66.826  92.892  21.547  0.00  0.00    -0.361 OA
ATOM     51  H23 PTR d   1      66.193  92.214  21.751  0.00  0.00     0.217 HD
ENDBRANCH  44  50
ENDBRANCH  37  40
ENDBRANCH   7  37
ENDBRANCH   4   7
ENDBRANCH   1   3
BRANCH   1  52
ATOM     52  CB  GLU d   1      76.700  89.808  23.582  0.00  0.00    -0.029 C 
ATOM     53  H26 GLU d   1      77.378  88.992  23.873  0.00  0.00     0.037 H 
ATOM     54  H27 GLU d   1      75.949  89.960  24.372  0.00  0.00     0.037 H 
BRANCH  52  55
ATOM     55  CG  GLU d   1      77.507  91.053  23.477  0.00  0.00     0.018 C 
ATOM     56  H28 GLU d   1      77.896  91.306  24.474  0.00  0.00     0.049 H 
ATOM     57  H29 GLU d   1      76.857  91.865  23.119  0.00  0.00     0.049 H 
BRANCH  55  58
ATOM     58  CD  GLU d   1      78.667  90.910  22.529  0.00  0.00     0.172 C 
ATOM     59  OE2 GLU d   1      78.466  91.269  21.376  0.00  0.00    -0.648 OA
ATOM     60  OE1 GLU d   1      79.753  90.467  22.928  0.00  0.00    -0.648 OA
ENDBRANCH  55  58
ENDBRANCH  52  55
ENDBRANCH   1  52
BRANCH   1  61
ATOM     61  C   GLU d   1      75.457  87.992  22.591  0.00  0.00     0.241 C 
ATOM     62  O   GLU d   1      74.372  87.798  23.121  0.00  0.00    -0.271 OA
ATOM     63  N   GLU d   1      76.217  87.009  22.143  0.00  0.00    -0.346 N 
ATOM     64  H30 GLU d   1      76.999  87.210  21.554  0.00  0.00     0.163 HD
BRANCH  63  65
ATOM     65  CA  GLU d   1      75.916  85.636  22.506  0.00  0.00     0.090 C 
ATOM     66  H31 GLU d   1      75.025  85.612  23.150  0.00  0.00     0.087 H 
BRANCH  65  67
ATOM     67  CB  GLU d   1      75.653  84.799  21.255  0.00  0.00    -0.029 C 
ATOM     68  H32 GLU d   1      75.713  83.733  21.521  0.00  0.00     0.037 H 
ATOM     69  H33 GLU d   1      76.421  85.033  20.503  0.00  0.00     0.037 H 
BRANCH  67  70
ATOM     70  CG  GLU d   1      74.270  85.083  20.656  0.00  0.00     0.018 C 
ATOM     71  H34 GLU d   1      74.177  86.170  20.518  0.00  0.00     0.049 H 
ATOM     72  H35 GLU d   1      73.512  84.738  21.374  0.00  0.00     0.049 H 
BRANCH  70  73
ATOM     73  CD  GLU d   1      73.987  84.412  19.313  0.00  0.00     0.172 C 
ATOM     74  OE2 GLU d   1      73.889  85.130  18.309  0.00  0.00    -0.648 OA
ATOM     75  OE1 GLU d   1      73.854  83.183  19.276  0.00  0.00    -0.648 OA
ENDBRANCH  70  73
ENDBRANCH  67  70
ENDBRANCH  65  67
BRANCH  65  76
ATOM     76  C   GLU d   1      77.110  85.083  23.266  0.00  0.00     0.241 C 
ATOM     77  O   GLU d   1      78.247  85.463  22.986  0.00  0.00    -0.271 OA
ATOM     78  N   ILE d   1      76.813  84.257  24.280  0.00  0.00    -0.346 N 
ATOM     79  H36 ILE d   1      75.850  84.092  24.491  0.00  0.00     0.163 HD
BRANCH  78  80
ATOM     80  CA  ILE d   1      77.827  83.586  25.092  0.00  0.00     0.092 C 
ATOM     81  H37 ILE d   1      78.604  84.299  25.404  0.00  0.00     0.088 H 
BRANCH  80  82
ATOM     82  CB  ILE d   1      77.133  82.989  26.362  0.00  0.00    -0.030 C 
ATOM     83  H38 ILE d   1      76.339  82.299  26.041  0.00  0.00     0.043 H 
BRANCH  82  84
ATOM     84  CG2 ILE d   1      78.168  82.199  27.170  0.00  0.00    -0.071 C 
ATOM     85  H41 ILE d   1      78.603  81.411  26.538  0.00  0.00     0.028 H 
ATOM     86  H42 ILE d   1      77.680  81.741  28.043  0.00  0.00     0.028 H 
ATOM     87  H43 ILE d   1      78.964  82.878  27.509  0.00  0.00     0.028 H 
ENDBRANCH  82  84
BRANCH  82  88
ATOM     88  CG1 ILE d   1      76.492  84.104  27.194  0.00  0.00    -0.063 C 
ATOM     89  H39 ILE d   1      75.619  84.483  26.643  0.00  0.00     0.033 H 
ATOM     90  H40 ILE d   1      77.230  84.911  27.311  0.00  0.00     0.033 H 
BRANCH  88  91
ATOM     91  CD1 ILE d   1      76.024  83.677  28.595  0.00  0.00    -0.076 C 
ATOM     92  H44 ILE d   1      75.580  84.540  29.112  0.00  0.00     0.027 H 
ATOM     93  H45 ILE d   1      76.884  83.306  29.172  0.00  0.00     0.027 H 
ATOM     94  H46 ILE d   1      75.273  82.879  28.503  0.00  0.00     0.027 H 
ENDBRANCH  88  91
ENDBRANCH  82  88
ENDBRANCH  80  82
BRANCH  80  95
ATOM     95  C   ILE d   1      78.448  82.501  24.197  0.00  0.00     0.243 C 
ATOM     96  O   ILE d   1      77.674  81.794  23.546  0.00  0.00    -0.271 OA
ATOM     97  N   PRO d   1      79.767  82.352  24.026  0.00  0.00    -0.339 N 
ATOM     98  CA  PRO d   1      80.339  81.844  22.778  0.00  0.00     0.065 C 
ATOM     99  CD  PRO d   1      80.785  83.021  24.800  0.00  0.00    -0.001 C 
ATOM    100  CB  PRO d   1      81.841  81.938  23.024  0.00  0.00    -0.039 C 
ATOM    101  H47 PRO d   1      80.073  82.554  21.981  0.00  0.00     0.084 H 
ATOM    102  CG  PRO d   1      81.979  82.164  24.511  0.00  0.00    -0.048 C 
ATOM    103  H49 PRO d   1      82.273  82.780  22.463  0.00  0.00     0.036 H 
ATOM    104  H50 PRO d   1      82.341  81.004  22.727  0.00  0.00     0.036 H 
ATOM    105  H51 PRO d   1      81.936  81.216  25.066  0.00  0.00     0.035 H 
ATOM    106  H52 PRO d   1      82.916  82.688  24.752  0.00  0.00     0.035 H 
ATOM    107  H53 PRO d   1      80.540  83.023  25.872  0.00  0.00     0.064 H 
ATOM    108  H54 PRO d   1      80.938  84.055  24.457  0.00  0.00     0.064 H 
BRANCH  98 109
ATOM    109  C   PRO d   1      79.883  80.471  22.269  0.00  0.00     0.110 C 
ATOM    110  O   PRO d   1      79.331  80.391  21.143  0.00  0.00    -0.305 OA
ATOM    111  H48 PRO d   1      80.035  79.579  22.874  0.00  0.00     0.146 H 
ENDBRANCH  98 109
ENDBRANCH  80  95
ENDBRANCH  78  80
ENDBRANCH  65  76
ENDBRANCH  63  65
ENDBRANCH   1  61
TORSDOF 26
