REMARK  11 active torsions:
REMARK  status: ('A' for Active; 'I' for Inactive)
REMARK    1  A    between atoms: O1_26  and  C7_25 
REMARK    2  A    between atoms: C8_27  and  O1_26 
REMARK    3  A    between atoms: O2_33  and  C10_29 
REMARK    4  A    between atoms: C12_34  and  O2_33 
REMARK    5  A    between atoms: C18_40  and  C17_39 
REMARK    6  A    between atoms: C18_40  and  C19_41 
REMARK    7  A    between atoms: C21_45  and  C18_40 
REMARK    8  A    between atoms: C19_41  and  O4_43 
REMARK    9  A    between atoms: O4_43  and  C20_44 
REMARK   10  A    between atoms: O5_46  and  C21_45 
REMARK   11  A    between atoms: C22_47  and  O5_46 
ROOT
ATOM      1  H   AZO d   1      73.101  52.185 160.519  0.00  0.00     0.086 H 
ATOM      2  H   AZO d   1      71.021  52.765 159.289  0.00  0.00     0.083 H 
ATOM      3  H   AZO d   1      69.421  54.439 160.169  0.00  0.00     0.083 H 
ATOM      4  H   AZO d   1      69.800  55.533 162.370  0.00  0.00     0.087 H 
ATOM      5  N1  AZO d   1      74.812  52.900 163.452  0.00  0.00    -0.191 NA
ATOM      6  C1  AZO d   1      73.869  53.185 162.879  0.00  0.00     0.102 C 
ATOM      7  C2  AZO d   1      72.669  53.509 162.173  0.00  0.00     0.078 A 
ATOM      8  C3  AZO d   1      72.406  52.905 160.936  0.00  0.00    -0.060 A 
ATOM      9  C4  AZO d   1      71.227  53.244 160.239  0.00  0.00    -0.081 A 
ATOM     10  C5  AZO d   1      70.305  54.193 160.746  0.00  0.00    -0.080 A 
ATOM     11  C6  AZO d   1      70.520  54.820 161.985  0.00  0.00    -0.049 A 
ATOM     12  C7  AZO d   1      71.688  54.510 162.727  0.00  0.00     0.098 A 
ENDROOT
BRANCH  12  13
ATOM     13  O1  AZO d   1      71.899  55.064 163.971  0.00  0.00    -0.290 OA
BRANCH  13  14
ATOM     14  C8  AZO d   1      71.062  54.758 165.025  0.00  0.00     0.175 A 
ATOM     15  C9  AZO d   1      71.106  55.554 166.172  0.00  0.00     0.020 A 
ATOM     16  H   AZO d   1      71.832  56.353 166.268  0.00  0.00     0.097 H 
ATOM     17  C10 AZO d   1      70.186  55.291 167.196  0.00  0.00     0.175 A 
ATOM     18  N3  AZO d   1      69.338  54.222 167.075  0.00  0.00    -0.217 NA
ATOM     19  C11 AZO d   1      69.344  53.432 165.978  0.00  0.00     0.092 A 
ATOM     20  H   AZO d   1      68.673  52.583 165.914  0.00  0.00     0.146 H 
ATOM     21  N2  AZO d   1      70.189  53.707 164.965  0.00  0.00    -0.217 NA
BRANCH  17  22
ATOM     22  O2  AZO d   1      70.228  56.087 168.329  0.00  0.00    -0.291 OA
BRANCH  22  23
ATOM     23  C12 AZO d   1      69.354  55.964 169.385  0.00  0.00     0.089 A 
ATOM     24  C13 AZO d   1      69.250  54.755 170.122  0.00  0.00    -0.049 A 
ATOM     25  H   AZO d   1      69.866  53.904 169.856  0.00  0.00     0.087 H 
ATOM     26  C14 AZO d   1      68.350  54.662 171.194  0.00  0.00    -0.080 A 
ATOM     27  H   AZO d   1      68.238  53.722 171.722  0.00  0.00     0.083 H 
ATOM     28  C15 AZO d   1      67.591  55.780 171.590  0.00  0.00    -0.082 A 
ATOM     29  H   AZO d   1      66.905  55.684 172.424  0.00  0.00     0.083 H 
ATOM     30  C16 AZO d   1      67.700  57.021 170.930  0.00  0.00    -0.069 A 
ATOM     31  H   AZO d   1      67.141  57.877 171.290  0.00  0.00     0.085 H 
ATOM     32  C17 AZO d   1      68.533  57.148 169.806  0.00  0.00     0.016 A 
BRANCH  32  33
ATOM     33  C18 AZO d   1      68.705  58.496 169.148  0.00  0.00     0.074 C 
BRANCH  33  34
ATOM     34  C19 AZO d   1      67.855  58.939 168.223  0.00  0.00     0.295 C 
ATOM     35  O3  AZO d   1      67.981  60.056 167.710  0.00  0.00    -0.259 OA
BRANCH  34  36
ATOM     36  O4  AZO d   1      66.757  58.096 167.799  0.00  0.00    -0.322 OA
BRANCH  36  37
ATOM     37  C20 AZO d   1      65.897  58.537 166.752  0.00  0.00     0.013 C 
ATOM     38  H   AZO d   1      65.126  57.775 166.565  0.00  0.00     0.067 H 
ATOM     39  H   AZO d   1      66.486  58.696 165.836  0.00  0.00     0.067 H 
ATOM     40  H   AZO d   1      65.415  59.481 167.046  0.00  0.00     0.067 H 
ENDBRANCH  36  37
ENDBRANCH  34  36
ENDBRANCH  33  34
BRANCH  33  41
ATOM     41  C21 AZO d   1      69.828  59.398 169.588  0.00  0.00     0.028 C 
ATOM     42  H   AZO d   1      70.013  60.385 169.167  0.00  0.00     0.124 H 
BRANCH  41  43
ATOM     43  O5  AZO d   1      70.610  58.823 170.603  0.00  0.00    -0.367 OA
BRANCH  43  44
ATOM     44  C22 AZO d   1      71.604  59.748 170.965  0.00  0.00     0.009 C 
ATOM     45  H   AZO d   1      72.231  59.320 171.761  0.00  0.00     0.066 H 
ATOM     46  H   AZO d   1      71.130  60.672 171.329  0.00  0.00     0.066 H 
ATOM     47  H   AZO d   1      72.229  59.977 170.089  0.00  0.00     0.066 H 
ENDBRANCH  43  44
ENDBRANCH  41  43
ENDBRANCH  33  41
ENDBRANCH  32  33
ENDBRANCH  22  23
ENDBRANCH  17  22
ENDBRANCH  13  14
ENDBRANCH  12  13
TORSDOF 11
