REMARK  15 active torsions:
REMARK  status: ('A' for Active; 'I' for Inactive)
REMARK    1  A    between atoms: N1_1  and  O1_2 
REMARK    2  A    between atoms: N1_1  and  CM1_3 
REMARK    3  A    between atoms: N1_1  and  CM2_4 
REMARK    4  A    between atoms: N1_1  and  C1_5 
REMARK    5  A    between atoms: C1_5  and  C2_6 
REMARK    6  A    between atoms: C2_6  and  C3_7 
REMARK    7  A    between atoms: C3_7  and  C4_8 
REMARK    8  A    between atoms: C4_8  and  C5_9 
REMARK    9  A    between atoms: C5_9  and  C6_10 
REMARK   10  A    between atoms: C6_10  and  C7_11 
REMARK   11  A    between atoms: C7_11  and  C8_12 
REMARK   12  A    between atoms: C8_12  and  C9_13 
REMARK   13  A    between atoms: C9_13  and  C10_14 
REMARK   14  A    between atoms: C10_14  and  C11_15 
REMARK   15  A    between atoms: C11_15  and  C12_16 
ROOT
ATOM      1  C5  LDA d   1     102.200  32.978  25.048  0.00  0.00    -0.065 C 
ATOM      2  H16 LDA d   1     102.080  34.066  24.937  0.00  0.00     0.033 H 
ATOM      3  H17 LDA d   1     103.114  32.767  25.623  0.00  0.00     0.033 H 
ENDROOT
BRANCH   1   4
ATOM      4  C4  LDA d   1     102.254  32.308  23.698  0.00  0.00    -0.065 C 
ATOM      5  H14 LDA d   1     102.346  31.222  23.850  0.00  0.00     0.033 H 
ATOM      6  H15 LDA d   1     101.318  32.525  23.162  0.00  0.00     0.033 H 
BRANCH   4   7
ATOM      7  C3  LDA d   1     103.420  32.778  22.845  0.00  0.00    -0.063 C 
ATOM      8  H12 LDA d   1     103.510  33.873  22.888  0.00  0.00     0.033 H 
ATOM      9  H13 LDA d   1     104.358  32.319  23.192  0.00  0.00     0.033 H 
BRANCH   7  10
ATOM     10  C2  LDA d   1     103.095  32.318  21.398  0.00  0.00    -0.036 C 
ATOM     11  H10 LDA d   1     104.031  32.100  20.862  0.00  0.00     0.036 H 
ATOM     12  H11 LDA d   1     102.472  31.412  21.431  0.00  0.00     0.036 H 
BRANCH  10  13
ATOM     13  C1  LDA d   1     102.332  33.444  20.667  0.00  0.00     0.120 C 
ATOM     14  H8  LDA d   1     101.254  33.304  20.837  0.00  0.00     0.087 H 
ATOM     15  H9  LDA d   1     102.647  34.411  21.087  0.00  0.00     0.087 H 
BRANCH  13  16
ATOM     16  N1  LDA d   1     102.581  33.460  19.212  0.00  0.00    -0.069 N 
BRANCH  16  17
ATOM     17  O1  LDA d   1     102.853  32.376  18.710  0.00  0.00    -0.196 OA
ATOM     18  H1  LDA d   1     102.882  32.465  17.765  0.00  0.00     0.257 HD
ENDBRANCH  16  17
BRANCH  16  19
ATOM     19  CM1 LDA d   1     103.584  34.449  18.861  0.00  0.00     0.101 C 
ATOM     20  H2  LDA d   1     103.323  35.414  19.320  0.00  0.00     0.079 H 
ATOM     21  H3  LDA d   1     103.621  34.561  17.767  0.00  0.00     0.079 H 
ATOM     22  H4  LDA d   1     104.567  34.121  19.230  0.00  0.00     0.079 H 
ENDBRANCH  16  19
BRANCH  16  23
ATOM     23  CM2 LDA d   1     101.477  34.064  18.494  0.00  0.00     0.101 C 
ATOM     24  H5  LDA d   1     101.234  35.037  18.946  0.00  0.00     0.079 H 
ATOM     25  H6  LDA d   1     100.599  33.404  18.550  0.00  0.00     0.079 H 
ATOM     26  H7  LDA d   1     101.760  34.209  17.441  0.00  0.00     0.079 H 
ENDBRANCH  16  23
ENDBRANCH  13  16
ENDBRANCH  10  13
ENDBRANCH   7  10
ENDBRANCH   4   7
ENDBRANCH   1   4
BRANCH   1  27
ATOM     27  C6  LDA d   1     100.956  32.357  25.747  0.00  0.00    -0.065 C 
ATOM     28  H18 LDA d   1     100.227  32.017  24.997  0.00  0.00     0.033 H 
ATOM     29  H19 LDA d   1     100.482  33.096  26.410  0.00  0.00     0.033 H 
BRANCH  27  30
ATOM     30  C7  LDA d   1     101.472  31.170  26.560  0.00  0.00    -0.065 C 
ATOM     31  H20 LDA d   1     102.222  31.535  27.277  0.00  0.00     0.033 H 
ATOM     32  H21 LDA d   1     101.941  30.450  25.873  0.00  0.00     0.033 H 
BRANCH  30  33
ATOM     33  C8  LDA d   1     100.355  30.451  27.339  0.00  0.00    -0.065 C 
ATOM     34  H22 LDA d   1     100.635  29.419  27.596  0.00  0.00     0.033 H 
ATOM     35  H23 LDA d   1      99.406  30.446  26.782  0.00  0.00     0.033 H 
BRANCH  33  36
ATOM     36  C9  LDA d   1     100.283  31.341  28.571  0.00  0.00    -0.065 C 
ATOM     37  H24 LDA d   1      99.277  31.780  28.639  0.00  0.00     0.033 H 
ATOM     38  H25 LDA d   1     101.028  32.145  28.478  0.00  0.00     0.033 H 
BRANCH  36  39
ATOM     39  C10 LDA d   1     100.565  30.544  29.838  0.00  0.00    -0.065 C 
ATOM     40  H26 LDA d   1     101.127  31.152  30.562  0.00  0.00     0.033 H 
ATOM     41  H27 LDA d   1     101.135  29.633  29.604  0.00  0.00     0.033 H 
BRANCH  39  42
ATOM     42  C11 LDA d   1      99.197  30.192  30.385  0.00  0.00    -0.069 C 
ATOM     43  H28 LDA d   1      98.419  30.607  29.727  0.00  0.00     0.032 H 
ATOM     44  H29 LDA d   1      99.085  30.612  31.395  0.00  0.00     0.032 H 
BRANCH  42  45
ATOM     45  C12 LDA d   1      99.059  28.682  30.445  0.00  0.00    -0.077 C 
ATOM     46  H30 LDA d   1      98.067  28.420  30.842  0.00  0.00     0.027 H 
ATOM     47  H31 LDA d   1      99.838  28.268  31.103  0.00  0.00     0.027 H 
ATOM     48  H32 LDA d   1      99.172  28.263  29.434  0.00  0.00     0.027 H 
ENDBRANCH  42  45
ENDBRANCH  39  42
ENDBRANCH  36  39
ENDBRANCH  33  36
ENDBRANCH  30  33
ENDBRANCH  27  30
ENDBRANCH   1  27
TORSDOF 15
