REMARK  12 active torsions:
REMARK  status: ('A' for Active; 'I' for Inactive)
REMARK    1  A    between atoms: O30_1  and  C31_2 
REMARK    2  A    between atoms: C29_8  and  O30_1 
REMARK    3  A    between atoms: C6_14  and  C26_5 
REMARK    4  A    between atoms: C1_9  and  C7_15 
REMARK    5  A    between atoms: C8_22  and  C2_10 
REMARK    6  A    between atoms: C5_13  and  S11_24 
REMARK    7  A    between atoms: C9_16  and  C8_22 
REMARK    8  A    between atoms: N16_19  and  C20_28 
REMARK    9  A    between atoms: S11_24  and  C14_27 
REMARK   10  A    between atoms: C20_28  and  C21_29 
REMARK   11  A    between atoms: C20_28  and  C22_30 
REMARK   12  A    between atoms: C20_28  and  C23_31 
ROOT
ATOM      1  C1  869 d   1      44.971  -1.385   2.741  0.00  0.00    -0.037 A 
ATOM      2  C2  869 d   1      44.926  -1.796   1.368  0.00  0.00     0.004 A 
ATOM      3  C3  869 d   1      46.001  -1.319   0.594  0.00  0.00    -0.069 A 
ATOM      4  C4  869 d   1      47.063  -0.498   1.099  0.00  0.00    -0.060 A 
ATOM      5  C5  869 d   1      47.073  -0.057   2.427  0.00  0.00     0.070 A 
ATOM      6  C6  869 d   1      45.991  -0.536   3.261  0.00  0.00     0.002 A 
ATOM      7  H8  869 d   1      46.028  -1.591  -0.455  0.00  0.00     0.085 H 
ATOM      8  H9  869 d   1      47.874  -0.213   0.439  0.00  0.00     0.085 H 
ENDROOT
BRANCH   2   9
ATOM      9  C8  869 d   1      44.103  -2.968   0.616  0.00  0.00     0.112 C 
ATOM     10  O10 869 d   1      42.823  -2.663   0.416  0.00  0.00    -0.195 OA
BRANCH   9  11
ATOM     11  C9  869 d   1      44.736  -4.102   0.656  0.00  0.00     0.096 A 
ATOM     12  C15 869 d   1      43.630  -4.812   0.447  0.00  0.00     0.190 A 
ATOM     13  N16 869 d   1      44.114  -6.072   0.415  0.00  0.00    -0.240 N 
ATOM     14  O19 869 d   1      42.285  -4.598   0.298  0.00  0.00    -0.174 OA
ATOM     15  N17 869 d   1      45.596  -5.998   0.617  0.00  0.00    -0.185 NA
ATOM     16  C18 869 d   1      45.951  -4.720   0.762  0.00  0.00     0.019 A 
ATOM     17  H14 869 d   1      46.938  -4.288   0.921  0.00  0.00     0.112 H 
ATOM     18  H13 869 d   1      44.703  -4.115   1.755  0.00  0.00     0.072 H 
BRANCH  13  19
ATOM     19  C20 869 d   1      43.624  -7.570   0.426  0.00  0.00     0.047 C 
BRANCH  19  20
ATOM     20  C21 869 d   1      43.396  -7.875   1.917  0.00  0.00    -0.052 C 
ATOM     21  H18 869 d   1      43.048  -8.912   2.030  0.00  0.00     0.030 H 
ATOM     22  H19 869 d   1      42.638  -7.188   2.320  0.00  0.00     0.030 H 
ATOM     23  H20 869 d   1      44.340  -7.743   2.467  0.00  0.00     0.030 H 
ENDBRANCH  19  20
BRANCH  19  24
ATOM     24  C22 869 d   1      42.449  -7.812  -0.433  0.00  0.00    -0.052 C 
ATOM     25  H21 869 d   1      42.165  -8.873  -0.376  0.00  0.00     0.030 H 
ATOM     26  H22 869 d   1      42.696  -7.554  -1.474  0.00  0.00     0.030 H 
ATOM     27  H23 869 d   1      41.610  -7.189  -0.090  0.00  0.00     0.030 H 
ENDBRANCH  19  24
BRANCH  19  28
ATOM     28  C23 869 d   1      44.653  -8.661   0.018  0.00  0.00    -0.052 C 
ATOM     29  H24 869 d   1      44.178  -9.652   0.071  0.00  0.00     0.030 H 
ATOM     30  H25 869 d   1      45.512  -8.630   0.704  0.00  0.00     0.030 H 
ATOM     31  H26 869 d   1      44.998  -8.474  -1.010  0.00  0.00     0.030 H 
ENDBRANCH  19  28
ENDBRANCH  13  19
ENDBRANCH   9  11
ENDBRANCH   2   9
BRANCH   1  32
ATOM     32  C7  869 d   1      43.927  -1.844   3.589  0.00  0.00    -0.049 C 
ATOM     33  H10 869 d   1      43.241  -2.482   3.013  0.00  0.00     0.033 H 
ATOM     34  H11 869 d   1      43.375  -0.982   3.991  0.00  0.00     0.033 H 
ATOM     35  H12 869 d   1      44.357  -2.424   4.419  0.00  0.00     0.033 H 
ENDBRANCH   1  32
BRANCH   6  36
ATOM     36  C26 869 d   1      46.178  -0.159   4.324  0.00  0.00    -0.024 A 
ATOM     37  C25 869 d   1      44.983   0.558   4.525  0.00  0.00    -0.070 A 
ATOM     38  C24 869 d   1      44.806   1.163   5.787  0.00  0.00    -0.050 A 
ATOM     39  H5  869 d   1      44.234   0.641   3.746  0.00  0.00     0.085 H 
ATOM     40  C29 869 d   1      45.778   1.036   6.761  0.00  0.00     0.068 A 
ATOM     41  H4  869 d   1      43.905   1.729   5.993  0.00  0.00     0.087 H 
ATOM     42  C28 869 d   1      46.969   0.312   6.510  0.00  0.00    -0.050 A 
ATOM     43  C27 869 d   1      47.174  -0.288   5.256  0.00  0.00    -0.070 A 
ATOM     44  H7  869 d   1      47.722   0.221   7.285  0.00  0.00     0.087 H 
ATOM     45  H6  869 d   1      48.085  -0.832   5.035  0.00  0.00     0.085 H 
BRANCH  40  46
ATOM     46  O30 869 d   1      45.741   1.599   8.070  0.00  0.00    -0.356 OA
BRANCH  46  47
ATOM     47  C31 869 d   1      47.116   1.876   8.390  0.00  0.00     0.010 C 
ATOM     48  H1  869 d   1      47.177   2.317   9.396  0.00  0.00     0.066 H 
ATOM     49  H2  869 d   1      47.529   2.582   7.654  0.00  0.00     0.066 H 
ATOM     50  H3  869 d   1      47.694   0.940   8.365  0.00  0.00     0.066 H 
ENDBRANCH  46  47
ENDBRANCH  40  46
ENDBRANCH   6  36
BRANCH   5  51
ATOM     51  S11 869 d   1      48.316   0.747   2.837  0.00  0.00     0.172 S 
ATOM     52  O13 869 d   1      49.261   0.288   2.224  0.00  0.00    -0.223 OA
ATOM     53  O12 869 d   1      48.646   0.608   4.163  0.00  0.00    -0.223 OA
BRANCH  51  54
ATOM     54  C14 869 d   1      48.405   1.928   2.667  0.00  0.00     0.020 C 
ATOM     55  H15 869 d   1      49.379   2.279   3.038  0.00  0.00     0.049 H 
ATOM     56  H16 869 d   1      47.599   2.439   3.214  0.00  0.00     0.049 H 
ATOM     57  H17 869 d   1      48.319   2.151   1.593  0.00  0.00     0.049 H 
ENDBRANCH  51  54
ENDBRANCH   5  51
TORSDOF 12
