REMARK  3 active torsions:
REMARK  status: ('A' for Active; 'I' for Inactive)
REMARK    1  A    between atoms: C2_14  and  C7_16 
REMARK    2  A    between atoms: C5_17  and  O12_18 
REMARK    3  A    between atoms: C5_17  and  C11_21 
ROOT
ATOM      1  C11 NDR d   1      -2.868   2.019  21.483  0.00  0.00    -0.078 C 
ATOM      2  C16 NDR d   1      -3.762   1.263  20.970  0.00  0.00    -0.151 C 
ATOM      3  H28 NDR d   1      -4.501   0.638  20.546  0.00  0.00     0.166 H 
ENDROOT
BRANCH   1   4
ATOM      4  C5  NDR d   1      -1.886   2.915  22.119  0.00  0.00     0.128 C 
ATOM      5  C2  NDR d   1      -2.105   2.994  23.657  0.00  0.00     0.003 C 
ATOM      6  C6  NDR d   1      -3.493   3.075  24.194  0.00  0.00    -0.054 C 
ATOM      7  C1  NDR d   1      -1.444   1.714  24.163  0.00  0.00    -0.040 C 
ATOM      8  C13 NDR d   1      -3.650   2.819  25.755  0.00  0.00    -0.060 C 
ATOM      9  H17 NDR d   1      -3.880   4.082  23.977  0.00  0.00     0.034 H 
ATOM     10  H18 NDR d   1      -4.102   2.326  23.667  0.00  0.00     0.034 H 
ATOM     11  C8  NDR d   1      -2.808   1.627  26.254  0.00  0.00    -0.046 C 
ATOM     12  H15 NDR d   1      -3.331   3.724  26.293  0.00  0.00     0.033 H 
ATOM     13  H16 NDR d   1      -4.709   2.617  25.973  0.00  0.00     0.033 H 
ATOM     14  C14 NDR d   1      -2.958   1.333  27.677  0.00  0.00    -0.046 C 
ATOM     15  C3  NDR d   1      -1.616   1.381  25.550  0.00  0.00    -0.046 C 
ATOM     16  H11 NDR d   1      -3.404   0.794  25.852  0.00  0.00     0.041 H 
ATOM     17  C17 NDR d   1      -2.191   0.216  28.106  0.00  0.00    -0.044 C 
ATOM     18  C18 NDR d   1      -4.385   1.292  28.263  0.00  0.00    -0.055 C 
ATOM     19  H8  NDR d   1      -2.494   2.200  28.170  0.00  0.00     0.041 H 
ATOM     20  C19 NDR d   1      -2.586  -0.678  29.160  0.00  0.00    -0.006 C 
ATOM     21  C15 NDR d   1      -0.856  -0.121  27.459  0.00  0.00    -0.061 C 
ATOM     22  H5  NDR d   1      -2.724  -0.406  27.371  0.00  0.00     0.041 H 
ATOM     23  C21 NDR d   1      -3.731  -0.334  29.959  0.00  0.00     0.127 C 
ATOM     24  H3  NDR d   1      -2.795  -1.654  28.697  0.00  0.00     0.044 H 
ATOM     25  H4  NDR d   1      -1.730  -0.772  29.844  0.00  0.00     0.044 H 
ATOM     26  O22 NDR d   1      -4.122  -1.147  30.768  0.00  0.00    -0.298 OA
ATOM     27  C20 NDR d   1      -4.490   0.988  29.742  0.00  0.00    -0.009 C 
ATOM     28  H1  NDR d   1      -4.029   1.794  30.331  0.00  0.00     0.044 H 
ATOM     29  H2  NDR d   1      -5.544   0.876  30.035  0.00  0.00     0.044 H 
ATOM     30  C9  NDR d   1      -0.962   0.070  25.988  0.00  0.00    -0.061 C 
ATOM     31  H6  NDR d   1      -0.596  -1.168  27.676  0.00  0.00     0.033 H 
ATOM     32  H7  NDR d   1      -0.075   0.542  27.860  0.00  0.00     0.033 H 
ATOM     33  H13 NDR d   1      -1.556  -0.760  25.578  0.00  0.00     0.033 H 
ATOM     34  H14 NDR d   1       0.053   0.038  25.566  0.00  0.00     0.033 H 
ATOM     35  H9  NDR d   1      -4.848   2.274  28.088  0.00  0.00     0.034 H 
ATOM     36  H10 NDR d   1      -4.949   0.519  27.720  0.00  0.00     0.034 H 
ATOM     37  H12 NDR d   1      -0.955   2.132  26.007  0.00  0.00     0.041 H 
ATOM     38  C4  NDR d   1      -0.225   1.511  23.280  0.00  0.00    -0.057 C 
ATOM     39  H19 NDR d   1      -2.103   0.938  23.747  0.00  0.00     0.042 H 
ATOM     40  C10 NDR d   1      -0.450   2.347  22.017  0.00  0.00    -0.025 C 
ATOM     41  H26 NDR d   1      -0.121   0.448  23.017  0.00  0.00     0.033 H 
ATOM     42  H27 NDR d   1       0.682   1.850  23.802  0.00  0.00     0.033 H 
ATOM     43  H24 NDR d   1       0.281   3.167  21.969  0.00  0.00     0.038 H 
ATOM     44  H25 NDR d   1      -0.353   1.716  21.121  0.00  0.00     0.038 H 
BRANCH   5  45
ATOM     45  C7  NDR d   1      -1.414   4.238  24.232  0.00  0.00    -0.065 C 
ATOM     46  H20 NDR d   1      -1.578   4.279  25.319  0.00  0.00     0.028 H 
ATOM     47  H21 NDR d   1      -1.834   5.140  23.763  0.00  0.00     0.028 H 
ATOM     48  H22 NDR d   1      -0.335   4.186  24.026  0.00  0.00     0.028 H 
ENDBRANCH   5  45
BRANCH   4  49
ATOM     49  O12 NDR d   1      -1.989   4.155  21.420  0.00  0.00    -0.377 OA
ATOM     50  H23 NDR d   1      -2.857   4.519  21.550  0.00  0.00     0.211 HD
ENDBRANCH   4  49
ENDBRANCH   1   4
TORSDOF 3
