REMARK  18 active torsions:
REMARK  status: ('A' for Active; 'I' for Inactive)
REMARK       I    between atoms: C1_2  and  N1_3 
REMARK    1  A    between atoms: C1_2  and  C2_4 
REMARK    2  A    between atoms: C3_5  and  O2_6 
REMARK    3  A    between atoms: C3_5  and  C5_8 
REMARK    4  A    between atoms: O2_6  and  C4_7 
REMARK    5  A    between atoms: C5_8  and  C6_9 
REMARK    6  A    between atoms: C5_8  and  C7_10 
REMARK    7  A    between atoms: C7_10  and  O3_11 
REMARK    8  A    between atoms: C7_10  and  C9_13 
REMARK    9  A    between atoms: O3_11  and  C8_12 
REMARK   10  A    between atoms: C10_14  and  C11_15 
REMARK   11  A    between atoms: C13_18  and  C14_19 
REMARK   12  A    between atoms: C16_22  and  C17_23 
REMARK   13  A    between atoms: C17_23  and  C18_24 
REMARK   14  A    between atoms: C17_23  and  C19_25 
REMARK   15  A    between atoms: C20_26  and  C21_27 
REMARK   16  A    between atoms: C22_28  and  C23_29 
REMARK   17  A    between atoms: C23_29  and  C24_30 
REMARK   18  A    between atoms: C23_29  and  C25_31 
ROOT
ATOM      1  C11 MYX d   1      70.106  54.735 166.438  0.00  0.00     0.064 A 
ATOM      2  C12 MYX d   1      69.817  53.691 165.656  0.00  0.00    -0.015 A 
ATOM      3  N2  MYX d   1      71.029  55.597 165.988  0.00  0.00    -0.239 NA
ATOM      4  C13 MYX d   1      71.477  55.194 164.679  0.00  0.00     0.127 A 
ATOM      5  S1  MYX d   1      70.708  53.747 164.216  0.00  0.00    -0.078 SA
ATOM      6  H   MYX d   1      69.103  52.908 165.911  0.00  0.00     0.098 H 
ENDROOT
BRANCH   1   7
ATOM      7  C10 MYX d   1      69.383  54.880 167.749  0.00  0.00    -0.056 C 
ATOM      8  C9  MYX d   1      69.675  55.903 168.561  0.00  0.00    -0.073 C 
ATOM      9  H   MYX d   1      70.351  56.672 168.186  0.00  0.00     0.081 H 
ATOM     10  H   MYX d   1      68.623  54.154 168.037  0.00  0.00     0.086 H 
BRANCH   8  11
ATOM     11  C7  MYX d   1      69.127  56.067 169.976  0.00  0.00     0.063 C 
ATOM     12  H   MYX d   1      69.994  56.299 170.595  0.00  0.00     0.090 H 
BRANCH  11  13
ATOM     13  C5  MYX d   1      68.202  57.273 170.113  0.00  0.00     0.017 C 
ATOM     14  H   MYX d   1      67.404  57.146 169.381  0.00  0.00     0.054 H 
BRANCH  13  15
ATOM     15  C3  MYX d   1      68.979  58.551 169.850  0.00  0.00     0.057 C 
ATOM     16  C2  MYX d   1      68.577  59.516 168.929  0.00  0.00     0.011 C 
ATOM     17  H   MYX d   1      69.266  60.349 168.785  0.00  0.00     0.096 H 
BRANCH  16  18
ATOM     18  C1  MYX d   1      67.297  59.561 168.094  0.00  0.00     0.241 C 
ATOM     19  O1  MYX d   1      66.477  58.654 168.113  0.00  0.00    -0.269 OA
ATOM     20  N1  MYX d   1      67.080  60.607 167.299  0.00  0.00    -0.367 N 
ATOM     21  H   MYX d   1      66.241  60.642 166.720  0.00  0.00     0.159 HD
ATOM     22  H   MYX d   1      67.752  61.373 167.269  0.00  0.00     0.159 HD
ENDBRANCH  16  18
BRANCH  15  23
ATOM     23  O2  MYX d   1      70.234  58.699 170.596  0.00  0.00    -0.360 OA
BRANCH  23  24
ATOM     24  C4  MYX d   1      71.091  59.820 170.501  0.00  0.00     0.010 C 
ATOM     25  H   MYX d   1      71.433  59.928 169.472  0.00  0.00     0.066 H 
ATOM     26  H   MYX d   1      70.549  60.717 170.802  0.00  0.00     0.066 H 
ATOM     27  H   MYX d   1      71.950  59.676 171.157  0.00  0.00     0.066 H 
ENDBRANCH  23  24
ENDBRANCH  15  23
ENDBRANCH  13  15
BRANCH  13  28
ATOM     28  C6  MYX d   1      67.567  57.366 171.503  0.00  0.00    -0.065 C 
ATOM     29  H   MYX d   1      68.350  57.486 172.251  0.00  0.00     0.028 H 
ATOM     30  H   MYX d   1      66.895  58.224 171.537  0.00  0.00     0.028 H 
ATOM     31  H   MYX d   1      67.005  56.454 171.706  0.00  0.00     0.028 H 
ENDBRANCH  13  28
ENDBRANCH  11  13
BRANCH  11  32
ATOM     32  O3  MYX d   1      68.627  54.854 170.571  0.00  0.00    -0.386 OA
BRANCH  32  33
ATOM     33  C8  MYX d   1      69.658  54.027 171.143  0.00  0.00     0.005 C 
ATOM     34  H   MYX d   1      70.366  53.742 170.365  0.00  0.00     0.066 H 
ATOM     35  H   MYX d   1      70.177  54.584 171.923  0.00  0.00     0.066 H 
ATOM     36  H   MYX d   1      69.208  53.132 171.572  0.00  0.00     0.066 H 
ENDBRANCH  32  33
ENDBRANCH  11  32
ENDBRANCH   8  11
ENDBRANCH   1   7
BRANCH   4  37
ATOM     37  C14 MYX d   1      72.496  55.827 163.863  0.00  0.00     0.095 A 
ATOM     38  C15 MYX d   1      73.261  56.889 164.333  0.00  0.00    -0.016 A 
ATOM     39  S2  MYX d   1      74.464  57.367 163.216  0.00  0.00    -0.101 SA
ATOM     40  H   MYX d   1      73.111  57.363 165.303  0.00  0.00     0.098 H 
ATOM     41  C16 MYX d   1      73.937  56.180 162.065  0.00  0.00     0.150 A 
ATOM     42  N3  MYX d   1      72.859  55.370 162.592  0.00  0.00    -0.260 NA
BRANCH  41  43
ATOM     43  C17 MYX d   1      74.626  55.931 160.713  0.00  0.00    -0.002 C 
ATOM     44  H   MYX d   1      75.519  55.350 160.943  0.00  0.00     0.051 H 
BRANCH  43  45
ATOM     45  C18 MYX d   1      73.777  55.099 159.770  0.00  0.00    -0.066 C 
ATOM     46  H   MYX d   1      73.573  54.130 160.226  0.00  0.00     0.028 H 
ATOM     47  H   MYX d   1      72.837  55.616 159.577  0.00  0.00     0.028 H 
ATOM     48  H   MYX d   1      74.313  54.955 158.832  0.00  0.00     0.028 H 
ENDBRANCH  43  45
BRANCH  43  49
ATOM     49  C19 MYX d   1      75.082  57.219 160.043  0.00  0.00    -0.096 C 
ATOM     50  C20 MYX d   1      76.429  57.402 159.828  0.00  0.00    -0.086 C 
ATOM     51  H   MYX d   1      77.146  56.637 160.128  0.00  0.00     0.083 H 
ATOM     52  H   MYX d   1      74.360  57.978 159.741  0.00  0.00     0.077 H 
BRANCH  50  53
ATOM     53  C21 MYX d   1      76.903  58.687 159.166  0.00  0.00    -0.086 C 
ATOM     54  C22 MYX d   1      78.252  58.864 158.954  0.00  0.00    -0.100 C 
ATOM     55  H   MYX d   1      78.955  58.088 159.256  0.00  0.00     0.077 H 
ATOM     56  H   MYX d   1      76.188  59.453 158.865  0.00  0.00     0.083 H 
BRANCH  54  57
ATOM     57  C23 MYX d   1      78.764  60.135 158.302  0.00  0.00    -0.045 C 
ATOM     58  H   MYX d   1      77.928  60.637 157.815  0.00  0.00     0.044 H 
BRANCH  57  59
ATOM     59  C24 MYX d   1      79.362  61.046 159.363  0.00  0.00    -0.070 C 
ATOM     60  H   MYX d   1      78.597  61.297 160.097  0.00  0.00     0.028 H 
ATOM     61  H   MYX d   1      80.187  60.533 159.857  0.00  0.00     0.028 H 
ATOM     62  H   MYX d   1      79.729  61.958 158.892  0.00  0.00     0.028 H 
ENDBRANCH  57  59
BRANCH  57  63
ATOM     63  C25 MYX d   1      79.815  59.817 157.244  0.00  0.00    -0.070 C 
ATOM     64  H   MYX d   1      80.653  59.299 157.710  0.00  0.00     0.028 H 
ATOM     65  H   MYX d   1      79.375  59.181 156.476  0.00  0.00     0.028 H 
ATOM     66  H   MYX d   1      80.166  60.745 156.792  0.00  0.00     0.028 H 
ENDBRANCH  57  63
ENDBRANCH  54  57
ENDBRANCH  50  53
ENDBRANCH  43  49
ENDBRANCH  41  43
ENDBRANCH   4  37
TORSDOF 18
