REMARK  8 active torsions:
REMARK  status: ('A' for Active; 'I' for Inactive)
REMARK    1  A    between atoms: O1_20  and  C5_19 
REMARK    2  A    between atoms: C1_21  and  O1_20 
REMARK    3  A    between atoms: C2_23  and  C1_21 
REMARK    4  A    between atoms: C6_27  and  C2_23 
REMARK    5  A    between atoms: C3_24  and  O2_25 
REMARK    6  A    between atoms: O2_25  and  C4_26 
REMARK    7  A    between atoms: C12_33  and  C7_29 
REMARK    8  A    between atoms: C14_35  and  C13_34 
ROOT
ATOM      1  H   OST d   1      67.364  57.679 172.318  0.00  0.00     0.084 H 
ATOM      2  H   OST d   1      69.537  53.613 170.326  0.00  0.00     0.084 H 
ATOM      3  H   OST d   1      68.241  53.432 172.456  0.00  0.00     0.083 H 
ATOM      4  H   OST d   1      67.252  55.484 173.502  0.00  0.00     0.083 H 
ATOM      5  C6  OST d   1      68.580  56.975 170.628  0.00  0.00    -0.008 C 
ATOM      6  C11 OST d   1      67.851  56.816 171.880  0.00  0.00    -0.071 C 
ATOM      7  C7  OST d   1      69.074  55.733 170.012  0.00  0.00    -0.025 C 
ATOM      8  C8  OST d   1      69.033  54.484 170.729  0.00  0.00    -0.072 C 
ATOM      9  C9  OST d   1      68.336  54.391 171.960  0.00  0.00    -0.082 C 
ATOM     10  C10 OST d   1      67.760  55.555 172.547  0.00  0.00    -0.082 C 
ENDROOT
BRANCH   5  11
ATOM     11  C2  OST d   1      68.709  58.348 169.992  0.00  0.00     0.072 C 
ATOM     12  C3  OST d   1      69.714  59.205 170.205  0.00  0.00     0.028 C 
ATOM     13  H   OST d   1      69.847  60.085 169.577  0.00  0.00     0.124 H 
BRANCH  11  14
ATOM     14  C1  OST d   1      67.652  58.922 169.164  0.00  0.00     0.295 C 
ATOM     15  O3  OST d   1      66.462  58.614 169.252  0.00  0.00    -0.259 OA
BRANCH  14  16
ATOM     16  O1  OST d   1      68.021  59.985 168.381  0.00  0.00    -0.322 OA
BRANCH  16  17
ATOM     17  C5  OST d   1      66.971  60.695 167.636  0.00  0.00     0.013 C 
ATOM     18  H   OST d   1      67.422  61.516 167.060  0.00  0.00     0.067 H 
ATOM     19  H   OST d   1      66.234  61.105 168.342  0.00  0.00     0.067 H 
ATOM     20  H   OST d   1      66.472  59.996 166.949  0.00  0.00     0.067 H 
ENDBRANCH  16  17
ENDBRANCH  14  16
ENDBRANCH  11  14
BRANCH  12  21
ATOM     21  O2  OST d   1      70.517  58.954 171.177  0.00  0.00    -0.367 OA
BRANCH  21  22
ATOM     22  C4  OST d   1      71.439  60.015 171.391  0.00  0.00     0.009 C 
ATOM     23  H   OST d   1      72.105  59.759 172.229  0.00  0.00     0.066 H 
ATOM     24  H   OST d   1      70.888  60.937 171.629  0.00  0.00     0.066 H 
ATOM     25  H   OST d   1      72.038  60.170 170.481  0.00  0.00     0.066 H 
ENDBRANCH  21  22
ENDBRANCH  12  21
ENDBRANCH   5  11
BRANCH   7  26
ATOM     26  C12 OST d   1      69.773  55.793 168.733  0.00  0.00    -0.071 C 
ATOM     27  H   OST d   1      70.501  56.583 168.555  0.00  0.00     0.084 H 
ATOM     28  C13 OST d   1      69.529  54.880 167.765  0.00  0.00    -0.072 C 
ATOM     29  H   OST d   1      68.688  54.198 167.885  0.00  0.00     0.084 H 
BRANCH  28  30
ATOM     30  C14 OST d   1      70.355  54.778 166.565  0.00  0.00    -0.036 A 
ATOM     31  C15 OST d   1      70.967  55.948 165.973  0.00  0.00    -0.073 A 
ATOM     32  H   OST d   1      70.841  56.919 166.439  0.00  0.00     0.084 H 
ATOM     33  C16 OST d   1      71.740  55.827 164.772  0.00  0.00    -0.082 A 
ATOM     34  H   OST d   1      72.215  56.700 164.340  0.00  0.00     0.083 H 
ATOM     35  C17 OST d   1      71.882  54.545 164.145  0.00  0.00    -0.083 A 
ATOM     36  H   OST d   1      72.477  54.444 163.245  0.00  0.00     0.083 H 
ATOM     37  C18 OST d   1      71.234  53.394 164.712  0.00  0.00    -0.082 A 
ATOM     38  H   OST d   1      71.320  52.430 164.223  0.00  0.00     0.083 H 
ATOM     39  C19 OST d   1      70.477  53.516 165.919  0.00  0.00    -0.073 A 
ATOM     40  H   OST d   1      69.994  52.643 166.344  0.00  0.00     0.084 H 
ENDBRANCH  28  30
ENDBRANCH   7  26
TORSDOF 8
