REMARK  5 active torsions:
REMARK  status: ('A' for Active; 'I' for Inactive)
REMARK    1  A    between atoms: N1_14  and  C1_1 
REMARK    2  A    between atoms: C2_2  and  C_13 
REMARK    3  A    between atoms: N1'_15  and  C1'_7 
REMARK    4  A    between atoms: C4'_10  and  O4'_18 
REMARK    5  A    between atoms: N1_14  and  N1'_15 
ROOT
ATOM      1  N1  HAB d   1      33.338  13.422  -6.298  0.00  0.00    -0.149 NA
ENDROOT
BRANCH   1   2
ATOM      2  C1  HAB d   1      33.408  12.227  -5.389  0.00  0.00     0.096 A 
ATOM      3  C2  HAB d   1      34.488  11.954  -4.617  0.00  0.00     0.071 A 
ATOM      4  C3  HAB d   1      34.463  10.821  -3.771  0.00  0.00    -0.064 A 
ATOM      5  C4  HAB d   1      33.310  10.023  -3.744  0.00  0.00    -0.082 A 
ATOM      6  H1  HAB d   1      35.320  10.574  -3.155  0.00  0.00     0.085 H 
ATOM      7  C5  HAB d   1      32.188  10.344  -4.510  0.00  0.00    -0.081 A 
ATOM      8  H2  HAB d   1      33.290   9.140  -3.116  0.00  0.00     0.083 H 
ATOM      9  C6  HAB d   1      32.219  11.455  -5.356  0.00  0.00    -0.052 A 
ATOM     10  H3  HAB d   1      31.295   9.733  -4.448  0.00  0.00     0.083 H 
ATOM     11  H4  HAB d   1      31.363  11.718  -5.967  0.00  0.00     0.087 H 
BRANCH   3  12
ATOM     12  C   HAB d   1      35.737  12.830  -4.645  0.00  0.00     0.211 C 
ATOM     13  O   HAB d   1      36.545  12.666  -3.725  0.00  0.00    -0.644 OA
ATOM     14  OXT HAB d   1      36.000  13.830  -5.611  0.00  0.00    -0.644 OA
ENDBRANCH   3  12
ENDBRANCH   1   2
BRANCH   1  15
ATOM     15  N1' HAB d   1      32.190  13.332  -6.906  0.00  0.00    -0.150 NA
BRANCH  15  16
ATOM     16  C1' HAB d   1      31.779  14.394  -7.840  0.00  0.00     0.079 A 
ATOM     17  C2' HAB d   1      32.631  15.489  -8.001  0.00  0.00    -0.051 A 
ATOM     18  C3' HAB d   1      32.227  16.501  -8.854  0.00  0.00    -0.049 A 
ATOM     19  H5  HAB d   1      33.577  15.544  -7.475  0.00  0.00     0.087 H 
ATOM     20  C4' HAB d   1      31.011  16.427  -9.522  0.00  0.00     0.065 A 
ATOM     21  H6  HAB d   1      32.868  17.363  -9.003  0.00  0.00     0.087 H 
ATOM     22  C5' HAB d   1      30.151  15.340  -9.339  0.00  0.00    -0.049 A 
ATOM     23  C6' HAB d   1      30.537  14.302  -8.482  0.00  0.00    -0.051 A 
ATOM     24  H7  HAB d   1      29.198  15.301  -9.854  0.00  0.00     0.087 H 
ATOM     25  H8  HAB d   1      29.890  13.447  -8.319  0.00  0.00     0.087 H 
BRANCH  20  26
ATOM     26  O4' HAB d   1      30.608  17.491 -10.338  0.00  0.00    -0.361 OA
ATOM     27  H9  HAB d   1      31.294  18.147 -10.363  0.00  0.00     0.217 HD
ENDBRANCH  20  26
ENDBRANCH  15  16
ENDBRANCH   1  15
TORSDOF 5
