REMARK  6 active torsions:
REMARK  status: ('A' for Active; 'I' for Inactive)
REMARK    1  A    between atoms: C1_1  and  N1_16 
REMARK    2  A    between atoms: C2_2  and  C_13 
REMARK    3  A    between atoms: N1'_17  and  C1'_7 
REMARK    4  A    between atoms: C3'_9  and  CM3_14 
REMARK    5  A    between atoms: C4'_10  and  O4'_20 
REMARK    6  A    between atoms: C5'_11  and  CM5_15 
ROOT
ATOM      1  C1' DMB d   1      20.589   4.084  15.077  0.00  0.00     0.080 A 
ATOM      2  C2' DMB d   1      20.228   4.862  16.181  0.00  0.00    -0.045 A 
ATOM      3  C3' DMB d   1      21.134   5.044  17.236  0.00  0.00    -0.026 A 
ATOM      4  C4' DMB d   1      22.396   4.456  17.177  0.00  0.00     0.077 A 
ATOM      5  C5' DMB d   1      22.764   3.666  16.085  0.00  0.00    -0.026 A 
ATOM      6  C6' DMB d   1      21.852   3.478  15.038  0.00  0.00    -0.045 A 
ATOM      7  H5  DMB d   1      19.248   5.324  16.222  0.00  0.00     0.088 H 
ATOM      8  H6  DMB d   1      22.125   2.859  14.191  0.00  0.00     0.088 H 
ENDROOT
BRANCH   1   9
ATOM      9  N1' DMB d   1      19.630   3.887  13.975  0.00  0.00    -0.150 NA
ATOM     10  N1  DMB d   1      18.998   4.846  13.447  0.00  0.00    -0.149 NA
BRANCH  10  11
ATOM     11  C1  DMB d   1      18.739   4.756  11.985  0.00  0.00     0.096 A 
ATOM     12  C6  DMB d   1      19.749   4.257  11.142  0.00  0.00    -0.052 A 
ATOM     13  C5  DMB d   1      19.511   4.159   9.782  0.00  0.00    -0.081 A 
ATOM     14  H4  DMB d   1      20.704   3.952  11.554  0.00  0.00     0.087 H 
ATOM     15  C4  DMB d   1      18.283   4.546   9.238  0.00  0.00    -0.082 A 
ATOM     16  H3  DMB d   1      20.288   3.777   9.130  0.00  0.00     0.083 H 
ATOM     17  C3  DMB d   1      17.273   5.036  10.061  0.00  0.00    -0.064 A 
ATOM     18  H2  DMB d   1      18.116   4.464   8.170  0.00  0.00     0.083 H 
ATOM     19  C2  DMB d   1      17.519   5.137  11.453  0.00  0.00     0.071 A 
ATOM     20  H1  DMB d   1      16.317   5.334   9.646  0.00  0.00     0.085 H 
BRANCH  19  21
ATOM     21  C   DMB d   1      16.398   5.747  12.303  0.00  0.00     0.211 C 
ATOM     22  OXT DMB d   1      16.408   5.877  13.491  0.00  0.00    -0.644 OA
ATOM     23  O   DMB d   1      15.326   6.310  11.534  0.00  0.00    -0.644 OA
ENDBRANCH  19  21
ENDBRANCH  10  11
ENDBRANCH   1   9
BRANCH   5  24
ATOM     24  CM5 DMB d   1      24.160   3.017  16.063  0.00  0.00    -0.049 C 
ATOM     25  H10 DMB d   1      24.707   3.294  16.976  0.00  0.00     0.033 H 
ATOM     26  H11 DMB d   1      24.715   3.370  15.181  0.00  0.00     0.033 H 
ATOM     27  H12 DMB d   1      24.055   1.923  16.016  0.00  0.00     0.033 H 
ENDBRANCH   5  24
BRANCH   3  28
ATOM     28  CM3 DMB d   1      20.766   5.906  18.448  0.00  0.00    -0.049 C 
ATOM     29  H7  DMB d   1      19.741   6.287  18.329  0.00  0.00     0.033 H 
ATOM     30  H8  DMB d   1      21.465   6.752  18.522  0.00  0.00     0.033 H 
ATOM     31  H9  DMB d   1      20.827   5.298  19.363  0.00  0.00     0.033 H 
ENDBRANCH   3  28
BRANCH   4  32
ATOM     32  O4' DMB d   1      23.319   4.655  18.253  0.00  0.00    -0.360 OA
ATOM     33  H13 DMB d   1      24.128   4.194  18.064  0.00  0.00     0.217 HD
ENDBRANCH   4  32
TORSDOF 6
