REMARK  5 active torsions:
REMARK  status: ('A' for Active; 'I' for Inactive)
REMARK    1  A    between atoms: C11_1  and  C10_4 
REMARK    2  A    between atoms: C10_4  and  C9_5 
REMARK    3  A    between atoms: C9_5  and  C8_6 
REMARK    4  A    between atoms: C8_6  and  C7_7 
REMARK    5  A    between atoms: C7_7  and  C2_8 
ROOT
ATOM      1  C2  BTN d   1      10.923   1.086 -10.195  0.00  0.00     0.012 C 
ATOM      2  S1  BTN d   1      10.884   2.103  -8.662  0.00  0.00    -0.160 SA
ATOM      3  C6  BTN d   1      10.299   0.620  -7.760  0.00  0.00    -0.002 C 
ATOM      4  C5  BTN d   1      11.142  -0.543  -8.274  0.00  0.00     0.042 A 
ATOM      5  N1  BTN d   1      12.443  -0.631  -7.613  0.00  0.00    -0.336 N 
ATOM      6  C3  BTN d   1      13.467  -0.443  -8.453  0.00  0.00     0.316 A 
ATOM      7  O3  BTN d   1      14.692  -0.446  -8.205  0.00  0.00    -0.247 OA
ATOM      8  N2  BTN d   1      12.974  -0.237  -9.695  0.00  0.00    -0.335 N 
ATOM      9  C4  BTN d   1      11.513  -0.265  -9.727  0.00  0.00     0.046 A 
ATOM     10  H9  BTN d   1       9.878   0.934 -10.502  0.00  0.00     0.059 H 
ATOM     11  H10 BTN d   1       9.234   0.441  -7.968  0.00  0.00     0.052 H 
ATOM     12  H11 BTN d   1      10.445   0.749  -6.677  0.00  0.00     0.052 H 
ATOM     13  H12 BTN d   1      10.583  -1.485  -8.168  0.00  0.00     0.077 H 
ATOM     14  H13 BTN d   1      12.556  -0.813  -6.636  0.00  0.00     0.164 HD
ATOM     15  H14 BTN d   1      13.545  -0.083 -10.501  0.00  0.00     0.164 HD
ATOM     16  H15 BTN d   1      11.152  -1.067 -10.387  0.00  0.00     0.077 H 
ENDROOT
BRANCH   1  17
ATOM     17  C7  BTN d   1      11.627   1.558 -11.402  0.00  0.00    -0.051 C 
ATOM     18  H7  BTN d   1      12.699   1.421 -11.197  0.00  0.00     0.034 H 
ATOM     19  H8  BTN d   1      11.320   0.881 -12.213  0.00  0.00     0.034 H 
BRANCH  17  20
ATOM     20  C8  BTN d   1      11.487   2.972 -11.964  0.00  0.00    -0.063 C 
ATOM     21  H5  BTN d   1      11.579   3.681 -11.128  0.00  0.00     0.033 H 
ATOM     22  H6  BTN d   1      12.307   3.138 -12.678  0.00  0.00     0.033 H 
BRANCH  20  23
ATOM     23  C9  BTN d   1      10.215   3.247 -12.658  0.00  0.00    -0.056 C 
ATOM     24  H3  BTN d   1       9.899   2.334 -13.184  0.00  0.00     0.033 H 
ATOM     25  H4  BTN d   1       9.458   3.518 -11.907  0.00  0.00     0.033 H 
BRANCH  23  26
ATOM     26  C10 BTN d   1      10.321   4.413 -13.702  0.00  0.00     0.016 C 
ATOM     27  H1  BTN d   1      10.545   5.350 -13.171  0.00  0.00     0.049 H 
ATOM     28  H2  BTN d   1      11.133   4.189 -14.409  0.00  0.00     0.049 H 
BRANCH  26  29
ATOM     29  C11 BTN d   1       9.051   4.576 -14.459  0.00  0.00     0.172 C 
ATOM     30  O11 BTN d   1       8.147   5.373 -14.172  0.00  0.00    -0.648 OA
ATOM     31  O12 BTN d   1       8.697   3.498 -15.132  0.00  0.00    -0.648 OA
ENDBRANCH  26  29
ENDBRANCH  23  26
ENDBRANCH  20  23
ENDBRANCH  17  20
ENDBRANCH   1  17
TORSDOF 5
