REMARK  27 active torsions:
REMARK  status: ('A' for Active; 'I' for Inactive)
REMARK    1  A    between atoms: CA_2  and  N_1 
REMARK    2  A    between atoms: CA_2  and  CB_5 
REMARK    3  A    between atoms: C_3  and  CA_2 
REMARK       I    between atoms: N_12  and  C_3 
REMARK    4  A    between atoms: CB_5  and  CG_6 
REMARK    5  A    between atoms: CA_13  and  N_12 
REMARK    6  A    between atoms: CA_13  and  CB_16 
REMARK    7  A    between atoms: C_14  and  CA_13 
REMARK       I    between atoms: N_18  and  C_14 
REMARK    8  A    between atoms: CB_16  and  SG_17 
REMARK    9  A    between atoms: CA_19  and  N_18 
REMARK   10  A    between atoms: CA_19  and  CB_22 
REMARK   11  A    between atoms: C_20  and  CA_19 
REMARK       I    between atoms: N_28  and  C_20 
REMARK   12  A    between atoms: CB_22  and  CG_23 
REMARK   13  A    between atoms: C_30  and  CA_29 
REMARK       I    between atoms: N_35  and  C_30 
REMARK   14  A    between atoms: CA_36  and  N_35 
REMARK   15  A    between atoms: CA_36  and  CB_39 
REMARK   16  A    between atoms: C_37  and  CA_36 
REMARK       I    between atoms: N_44  and  C_37 
REMARK   17  A    between atoms: CB_39  and  CG_40 
REMARK   18  A    between atoms: CG_40  and  CD_41 
REMARK       I    between atoms: CD_41  and  NE2_43 
REMARK   19  A    between atoms: CA_45  and  N_44 
REMARK   20  A    between atoms: CA_45  and  CB_48 
REMARK   21  A    between atoms: C_46  and  CA_45 
REMARK       I    between atoms: C_46  and  N_52 
REMARK   22  A    between atoms: CB_48  and  CG_49 
REMARK       I    between atoms: CG_49  and  ND2_51 
REMARK   23  A    between atoms: N_52  and  CA_53 
REMARK   24  A    between atoms: CA_53  and  CB_56 
REMARK   25  A    between atoms: CA_53  and  C_54 
REMARK       I    between atoms: C_54  and  N_59 
REMARK   26  A    between atoms: CB_56  and  CG2_58 
REMARK   27  A    between atoms: CB_56  and  OG1_57 
ROOT
ATOM      1  C   HIS d   1      19.879   3.081  18.899  0.00  0.00     0.243 C 
ATOM      2  O   HIS d   1      18.696   2.763  18.679  0.00  0.00    -0.271 OA
ATOM      3  N   PRO d   1      20.226   4.363  19.111  0.00  0.00    -0.337 N 
ATOM      4  CA  PRO d   1      19.278   5.449  19.013  0.00  0.00     0.091 C 
ATOM      5  CB  PRO d   1      20.068   6.694  19.388  0.00  0.00    -0.036 C 
ATOM      6  CG  PRO d   1      21.389   6.219  19.951  0.00  0.00    -0.048 C 
ATOM      7  CD  PRO d   1      21.597   4.861  19.383  0.00  0.00    -0.001 C 
ATOM      8  H24 PRO d   1      18.492   5.279  19.764  0.00  0.00     0.087 H 
ATOM      9  H25 PRO d   1      19.521   7.276  20.144  0.00  0.00     0.036 H 
ATOM     10  H26 PRO d   1      20.238   7.317  18.498  0.00  0.00     0.036 H 
ATOM     11  H27 PRO d   1      22.202   6.893  19.644  0.00  0.00     0.035 H 
ATOM     12  H28 PRO d   1      21.345   6.174  21.049  0.00  0.00     0.035 H 
ATOM     13  H29 PRO d   1      22.184   4.913  18.454  0.00  0.00     0.064 H 
ATOM     14  H30 PRO d   1      22.111   4.211  20.106  0.00  0.00     0.064 H 
ENDROOT
BRANCH   4  15
ATOM     15  C   PRO d   1      18.575   5.642  17.676  0.00  0.00     0.241 C 
ATOM     16  O   PRO d   1      17.501   6.246  17.649  0.00  0.00    -0.271 OA
ATOM     17  N   GLN d   1      19.180   5.197  16.562  0.00  0.00    -0.346 N 
ATOM     18  H31 GLN d   1      20.049   4.710  16.651  0.00  0.00     0.163 HD
BRANCH  17  19
ATOM     19  CA  GLN d   1      18.623   5.395  15.228  0.00  0.00     0.090 C 
ATOM     20  H32 GLN d   1      18.582   6.479  15.046  0.00  0.00     0.087 H 
BRANCH  19  21
ATOM     21  CB  GLN d   1      19.554   4.776  14.203  0.00  0.00    -0.030 C 
ATOM     22  H33 GLN d   1      19.560   3.685  14.343  0.00  0.00     0.037 H 
ATOM     23  H34 GLN d   1      20.568   5.171  14.362  0.00  0.00     0.037 H 
BRANCH  21  24
ATOM     24  CG  GLN d   1      19.125   5.085  12.771  0.00  0.00     0.011 C 
ATOM     25  H35 GLN d   1      18.808   6.137  12.729  0.00  0.00     0.047 H 
ATOM     26  H36 GLN d   1      18.273   4.435  12.521  0.00  0.00     0.047 H 
BRANCH  24  27
ATOM     27  CD  GLN d   1      20.205   4.874  11.720  0.00  0.00     0.215 C 
ATOM     28  NE2 GLN d   1      19.932   4.407  10.519  0.00  0.00    -0.370 N 
ATOM     29  H37 GLN d   1      20.667   4.281   9.853  0.00  0.00     0.159 HD
ATOM     30  H38 GLN d   1      18.990   4.179  10.274  0.00  0.00     0.159 HD
ATOM     31  OE1 GLN d   1      21.366   5.136  11.998  0.00  0.00    -0.274 OA
ENDBRANCH  24  27
ENDBRANCH  21  24
ENDBRANCH  19  21
BRANCH  19  32
ATOM     32  C   GLN d   1      17.218   4.857  15.049  0.00  0.00     0.241 C 
ATOM     33  O   GLN d   1      16.368   5.616  14.565  0.00  0.00    -0.271 OA
ATOM     34  N   ASN d   1      16.883   3.608  15.382  0.00  0.00    -0.346 N 
ATOM     35  H39 ASN d   1      17.550   2.964  15.756  0.00  0.00     0.163 HD
BRANCH  34  36
ATOM     36  CA  ASN d   1      15.503   3.240  15.171  0.00  0.00     0.097 C 
ATOM     37  H40 ASN d   1      14.929   4.170  15.046  0.00  0.00     0.088 H 
BRANCH  36  38
ATOM     38  CB  ASN d   1      15.266   2.358  13.937  0.00  0.00     0.036 C 
ATOM     39  H41 ASN d   1      14.324   1.807  14.075  0.00  0.00     0.051 H 
ATOM     40  H42 ASN d   1      16.099   1.645  13.850  0.00  0.00     0.051 H 
BRANCH  38  41
ATOM     41  CG  ASN d   1      15.176   3.157  12.650  0.00  0.00     0.217 C 
ATOM     42  ND2 ASN d   1      16.131   2.883  11.788  0.00  0.00    -0.370 N 
ATOM     43  H43 ASN d   1      16.161   3.357  10.908  0.00  0.00     0.159 HD
ATOM     44  H44 ASN d   1      16.827   2.201  12.013  0.00  0.00     0.159 HD
ATOM     45  OD1 ASN d   1      14.307   4.014  12.407  0.00  0.00    -0.274 OA
ENDBRANCH  38  41
ENDBRANCH  36  38
BRANCH  36  46
ATOM     46  C   ASN d   1      14.968   2.498  16.331  0.00  0.00     0.241 C 
ATOM     47  O   ASN d   1      15.663   1.749  17.010  0.00  0.00    -0.271 OA
ATOM     48  N   THR d   1      13.728   2.952  16.487  0.00  0.00    -0.344 N 
ATOM     49  H45 THR d   1      13.455   3.672  15.849  0.00  0.00     0.163 HD
BRANCH  48  50
ATOM     50  CA  THR d   1      12.710   2.556  17.448  0.00  0.00     0.113 C 
ATOM     51  H46 THR d   1      12.152   3.472  17.690  0.00  0.00     0.091 H 
BRANCH  50  52
ATOM     52  CB  THR d   1      11.769   1.635  16.579  0.00  0.00     0.060 C 
ATOM     53  H47 THR d   1      11.784   2.001  15.542  0.00  0.00     0.086 H 
BRANCH  52  54
ATOM     54  CG2 THR d   1      12.221   0.163  16.550  0.00  0.00    -0.050 C 
ATOM     55  H49 THR d   1      11.526  -0.422  15.930  0.00  0.00     0.031 H 
ATOM     56  H50 THR d   1      12.226  -0.239  17.574  0.00  0.00     0.031 H 
ATOM     57  H51 THR d   1      13.234   0.099  16.125  0.00  0.00     0.031 H 
ENDBRANCH  52  54
BRANCH  52  58
ATOM     58  OG1 THR d   1      10.447   1.799  17.099  0.00  0.00    -0.393 OA
ATOM     59  H48 THR d   1      10.219   2.721  17.095  0.00  0.00     0.210 HD
ENDBRANCH  52  58
ENDBRANCH  50  52
BRANCH  50  60
ATOM     60  C   THR d   1      13.055   1.964  18.820  0.00  0.00     0.240 C 
ATOM     61  O   THR d   1      14.159   2.067  19.363  0.00  0.00    -0.271 OA
ATOM     62  N   NH2 d   1      12.038   1.377  19.440  0.00  0.00    -0.368 N 
ATOM     63  H52 NH2 d   1      12.173   0.964  20.340  0.00  0.00     0.159 HD
ATOM     64  H53 NH2 d   1      11.137   1.348  19.006  0.00  0.00     0.159 HD
ENDBRANCH  50  60
ENDBRANCH  48  50
ENDBRANCH  36  46
ENDBRANCH  34  36
ENDBRANCH  19  32
ENDBRANCH  17  19
ENDBRANCH   4  15
BRANCH   1  65
ATOM     65  CA  HIS d   1      20.940   1.993  19.047  0.00  0.00     0.095 C 
ATOM     66  H18 HIS d   1      21.851   2.337  19.558  0.00  0.00     0.088 H 
BRANCH  65  67
ATOM     67  N   HIS d   1      20.163   1.134  19.913  0.00  0.00    -0.346 N 
ATOM     68  C   CYS d   1      20.643   0.166  20.664  0.00  0.00     0.241 C 
ATOM     69  O   CYS d   1      21.817  -0.212  20.585  0.00  0.00    -0.271 OA
ATOM     70  H17 HIS d   1      19.176   1.289  19.944  0.00  0.00     0.163 HD
BRANCH  68  71
ATOM     71  CA  CYS d   1      19.564  -0.461  21.547  0.00  0.00     0.097 C 
ATOM     72  H13 CYS d   1      19.476   0.173  22.442  0.00  0.00     0.088 H 
BRANCH  71  73
ATOM     73  N   CYS d   1      18.205  -0.527  20.989  0.00  0.00    -0.345 N 
ATOM     74  C   PHE d   1      17.186  -1.190  21.545  0.00  0.00     0.249 C 
ATOM     75  O   PHE d   1      17.338  -1.953  22.497  0.00  0.00    -0.271 OA
ATOM     76  H12 CYS d   1      18.031  -0.041  20.133  0.00  0.00     0.163 HD
BRANCH  74  77
ATOM     77  CA  PHE d   1      15.773  -1.184  20.968  0.00  0.00     0.179 C 
ATOM     78  H4  PHE d   1      15.723  -0.896  19.907  0.00  0.00     0.099 H 
BRANCH  77  79
ATOM     79  N   PHE d   1      15.412  -2.577  21.165  0.00  0.00    -0.066 N 
ATOM     80  H1  PHE d   1      14.477  -2.733  20.823  0.00  0.00     0.275 HD
ATOM     81  H2  PHE d   1      15.452  -2.799  22.148  0.00  0.00     0.275 HD
ATOM     82  H3  PHE d   1      16.057  -3.166  20.661  0.00  0.00     0.275 HD
ENDBRANCH  77  79
BRANCH  77  83
ATOM     83  CB  PHE d   1      15.006  -0.177  21.849  0.00  0.00    -0.006 C 
ATOM     84  H5  PHE d   1      15.174   0.809  21.391  0.00  0.00     0.043 H 
ATOM     85  H6  PHE d   1      15.493  -0.211  22.835  0.00  0.00     0.043 H 
BRANCH  83  86
ATOM     86  CG  PHE d   1      13.506  -0.256  22.124  0.00  0.00    -0.056 A 
ATOM     87  CD1 PHE d   1      12.732  -1.393  21.869  0.00  0.00    -0.077 A 
ATOM     88  CE1 PHE d   1      11.364  -1.385  22.162  0.00  0.00    -0.082 A 
ATOM     89  H7  PHE d   1      13.191  -2.279  21.445  0.00  0.00     0.084 H 
ATOM     90  CZ  PHE d   1      10.763  -0.250  22.707  0.00  0.00    -0.083 A 
ATOM     91  H9  PHE d   1      10.766  -2.268  21.964  0.00  0.00     0.083 H 
ATOM     92  CE2 PHE d   1      11.537   0.880  22.962  0.00  0.00    -0.082 A 
ATOM     93  H11 PHE d   1       9.702  -0.247  22.930  0.00  0.00     0.083 H 
ATOM     94  CD2 PHE d   1      12.903   0.879  22.673  0.00  0.00    -0.077 A 
ATOM     95  H10 PHE d   1      11.076   1.764  23.387  0.00  0.00     0.083 H 
ATOM     96  H8  PHE d   1      13.498   1.762  22.875  0.00  0.00     0.084 H 
ENDBRANCH  83  86
ENDBRANCH  77  83
ENDBRANCH  74  77
ENDBRANCH  71  73
BRANCH  71  97
ATOM     97  CB  CYS d   1      20.136  -1.804  21.997  0.00  0.00     0.001 C 
ATOM     98  H14 CYS d   1      20.963  -2.119  21.344  0.00  0.00     0.052 H 
ATOM     99  H15 CYS d   1      19.358  -2.582  22.004  0.00  0.00     0.052 H 
BRANCH  97 100
ATOM    100  SG  CYS d   1      20.726  -1.462  23.672  0.00  0.00    -0.180 SA
ATOM    101  H16 CYS d   1      21.128  -2.300  24.063  0.00  0.00     0.101 HD
ENDBRANCH  97 100
ENDBRANCH  71  97
ENDBRANCH  68  71
ENDBRANCH  65  67
BRANCH  65 102
ATOM    102  CB  HIS d   1      21.325   1.514  17.611  0.00  0.00     0.004 C 
ATOM    103  H19 HIS d   1      20.418   1.399  17.000  0.00  0.00     0.046 H 
ATOM    104  H20 HIS d   1      21.854   0.551  17.667  0.00  0.00     0.046 H 
BRANCH 102 105
ATOM    105  CG  HIS d   1      22.258   2.597  16.978  0.00  0.00     0.053 A 
ATOM    106  ND1 HIS d   1      21.763   3.649  16.325  0.00  0.00    -0.247 NA
ATOM    107  CE1 HIS d   1      22.808   4.443  16.147  0.00  0.00     0.064 A 
ATOM    108  NE2 HIS d   1      23.899   3.908  16.674  0.00  0.00    -0.359 N 
ATOM    109  H22 HIS d   1      22.775   5.405  15.637  0.00  0.00     0.143 H 
ATOM    110  CD2 HIS d   1      23.620   2.739  17.206  0.00  0.00     0.002 A 
ATOM    111  H23 HIS d   1      24.832   4.345  16.668  0.00  0.00     0.166 HD
ATOM    112  H21 HIS d   1      24.296   2.047  17.706  0.00  0.00     0.114 H 
ENDBRANCH 102 105
ENDBRANCH  65 102
ENDBRANCH   1  65
TORSDOF 27
