REMARK  10 active torsions:
REMARK  status: ('A' for Active; 'I' for Inactive)
REMARK    1  A    between atoms: C75_3  and  O95_4 
REMARK    2  A    between atoms: O95_4  and  C98_5 
REMARK    3  A    between atoms: C72_8  and  O92_9 
REMARK    4  A    between atoms: C71_10  and  C61_11 
REMARK    5  A    between atoms: C61_11  and  C54_13 
REMARK    6  A    between atoms: C51_18  and  C42_19 
REMARK    7  A    between atoms: C42_19  and  O41_21 
REMARK    8  A    between atoms: O41_21  and  C37_22 
REMARK    9  A    between atoms: C31_28  and  N23_29 
REMARK       I    between atoms: N23_29  and  C21_30 
REMARK   10  A    between atoms: C21_30  and  C14_32 
ROOT
ATOM      1  C37 I01 d   1      10.478   9.678   3.217  0.00  0.00     0.069 C 
ATOM      2  C36 I01 d   1      11.591   9.358   4.239  0.00  0.00    -0.037 C 
ATOM      3  C35 I01 d   1      12.793   8.562   3.712  0.00  0.00    -0.040 C 
ATOM      4  C34 I01 d   1      12.510   7.073   3.752  0.00  0.00     0.082 C 
ATOM      5  N33 I01 d   1      11.412   6.772   2.821  0.00  0.00    -0.073 N 
ATOM      6  C32 I01 d   1      10.072   7.111   3.347  0.00  0.00     0.102 C 
ATOM      7  C31 I01 d   1       9.581   8.488   2.865  0.00  0.00     0.061 C 
ATOM      8  H11 I01 d   1       9.845  10.466   3.650  0.00  0.00     0.087 H 
ATOM      9  H12 I01 d   1      11.138   8.778   5.057  0.00  0.00     0.036 H 
ATOM     10  H13 I01 d   1      11.969  10.313   4.633  0.00  0.00     0.036 H 
ATOM     11  H14 I01 d   1      13.672   8.779   4.337  0.00  0.00     0.035 H 
ATOM     12  H15 I01 d   1      12.998   8.863   2.674  0.00  0.00     0.035 H 
ATOM     13  H16 I01 d   1      12.220   6.779   4.772  0.00  0.00     0.075 H 
ATOM     14  H17 I01 d   1      13.411   6.518   3.452  0.00  0.00     0.075 H 
ATOM     15  H18 I01 d   1      11.432   5.785   2.615  0.00  0.00     0.277 HD
ATOM     16  H19 I01 d   1      11.562   7.296   1.973  0.00  0.00     0.277 HD
ATOM     17  H20 I01 d   1      10.116   7.117   4.446  0.00  0.00     0.079 H 
ATOM     18  H21 I01 d   1       9.357   6.345   3.012  0.00  0.00     0.079 H 
ATOM     19  H22 I01 d   1       9.528   8.439   1.767  0.00  0.00     0.079 H 
ENDROOT
BRANCH   1  20
ATOM     20  O41 I01 d   1      11.048  10.153   2.021  0.00  0.00    -0.310 OA
BRANCH  20  21
ATOM     21  C42 I01 d   1      11.517  11.404   1.911  0.00  0.00     0.293 C 
ATOM     22  O43 I01 d   1      11.318  12.207   2.833  0.00  0.00    -0.259 OA
BRANCH  21  23
ATOM     23  C51 I01 d   1      12.276  11.704   0.692  0.00  0.00     0.039 A 
ATOM     24  C56 I01 d   1      12.705  10.688  -0.199  0.00  0.00    -0.066 A 
ATOM     25  C55 I01 d   1      13.450  11.013  -1.326  0.00  0.00    -0.068 A 
ATOM     26  H8  I01 d   1      12.451   9.653  -0.000  0.00  0.00     0.085 H 
ATOM     27  C54 I01 d   1      13.756  12.376  -1.580  0.00  0.00     0.015 A 
ATOM     28  H7  I01 d   1      13.793  10.237  -2.001  0.00  0.00     0.085 H 
ATOM     29  C53 I01 d   1      13.322  13.369  -0.693  0.00  0.00    -0.068 A 
ATOM     30  C52 I01 d   1      12.590  13.041   0.419  0.00  0.00    -0.066 A 
ATOM     31  H9  I01 d   1      13.567  14.407  -0.887  0.00  0.00     0.085 H 
ATOM     32  H10 I01 d   1      12.252  13.822   1.091  0.00  0.00     0.085 H 
BRANCH  27  33
ATOM     33  C61 I01 d   1      14.574  12.789  -2.727  0.00  0.00     0.198 C 
ATOM     34  O62 I01 d   1      15.244  13.838  -2.545  0.00  0.00    -0.286 OA
BRANCH  33  35
ATOM     35  C71 I01 d   1      14.700  12.048  -3.972  0.00  0.00     0.089 A 
ATOM     36  C76 I01 d   1      15.957  11.634  -4.351  0.00  0.00     0.166 A 
ATOM     37  F96 I01 d   1      16.964  11.935  -3.541  0.00  0.00    -0.202 F 
ATOM     38  C75 I01 d   1      16.274  10.966  -5.493  0.00  0.00     0.107 A 
ATOM     39  C74 I01 d   1      15.223  10.640  -6.371  0.00  0.00    -0.045 A 
ATOM     40  C73 I01 d   1      13.920  11.027  -6.050  0.00  0.00    -0.047 A 
ATOM     41  H4  I01 d   1      15.423  10.095  -7.286  0.00  0.00     0.088 H 
ATOM     42  C72 I01 d   1      13.615  11.750  -4.843  0.00  0.00     0.083 A 
ATOM     43  H5  I01 d   1      13.114  10.775  -6.730  0.00  0.00     0.087 H 
BRANCH  38  44
ATOM     44  O95 I01 d   1      17.614  10.645  -5.625  0.00  0.00    -0.353 OA
BRANCH  44  45
ATOM     45  C98 I01 d   1      18.087  10.285  -6.900  0.00  0.00     0.011 C 
ATOM     46  H1  I01 d   1      19.162  10.060  -6.842  0.00  0.00     0.066 H 
ATOM     47  H2  I01 d   1      17.924  11.117  -7.600  0.00  0.00     0.066 H 
ATOM     48  H3  I01 d   1      17.545   9.396  -7.255  0.00  0.00     0.066 H 
ENDBRANCH  44  45
ENDBRANCH  38  44
BRANCH  42  49
ATOM     49  O92 I01 d   1      12.404  12.129  -4.541  0.00  0.00    -0.360 OA
ATOM     50  H6  I01 d   1      11.842  11.366  -4.475  0.00  0.00     0.217 HD
ENDBRANCH  42  49
ENDBRANCH  33  35
ENDBRANCH  27  33
ENDBRANCH  21  23
ENDBRANCH  20  21
ENDBRANCH   1  20
BRANCH   7  51
ATOM     51  N23 I01 d   1       8.233   8.749   3.376  0.00  0.00    -0.348 N 
ATOM     52  C21 I01 d   1       7.117   8.948   2.561  0.00  0.00     0.252 C 
ATOM     53  O22 I01 d   1       7.263   9.025   1.329  0.00  0.00    -0.268 OA
ATOM     54  H23 I01 d   1       8.105   8.787   4.367  0.00  0.00     0.163 HD
BRANCH  52  55
ATOM     55  C14 I01 d   1       5.787   9.060   3.183  0.00  0.00     0.034 A 
ATOM     56  C13 I01 d   1       4.660   9.121   2.352  0.00  0.00    -0.051 A 
ATOM     57  C12 I01 d   1       3.397   9.215   2.909  0.00  0.00     0.003 A 
ATOM     58  H24 I01 d   1       4.778   9.095   1.275  0.00  0.00     0.087 H 
ATOM     59  N11 I01 d   1       3.244   9.248   4.295  0.00  0.00    -0.273 NA
ATOM     60  H25 I01 d   1       2.525   9.263   2.267  0.00  0.00     0.114 H 
ATOM     61  C16 I01 d   1       4.341   9.181   5.132  0.00  0.00     0.003 A 
ATOM     62  C15 I01 d   1       5.604   9.086   4.588  0.00  0.00    -0.051 A 
ATOM     63  H26 I01 d   1       4.210   9.203   6.208  0.00  0.00     0.114 H 
ATOM     64  H27 I01 d   1       6.467   9.031   5.242  0.00  0.00     0.087 H 
ENDBRANCH  52  55
ENDBRANCH   7  51
TORSDOF 10
