REMARK  9 active torsions:
REMARK  status: ('A' for Active; 'I' for Inactive)
REMARK    1  A    between atoms: C75_3  and  O95_4 
REMARK    2  A    between atoms: O95_4  and  C98_5 
REMARK    3  A    between atoms: C72_8  and  O92_9 
REMARK    4  A    between atoms: C71_10  and  C61_11 
REMARK    5  A    between atoms: C61_11  and  C54_13 
REMARK    6  A    between atoms: C51_18  and  C42_19 
REMARK       I    between atoms: C42_19  and  N41_21 
REMARK    7  A    between atoms: N41_21  and  C37_22 
REMARK    8  A    between atoms: C31_28  and  N23_29 
REMARK       I    between atoms: N23_29  and  C21_30 
REMARK    9  A    between atoms: C21_30  and  C14_32 
ROOT
ATOM      1  C37 I04 d   1      10.501   9.683   3.226  0.00  0.00     0.033 C 
ATOM      2  C36 I04 d   1      11.634   9.269   4.206  0.00  0.00    -0.043 C 
ATOM      3  C35 I04 d   1      12.689   8.330   3.595  0.00  0.00    -0.041 C 
ATOM      4  C34 I04 d   1      12.266   6.863   3.585  0.00  0.00     0.082 C 
ATOM      5  N33 I04 d   1      11.089   6.613   2.710  0.00  0.00    -0.073 N 
ATOM      6  C32 I04 d   1       9.864   7.086   3.333  0.00  0.00     0.102 C 
ATOM      7  C31 I04 d   1       9.519   8.530   2.883  0.00  0.00     0.055 C 
ATOM      8  H12 I04 d   1       9.924  10.489   3.704  0.00  0.00     0.075 H 
ATOM      9  H13 I04 d   1      11.176   8.759   5.066  0.00  0.00     0.036 H 
ATOM     10  H14 I04 d   1      12.143  10.182   4.549  0.00  0.00     0.036 H 
ATOM     11  H15 I04 d   1      13.616   8.421   4.180  0.00  0.00     0.035 H 
ATOM     12  H16 I04 d   1      12.877   8.645   2.558  0.00  0.00     0.035 H 
ATOM     13  H17 I04 d   1      12.011   6.563   4.612  0.00  0.00     0.075 H 
ATOM     14  H18 I04 d   1      13.109   6.256   3.224  0.00  0.00     0.075 H 
ATOM     15  H19 I04 d   1      11.010   5.623   2.539  0.00  0.00     0.277 HD
ATOM     16  H20 I04 d   1      11.221   7.096   1.835  0.00  0.00     0.277 HD
ATOM     17  H21 I04 d   1       9.990   7.073   4.426  0.00  0.00     0.079 H 
ATOM     18  H22 I04 d   1       9.038   6.417   3.051  0.00  0.00     0.079 H 
ATOM     19  H23 I04 d   1       9.455   8.518   1.785  0.00  0.00     0.078 H 
ENDROOT
BRANCH   1  20
ATOM     20  N41 I04 d   1      11.062  10.180   2.009  0.00  0.00    -0.350 N 
ATOM     21  C42 I04 d   1      11.629  11.411   1.883  0.00  0.00     0.252 C 
ATOM     22  O43 I04 d   1      11.529  12.258   2.756  0.00  0.00    -0.268 OA
ATOM     23  H11 I04 d   1      11.037   9.589   1.203  0.00  0.00     0.163 HD
BRANCH  21  24
ATOM     24  C51 I04 d   1      12.379  11.732   0.682  0.00  0.00     0.032 A 
ATOM     25  C56 I04 d   1      12.884  10.720  -0.147  0.00  0.00    -0.067 A 
ATOM     26  C55 I04 d   1      13.606  11.096  -1.266  0.00  0.00    -0.068 A 
ATOM     27  H8  I04 d   1      12.714   9.674   0.082  0.00  0.00     0.085 H 
ATOM     28  C54 I04 d   1      13.838  12.457  -1.565  0.00  0.00     0.015 A 
ATOM     29  H7  I04 d   1      14.001  10.332  -1.926  0.00  0.00     0.085 H 
ATOM     30  C53 I04 d   1      13.311  13.453  -0.726  0.00  0.00    -0.068 A 
ATOM     31  C52 I04 d   1      12.592  13.082   0.379  0.00  0.00    -0.067 A 
ATOM     32  H9  I04 d   1      13.471  14.501  -0.950  0.00  0.00     0.085 H 
ATOM     33  H10 I04 d   1      12.181  13.846   1.029  0.00  0.00     0.085 H 
BRANCH  28  34
ATOM     34  C61 I04 d   1      14.648  12.852  -2.722  0.00  0.00     0.198 C 
ATOM     35  O62 I04 d   1      15.315  13.897  -2.630  0.00  0.00    -0.286 OA
BRANCH  34  36
ATOM     36  C71 I04 d   1      14.819  12.139  -3.957  0.00  0.00     0.089 A 
ATOM     37  C76 I04 d   1      16.108  11.736  -4.289  0.00  0.00     0.166 A 
ATOM     38  F96 I04 d   1      17.104  12.020  -3.421  0.00  0.00    -0.202 F 
ATOM     39  C75 I04 d   1      16.397  11.058  -5.464  0.00  0.00     0.107 A 
ATOM     40  C74 I04 d   1      15.343  10.790  -6.387  0.00  0.00    -0.045 A 
ATOM     41  C73 I04 d   1      14.060  11.178  -6.092  0.00  0.00    -0.047 A 
ATOM     42  H4  I04 d   1      15.555  10.281  -7.320  0.00  0.00     0.088 H 
ATOM     43  C72 I04 d   1      13.750  11.859  -4.868  0.00  0.00     0.083 A 
ATOM     44  H5  I04 d   1      13.265  10.966  -6.798  0.00  0.00     0.087 H 
BRANCH  39  45
ATOM     45  O95 I04 d   1      17.705  10.683  -5.669  0.00  0.00    -0.353 OA
BRANCH  45  46
ATOM     46  C98 I04 d   1      18.050  10.253  -6.986  0.00  0.00     0.011 C 
ATOM     47  H1  I04 d   1      19.116   9.983  -7.016  0.00  0.00     0.066 H 
ATOM     48  H2  I04 d   1      17.858  11.068  -7.700  0.00  0.00     0.066 H 
ATOM     49  H3  I04 d   1      17.442   9.377  -7.257  0.00  0.00     0.066 H 
ENDBRANCH  45  46
ENDBRANCH  39  45
BRANCH  43  50
ATOM     50  O92 I04 d   1      12.542  12.219  -4.609  0.00  0.00    -0.360 OA
ATOM     51  H6  I04 d   1      11.982  11.452  -4.589  0.00  0.00     0.217 HD
ENDBRANCH  43  50
ENDBRANCH  34  36
ENDBRANCH  28  34
ENDBRANCH  21  24
ENDBRANCH   1  20
BRANCH   7  52
ATOM     52  N23 I04 d   1       8.194   8.752   3.413  0.00  0.00    -0.349 N 
ATOM     53  C21 I04 d   1       7.114   8.973   2.575  0.00  0.00     0.252 C 
ATOM     54  O22 I04 d   1       7.288   8.994   1.335  0.00  0.00    -0.268 OA
ATOM     55  H24 I04 d   1       8.054   8.746   4.403  0.00  0.00     0.163 HD
BRANCH  53  56
ATOM     56  C14 I04 d   1       5.778   9.112   3.166  0.00  0.00     0.034 A 
ATOM     57  C13 I04 d   1       4.685   9.050   2.280  0.00  0.00    -0.051 A 
ATOM     58  C12 I04 d   1       3.404   9.132   2.750  0.00  0.00     0.003 A 
ATOM     59  H25 I04 d   1       4.861   8.936   1.216  0.00  0.00     0.087 H 
ATOM     60  N11 I04 d   1       3.160   9.244   4.113  0.00  0.00    -0.273 NA
ATOM     61  H26 I04 d   1       2.573   9.110   2.054  0.00  0.00     0.114 H 
ATOM     62  C16 I04 d   1       4.212   9.298   5.018  0.00  0.00     0.003 A 
ATOM     63  C15 I04 d   1       5.519   9.214   4.544  0.00  0.00    -0.051 A 
ATOM     64  H27 I04 d   1       4.019   9.404   6.079  0.00  0.00     0.114 H 
ATOM     65  H28 I04 d   1       6.346   9.227   5.245  0.00  0.00     0.087 H 
ENDBRANCH  53  56
ENDBRANCH   7  52
TORSDOF 9
