REMARK  9 active torsions:
REMARK  status: ('A' for Active; 'I' for Inactive)
REMARK    1  A    between atoms: C75_3  and  O95_4 
REMARK    2  A    between atoms: O95_4  and  C98_5 
REMARK    3  A    between atoms: C72_8  and  O92_9 
REMARK    4  A    between atoms: C71_10  and  C61_11 
REMARK    5  A    between atoms: C61_11  and  C54_13 
REMARK    6  A    between atoms: C51_18  and  C42_19 
REMARK    7  A    between atoms: C41_20  and  C37_21 
REMARK    8  A    between atoms: C31_27  and  N23_28 
REMARK       I    between atoms: N23_28  and  C21_29 
REMARK    9  A    between atoms: C21_29  and  C14_31 
ROOT
ATOM      1  C37 I08 d   1      29.444  22.884   9.533  0.00  0.00    -0.017 C 
ATOM      2  C36 I08 d   1      30.522  23.953   9.928  0.00  0.00    -0.055 C 
ATOM      3  C35 I08 d   1      31.555  23.473  10.992  0.00  0.00    -0.042 C 
ATOM      4  C34 I08 d   1      30.948  23.626  12.388  0.00  0.00     0.082 C 
ATOM      5  N33 I08 d   1      29.777  22.713  12.548  0.00  0.00    -0.073 N 
ATOM      6  C32 I08 d   1      28.517  23.213  11.946  0.00  0.00     0.101 C 
ATOM      7  C31 I08 d   1      28.308  22.665  10.558  0.00  0.00     0.042 C 
ATOM      8  H13 I08 d   1      28.950  23.252   8.621  0.00  0.00     0.049 H 
ATOM      9  H14 I08 d   1      30.000  24.834  10.330  0.00  0.00     0.034 H 
ATOM     10  H15 I08 d   1      31.073  24.236   9.019  0.00  0.00     0.034 H 
ATOM     11  H16 I08 d   1      32.468  24.082  10.919  0.00  0.00     0.035 H 
ATOM     12  H17 I08 d   1      31.804  22.417  10.813  0.00  0.00     0.035 H 
ATOM     13  H18 I08 d   1      30.619  24.666  12.528  0.00  0.00     0.075 H 
ATOM     14  H19 I08 d   1      31.708  23.377  13.143  0.00  0.00     0.075 H 
ATOM     15  H20 I08 d   1      29.620  22.573  13.534  0.00  0.00     0.277 HD
ATOM     16  H21 I08 d   1      30.004  21.832  12.115  0.00  0.00     0.277 HD
ATOM     17  H22 I08 d   1      28.558  24.311  11.893  0.00  0.00     0.078 H 
ATOM     18  H23 I08 d   1      27.672  22.907  12.581  0.00  0.00     0.078 H 
ATOM     19  H24 I08 d   1      28.162  21.578  10.646  0.00  0.00     0.076 H 
ENDROOT
BRANCH   1  20
ATOM     20  C41 I08 d   1      30.181  21.634   9.163  0.00  0.00    -0.096 C 
ATOM     21  C42 I08 d   1      30.815  21.528   7.971  0.00  0.00    -0.076 C 
ATOM     22  H11 I08 d   1      30.747  22.355   7.265  0.00  0.00     0.084 H 
ATOM     23  H12 I08 d   1      30.207  20.799   9.862  0.00  0.00     0.077 H 
BRANCH  21  24
ATOM     24  C51 I08 d   1      31.583  20.350   7.599  0.00  0.00    -0.036 A 
ATOM     25  C56 I08 d   1      31.891  19.378   8.577  0.00  0.00    -0.072 A 
ATOM     26  C55 I08 d   1      32.640  18.252   8.205  0.00  0.00    -0.068 A 
ATOM     27  H8  I08 d   1      31.553  19.501   9.600  0.00  0.00     0.084 H 
ATOM     28  C54 I08 d   1      33.107  18.105   6.867  0.00  0.00     0.015 A 
ATOM     29  H7  I08 d   1      32.865  17.488   8.941  0.00  0.00     0.085 H 
ATOM     30  C53 I08 d   1      32.810  19.059   5.880  0.00  0.00    -0.068 A 
ATOM     31  C52 I08 d   1      32.051  20.180   6.242  0.00  0.00    -0.072 A 
ATOM     32  H9  I08 d   1      33.160  18.931   4.862  0.00  0.00     0.085 H 
ATOM     33  H10 I08 d   1      31.812  20.929   5.495  0.00  0.00     0.084 H 
BRANCH  28  34
ATOM     34  C61 I08 d   1      33.901  16.949   6.534  0.00  0.00     0.198 C 
ATOM     35  O62 I08 d   1      34.515  16.980   5.477  0.00  0.00    -0.286 OA
BRANCH  34  36
ATOM     36  C71 I08 d   1      33.991  15.757   7.345  0.00  0.00     0.089 A 
ATOM     37  C76 I08 d   1      35.213  15.386   7.937  0.00  0.00     0.166 A 
ATOM     38  F96 I08 d   1      36.269  16.201   7.814  0.00  0.00    -0.202 F 
ATOM     39  C75 I08 d   1      35.384  14.278   8.689  0.00  0.00     0.107 A 
ATOM     40  C74 I08 d   1      34.251  13.439   8.851  0.00  0.00    -0.045 A 
ATOM     41  C73 I08 d   1      33.046  13.730   8.261  0.00  0.00    -0.047 A 
ATOM     42  H4  I08 d   1      34.339  12.544   9.457  0.00  0.00     0.088 H 
ATOM     43  C72 I08 d   1      32.859  14.915   7.487  0.00  0.00     0.083 A 
ATOM     44  H5  I08 d   1      32.217  13.043   8.386  0.00  0.00     0.087 H 
BRANCH  39  45
ATOM     45  O95 I08 d   1      36.640  14.042   9.269  0.00  0.00    -0.353 OA
BRANCH  45  46
ATOM     46  C98 I08 d   1      36.828  12.744   9.858  0.00  0.00     0.011 C 
ATOM     47  H1  I08 d   1      37.842  12.675  10.278  0.00  0.00     0.066 H 
ATOM     48  H2  I08 d   1      36.697  11.969   9.088  0.00  0.00     0.066 H 
ATOM     49  H3  I08 d   1      36.089  12.594  10.659  0.00  0.00     0.066 H 
ENDBRANCH  45  46
ENDBRANCH  39  45
BRANCH  43  50
ATOM     50  O92 I08 d   1      31.724  15.198   6.916  0.00  0.00    -0.360 OA
ATOM     51  H6  I08 d   1      31.047  15.269   7.578  0.00  0.00     0.217 HD
ENDBRANCH  43  50
ENDBRANCH  34  36
ENDBRANCH  28  34
ENDBRANCH  21  24
ENDBRANCH   1  20
BRANCH   7  52
ATOM     52  N23 I08 d   1      27.071  23.280  10.071  0.00  0.00    -0.350 N 
ATOM     53  C21 I08 d   1      25.975  22.511   9.699  0.00  0.00     0.252 C 
ATOM     54  O22 I08 d   1      26.149  21.300   9.608  0.00  0.00    -0.268 OA
ATOM     55  H25 I08 d   1      27.014  24.276  10.005  0.00  0.00     0.163 HD
BRANCH  53  56
ATOM     56  C14 I08 d   1      24.655  23.080   9.493  0.00  0.00     0.034 A 
ATOM     57  C13 I08 d   1      23.584  22.176   9.371  0.00  0.00    -0.051 A 
ATOM     58  C12 I08 d   1      22.297  22.625   9.218  0.00  0.00     0.003 A 
ATOM     59  H26 I08 d   1      23.779  21.110   9.398  0.00  0.00     0.087 H 
ATOM     60  N11 I08 d   1      22.046  23.991   9.127  0.00  0.00    -0.273 NA
ATOM     61  H27 I08 d   1      21.477  21.918   9.168  0.00  0.00     0.114 H 
ATOM     62  C16 I08 d   1      23.079  24.914   9.222  0.00  0.00     0.003 A 
ATOM     63  C15 I08 d   1      24.386  24.469   9.411  0.00  0.00    -0.051 A 
ATOM     64  H28 I08 d   1      22.870  25.975   9.149  0.00  0.00     0.114 H 
ATOM     65  H29 I08 d   1      25.196  25.184   9.495  0.00  0.00     0.087 H 
ENDBRANCH  53  56
ENDBRANCH   7  52
TORSDOF 9
