REMARK  3 active torsions:
REMARK  status: ('A' for Active; 'I' for Inactive)
REMARK    1  A    between atoms: N_1  and  CE_6 
REMARK    2  A    between atoms: N_1  and  CF_7 
REMARK    3  A    between atoms: CA_3  and  C_8 
ROOT
ATOM      1  N   PBE d   1      13.597   2.132  15.166  0.00  0.00    -0.061 N 
ATOM      2  CD  PBE d   1      12.300   2.179  15.785  0.00  0.00     0.086 C 
ATOM      3  CA  PBE d   1      13.960   3.496  14.808  0.00  0.00     0.187 C 
ATOM      4  CB  PBE d   1      13.495   4.273  16.048  0.00  0.00    -0.027 C 
ATOM      5  CG  PBE d   1      12.572   3.317  16.755  0.00  0.00    -0.040 C 
ATOM      6  H1  PBE d   1      12.051   1.241  16.302  0.00  0.00     0.076 H 
ATOM      7  H2  PBE d   1      11.504   2.425  15.067  0.00  0.00     0.076 H 
ATOM      8  H3  PBE d   1      13.432   3.845  13.908  0.00  0.00     0.102 H 
ATOM      9  H4  PBE d   1      12.960   5.189  15.757  0.00  0.00     0.036 H 
ATOM     10  H5  PBE d   1      14.350   4.535  16.688  0.00  0.00     0.036 H 
ATOM     11  H6  PBE d   1      13.051   2.932  17.667  0.00  0.00     0.035 H 
ATOM     12  H7  PBE d   1      11.632   3.823  17.020  0.00  0.00     0.035 H 
ENDROOT
BRANCH   1  13
ATOM     13  CE  PBE d   1      14.449   1.627  16.254  0.00  0.00     0.069 C 
ATOM     14  H8  PBE d   1      14.153   0.597  16.503  0.00  0.00     0.068 H 
ATOM     15  H9  PBE d   1      14.330   2.267  17.140  0.00  0.00     0.068 H 
ATOM     16  H10 PBE d   1      15.501   1.639  15.932  0.00  0.00     0.068 H 
ENDBRANCH   1  13
BRANCH   1  17
ATOM     17  CF  PBE d   1      13.580   1.371  13.909  0.00  0.00     0.069 C 
ATOM     18  H11 PBE d   1      12.905   1.862  13.192  0.00  0.00     0.068 H 
ATOM     19  H12 PBE d   1      13.226   0.348  14.104  0.00  0.00     0.068 H 
ATOM     20  H13 PBE d   1      14.596   1.334  13.489  0.00  0.00     0.068 H 
ENDBRANCH   1  17
BRANCH   3  21
ATOM     21  C   PBE d   1      15.435   3.527  14.567  0.00  0.00     0.205 C 
ATOM     22  O   PBE d   1      15.898   3.244  13.428  0.00  0.00    -0.646 OA
ATOM     23  OXT PBE d   1      16.137   3.861  15.543  0.00  0.00    -0.646 OA
ENDBRANCH   3  21
TORSDOF 3
