REMARK  0 active torsions:
REMARK  status: ('A' for Active; 'I' for Inactive)
ROOT
ATOM      1  C1  BNZ d   1     -10.248  -9.558  31.480  0.00  0.00    -0.083 A 
ATOM      2  C2  BNZ d   1     -10.010  -8.648  32.511  0.00  0.00    -0.083 A 
ATOM      3  C3  BNZ d   1      -8.779  -7.983  32.540  0.00  0.00    -0.083 A 
ATOM      4  C4  BNZ d   1      -7.827  -8.144  31.532  0.00  0.00    -0.083 A 
ATOM      5  C5  BNZ d   1      -8.124  -8.997  30.470  0.00  0.00    -0.083 A 
ATOM      6  C6  BNZ d   1      -9.315  -9.722  30.458  0.00  0.00    -0.083 A 
ATOM      7  H1  BNZ d   1     -11.163 -10.140  31.474  0.00  0.00     0.083 H 
ATOM      8  H2  BNZ d   1     -10.760  -8.461  33.271  0.00  0.00     0.083 H 
ATOM      9  H3  BNZ d   1      -8.558  -7.323  33.371  0.00  0.00     0.083 H 
ATOM     10  H4  BNZ d   1      -6.880  -7.619  31.574  0.00  0.00     0.083 H 
ATOM     11  H5  BNZ d   1      -7.424  -9.097  29.648  0.00  0.00     0.083 H 
ATOM     12  H6  BNZ d   1      -9.516 -10.416  29.650  0.00  0.00     0.083 H 
ENDROOT
TORSDOF 0
