REMARK  5 active torsions:
REMARK  status: ('A' for Active; 'I' for Inactive)
REMARK    1  A    between atoms: C11_1  and  C10_4 
REMARK    2  A    between atoms: C10_4  and  C9_5 
REMARK    3  A    between atoms: C9_5  and  C8_6 
REMARK    4  A    between atoms: C8_6  and  C7_7 
REMARK    5  A    between atoms: C7_7  and  C2_8 
ROOT
ATOM      1  C2  BTN d   1      12.115 -13.104  23.746  0.00  0.00     0.012 C 
ATOM      2  S1  BTN d   1      13.314 -14.277  23.023  0.00  0.00    -0.160 SA
ATOM      3  C6  BTN d   1      13.989 -12.940  21.990  0.00  0.00    -0.002 C 
ATOM      4  C5  BTN d   1      14.026 -11.710  22.873  0.00  0.00     0.042 A 
ATOM      5  N1  BTN d   1      15.242 -11.589  23.657  0.00  0.00    -0.336 N 
ATOM      6  C3  BTN d   1      14.996 -11.634  24.971  0.00  0.00     0.316 A 
ATOM      7  O3  BTN d   1      15.852 -11.530  25.872  0.00  0.00    -0.247 OA
ATOM      8  N2  BTN d   1      13.666 -11.779  25.187  0.00  0.00    -0.335 N 
ATOM      9  C4  BTN d   1      12.914 -11.836  23.946  0.00  0.00     0.046 A 
ATOM     10  H9  BTN d   1      11.404 -12.865  22.942  0.00  0.00     0.059 H 
ATOM     11  H10 BTN d   1      13.341 -12.766  21.119  0.00  0.00     0.052 H 
ATOM     12  H11 BTN d   1      15.003 -13.196  21.648  0.00  0.00     0.052 H 
ATOM     13  H12 BTN d   1      13.883 -10.813  22.252  0.00  0.00     0.077 H 
ATOM     14  H13 BTN d   1      16.155 -11.485  23.262  0.00  0.00     0.164 HD
ATOM     15  H14 BTN d   1      13.251 -11.840  26.095  0.00  0.00     0.164 HD
ATOM     16  H15 BTN d   1      12.223 -10.982  23.890  0.00  0.00     0.077 H 
ENDROOT
BRANCH   1  17
ATOM     17  C7  BTN d   1      11.217 -13.651  24.828  0.00  0.00    -0.051 C 
ATOM     18  H7  BTN d   1      11.790 -13.665  25.767  0.00  0.00     0.034 H 
ATOM     19  H8  BTN d   1      10.360 -12.970  24.932  0.00  0.00     0.034 H 
BRANCH  17  20
ATOM     20  C8  BTN d   1      10.663 -15.082  24.585  0.00  0.00    -0.063 C 
ATOM     21  H5  BTN d   1      10.134 -15.086  23.620  0.00  0.00     0.033 H 
ATOM     22  H6  BTN d   1      11.515 -15.777  24.540  0.00  0.00     0.033 H 
BRANCH  20  23
ATOM     23  C9  BTN d   1       9.704 -15.577  25.653  0.00  0.00    -0.056 C 
ATOM     24  H3  BTN d   1      10.279 -15.865  26.546  0.00  0.00     0.033 H 
ATOM     25  H4  BTN d   1       9.006 -14.767  25.912  0.00  0.00     0.033 H 
BRANCH  23  26
ATOM     26  C10 BTN d   1       8.902 -16.790  25.161  0.00  0.00     0.016 C 
ATOM     27  H1  BTN d   1       9.414 -17.226  24.291  0.00  0.00     0.049 H 
ATOM     28  H2  BTN d   1       8.852 -17.535  25.969  0.00  0.00     0.049 H 
BRANCH  26  29
ATOM     29  C11 BTN d   1       7.520 -16.416  24.767  0.00  0.00     0.172 C 
ATOM     30  O12 BTN d   1       6.738 -17.232  24.211  0.00  0.00    -0.648 OA
ATOM     31  O11 BTN d   1       7.173 -15.229  25.006  0.00  0.00    -0.648 OA
ENDBRANCH  26  29
ENDBRANCH  23  26
ENDBRANCH  20  23
ENDBRANCH  17  20
ENDBRANCH   1  17
TORSDOF 5
