REMARK  7 active torsions:
REMARK  status: ('A' for Active; 'I' for Inactive)
REMARK    1  A    between atoms: C1_1  and  O1_7 
REMARK    2  A    between atoms: C2_2  and  O2_8 
REMARK    3  A    between atoms: C3_3  and  O3_9 
REMARK    4  A    between atoms: C4_4  and  O4_10 
REMARK    5  A    between atoms: C5_5  and  C6_6 
REMARK    6  A    between atoms: C6_6  and  O6_12 
REMARK    7  A    between atoms: O6_12  and  P_13 
ROOT
ATOM      1  C1  M6P d   1      31.441 -14.215  20.359  0.00  0.00     0.156 C 
ATOM      2  C2  M6P d   1      31.710 -12.981  19.470  0.00  0.00     0.110 C 
ATOM      3  C3  M6P d   1      31.569 -11.648  20.296  0.00  0.00     0.092 C 
ATOM      4  C4  M6P d   1      30.139 -11.583  20.867  0.00  0.00     0.090 C 
ATOM      5  C5  M6P d   1      29.943 -12.813  21.798  0.00  0.00     0.090 C 
ATOM      6  O5  M6P d   1      30.135 -14.066  21.018  0.00  0.00    -0.349 OA
ATOM      7  H1  M6P d   1      31.450 -15.125  19.741  0.00  0.00     0.133 H 
ATOM      8  H2  M6P d   1      32.713 -13.043  19.023  0.00  0.00     0.094 H 
ATOM      9  H3  M6P d   1      32.294 -11.647  21.123  0.00  0.00     0.091 H 
ATOM     10  H4  M6P d   1      29.407 -11.609  20.046  0.00  0.00     0.091 H 
ATOM     11  H5  M6P d   1      30.687 -12.761  22.607  0.00  0.00     0.090 H 
ENDROOT
BRANCH   5  12
ATOM     12  C6  M6P d   1      28.560 -12.884  22.404  0.00  0.00     0.059 C 
ATOM     13  H6  M6P d   1      27.810 -12.980  21.605  0.00  0.00     0.079 H 
ATOM     14  H7  M6P d   1      28.362 -11.971  22.984  0.00  0.00     0.079 H 
BRANCH  12  15
ATOM     15  O6  M6P d   1      28.498 -14.011  23.254  0.00  0.00    -0.280 OA
BRANCH  15  16
ATOM     16  P   M6P d   1      27.169 -14.362  24.022  0.00  0.00     0.422 P 
ATOM     17  O1P M6P d   1      27.400 -15.678  24.932  0.00  0.00    -0.617 OA
ATOM     18  O2P M6P d   1      26.082 -14.718  22.903  0.00  0.00    -0.617 OA
ATOM     19  O3P M6P d   1      26.651 -13.117  24.904  0.00  0.00    -0.617 OA
ENDBRANCH  15  16
ENDBRANCH  12  15
ENDBRANCH   5  12
BRANCH   4  20
ATOM     20  O4  M6P d   1      29.962 -10.385  21.630  0.00  0.00    -0.390 OA
ATOM     21  H11 M6P d   1      30.081  -9.631  21.065  0.00  0.00     0.210 HD
ENDBRANCH   4  20
BRANCH   3  22
ATOM     22  O3  M6P d   1      31.819 -10.534  19.457  0.00  0.00    -0.390 OA
ATOM     23  H10 M6P d   1      31.722  -9.733  19.959  0.00  0.00     0.210 HD
ENDBRANCH   3  22
BRANCH   1  24
ATOM     24  O1  M6P d   1      32.452 -14.311  21.394  0.00  0.00    -0.369 OA
ATOM     25  H8  M6P d   1      33.307 -14.408  20.992  0.00  0.00     0.212 HD
ENDBRANCH   1  24
BRANCH   2  26
ATOM     26  O2  M6P d   1      30.700 -12.986  18.461  0.00  0.00    -0.388 OA
ATOM     27  H9  M6P d   1      30.818 -12.234  17.893  0.00  0.00     0.210 HD
ENDBRANCH   2  26
TORSDOF 7
