REMARK  7 active torsions:
REMARK  status: ('A' for Active; 'I' for Inactive)
REMARK    1  A    between atoms: C1_1  and  O1_7 
REMARK    2  A    between atoms: C2_2  and  O2_8 
REMARK    3  A    between atoms: C3_3  and  O3_9 
REMARK    4  A    between atoms: C4_4  and  O4_10 
REMARK    5  A    between atoms: C5_5  and  C6_6 
REMARK    6  A    between atoms: C6_6  and  O6_12 
REMARK    7  A    between atoms: O6_12  and  P_13 
ROOT
ATOM      1  C1  M6P d   1      31.703 -14.064  19.967  0.00  0.00     0.156 C 
ATOM      2  C2  M6P d   1      31.987 -12.830  19.058  0.00  0.00     0.110 C 
ATOM      3  C3  M6P d   1      31.757 -11.480  19.839  0.00  0.00     0.092 C 
ATOM      4  C4  M6P d   1      30.292 -11.450  20.337  0.00  0.00     0.090 C 
ATOM      5  C5  M6P d   1      30.074 -12.669  21.281  0.00  0.00     0.090 C 
ATOM      6  O5  M6P d   1      30.352 -13.931  20.551  0.00  0.00    -0.349 OA
ATOM      7  H1  M6P d   1      31.766 -14.984  19.367  0.00  0.00     0.133 H 
ATOM      8  H2  M6P d   1      33.016 -12.871  18.672  0.00  0.00     0.094 H 
ATOM      9  H3  M6P d   1      32.438 -11.433  20.702  0.00  0.00     0.091 H 
ATOM     10  H4  M6P d   1      29.607 -11.515  19.479  0.00  0.00     0.091 H 
ATOM     11  H5  M6P d   1      30.764 -12.575  22.133  0.00  0.00     0.090 H 
ENDROOT
BRANCH   5  12
ATOM     12  C6  M6P d   1      28.655 -12.776  21.805  0.00  0.00     0.059 C 
ATOM     13  H6  M6P d   1      27.958 -12.902  20.964  0.00  0.00     0.079 H 
ATOM     14  H7  M6P d   1      28.396 -11.864  22.363  0.00  0.00     0.079 H 
BRANCH  12  15
ATOM     15  O6  M6P d   1      28.574 -13.902  22.666  0.00  0.00    -0.280 OA
BRANCH  15  16
ATOM     16  P   M6P d   1      27.211 -14.290  23.350  0.00  0.00     0.422 P 
ATOM     17  O1P M6P d   1      27.415 -15.585  24.292  0.00  0.00    -0.617 OA
ATOM     18  O2P M6P d   1      26.198 -14.692  22.180  0.00  0.00    -0.617 OA
ATOM     19  O3P M6P d   1      26.609 -13.057  24.176  0.00  0.00    -0.617 OA
ENDBRANCH  15  16
ENDBRANCH  12  15
ENDBRANCH   5  12
BRANCH   4  20
ATOM     20  O4  M6P d   1      30.038 -10.239  21.060  0.00  0.00    -0.390 OA
ATOM     21  H11 M6P d   1      30.171  -9.495  20.485  0.00  0.00     0.210 HD
ENDBRANCH   4  20
BRANCH   3  22
ATOM     22  O3  M6P d   1      32.016 -10.372  18.978  0.00  0.00    -0.390 OA
ATOM     23  H10 M6P d   1      31.868  -9.562  19.452  0.00  0.00     0.210 HD
ENDBRANCH   3  22
BRANCH   1  24
ATOM     24  O1  M6P d   1      32.657 -14.128  21.066  0.00  0.00    -0.369 OA
ATOM     25  H8  M6P d   1      33.536 -14.214  20.716  0.00  0.00     0.212 HD
ENDBRANCH   1  24
BRANCH   2  26
ATOM     26  O2  M6P d   1      31.037 -12.881  17.990  0.00  0.00    -0.388 OA
ATOM     27  H9  M6P d   1      31.170 -12.138  17.413  0.00  0.00     0.210 HD
ENDBRANCH   2  26
TORSDOF 7
