REMARK  6 active torsions:
REMARK  status: ('A' for Active; 'I' for Inactive)
REMARK    1  A    between atoms: CBD_1  and  NBC_2 
REMARK    2  A    between atoms: CBB_6  and  CBA_7 
REMARK    3  A    between atoms: CBA_7  and  CAY_8 
REMARK    4  A    between atoms: CAY_8  and  NAH_9 
REMARK    5  A    between atoms: CAG_17  and  CAI_18 
REMARK    6  A    between atoms: CAJ_24  and  CAK_25 
ROOT
ATOM      1  NAH BI4 d   1      53.972  37.186  47.326  0.00  0.00    -0.355 N 
ATOM      2  CAW BI4 d   1      52.758  37.366  46.651  0.00  0.00    -0.008 A 
ATOM      3  CAE BI4 d   1      54.614  38.448  47.336  0.00  0.00     0.045 A 
ATOM      4  CAF BI4 d   1      55.848  38.795  47.902  0.00  0.00    -0.056 A 
ATOM      5  CAA BI4 d   1      56.276  40.117  47.766  0.00  0.00    -0.081 A 
ATOM      6  CAB BI4 d   1      55.468  41.062  47.089  0.00  0.00    -0.082 A 
ATOM      7  CAC BI4 d   1      54.258  40.686  46.549  0.00  0.00    -0.070 A 
ATOM      8  CAD BI4 d   1      53.815  39.362  46.663  0.00  0.00     0.003 A 
ATOM      9  CAG BI4 d   1      52.634  38.668  46.222  0.00  0.00     0.009 A 
ATOM     10  H16 BI4 d   1      52.016  36.585  46.488  0.00  0.00     0.113 H 
ATOM     11  H17 BI4 d   1      56.450  38.062  48.427  0.00  0.00     0.087 H 
ATOM     12  H18 BI4 d   1      57.230  40.421  48.180  0.00  0.00     0.083 H 
ATOM     13  H19 BI4 d   1      55.804  42.088  46.995  0.00  0.00     0.083 H 
ATOM     14  H20 BI4 d   1      53.646  41.417  46.034  0.00  0.00     0.084 H 
ENDROOT
BRANCH   1  15
ATOM     15  CAY BI4 d   1      54.435  35.936  47.935  0.00  0.00     0.002 C 
ATOM     16  H14 BI4 d   1      54.073  35.072  47.359  0.00  0.00     0.065 H 
ATOM     17  H15 BI4 d   1      55.534  35.914  47.978  0.00  0.00     0.065 H 
BRANCH  15  18
ATOM     18  CBA BI4 d   1      53.840  35.922  49.360  0.00  0.00    -0.023 C 
ATOM     19  H12 BI4 d   1      54.657  36.099  50.075  0.00  0.00     0.038 H 
ATOM     20  H13 BI4 d   1      53.106  36.738  49.433  0.00  0.00     0.038 H 
BRANCH  18  21
ATOM     21  CBB BI4 d   1      53.137  34.606  49.749  0.00  0.00     0.105 C 
ATOM     22  NBC BI4 d   1      52.613  34.540  51.143  0.00  0.00    -0.071 N 
ATOM     23  CBG BI4 d   1      51.206  34.039  51.144  0.00  0.00     0.084 C 
ATOM     24  H4  BI4 d   1      53.147  33.805  51.580  0.00  0.00     0.279 HD
ATOM     25  CBF BI4 d   1      50.712  34.178  49.696  0.00  0.00    -0.040 C 
ATOM     26  H5  BI4 d   1      50.584  34.644  51.821  0.00  0.00     0.076 H 
ATOM     27  H6  BI4 d   1      51.174  32.986  51.460  0.00  0.00     0.076 H 
ATOM     28  CBE BI4 d   1      51.968  34.228  48.818  0.00  0.00    -0.037 C 
ATOM     29  H7  BI4 d   1      50.128  35.103  49.579  0.00  0.00     0.035 H 
ATOM     30  H8  BI4 d   1      50.089  33.314  49.421  0.00  0.00     0.035 H 
ATOM     31  H9  BI4 d   1      51.850  34.985  48.029  0.00  0.00     0.036 H 
ATOM     32  H10 BI4 d   1      52.150  33.245  48.359  0.00  0.00     0.036 H 
ATOM     33  H11 BI4 d   1      53.901  33.821  49.654  0.00  0.00     0.084 H 
BRANCH  22  34
ATOM     34  CBD BI4 d   1      52.876  35.719  52.004  0.00  0.00     0.067 C 
ATOM     35  H1  BI4 d   1      52.442  35.549  53.001  0.00  0.00     0.068 H 
ATOM     36  H2  BI4 d   1      52.419  36.612  51.553  0.00  0.00     0.068 H 
ATOM     37  H3  BI4 d   1      53.962  35.870  52.097  0.00  0.00     0.068 H 
ENDBRANCH  22  34
ENDBRANCH  18  21
ENDBRANCH  15  18
ENDBRANCH   1  15
BRANCH   9  38
ATOM     38  CAI BI4 d   1      51.548  39.050  45.315  0.00  0.00     0.061 A 
ATOM     39  CAT BI4 d   1      51.751  39.723  44.033  0.00  0.00     0.260 A 
ATOM     40  OAZ BI4 d   1      52.810  40.127  43.537  0.00  0.00    -0.267 OA
ATOM     41  NAU BI4 d   1      50.497  39.868  43.369  0.00  0.00    -0.289 N 
ATOM     42  CAV BI4 d   1      49.544  39.269  44.251  0.00  0.00     0.260 A 
ATOM     43  H21 BI4 d   1      50.323  40.295  42.482  0.00  0.00     0.172 HD
ATOM     44  OAX BI4 d   1      48.344  39.231  43.971  0.00  0.00    -0.267 OA
ATOM     45  CAJ BI4 d   1      50.200  38.771  45.456  0.00  0.00     0.061 A 
BRANCH  45  46
ATOM     46  CAK BI4 d   1      49.449  38.095  46.540  0.00  0.00     0.009 A 
ATOM     47  CAM BI4 d   1      49.699  38.021  47.977  0.00  0.00     0.003 A 
ATOM     48  CAP BI4 d   1      50.737  38.494  48.832  0.00  0.00    -0.070 A 
ATOM     49  CAN BI4 d   1      48.654  37.298  48.573  0.00  0.00     0.043 A 
ATOM     50  CAQ BI4 d   1      50.692  38.216  50.202  0.00  0.00    -0.082 A 
ATOM     51  H22 BI4 d   1      51.560  39.068  48.421  0.00  0.00     0.084 H 
ATOM     52  CAR BI4 d   1      49.625  37.477  50.758  0.00  0.00    -0.081 A 
ATOM     53  H23 BI4 d   1      51.487  38.573  50.846  0.00  0.00     0.083 H 
ATOM     54  CAS BI4 d   1      48.585  37.011  49.947  0.00  0.00    -0.056 A 
ATOM     55  H24 BI4 d   1      49.612  37.269  51.822  0.00  0.00     0.083 H 
ATOM     56  H25 BI4 d   1      47.756  36.449  50.363  0.00  0.00     0.086 H 
ATOM     57  NAO BI4 d   1      47.735  36.930  47.574  0.00  0.00    -0.364 N 
ATOM     58  CAL BI4 d   1      48.255  37.419  46.345  0.00  0.00    -0.011 A 
ATOM     59  H26 BI4 d   1      46.857  36.408  47.707  0.00  0.00     0.165 HD
ATOM     60  H27 BI4 d   1      47.777  37.281  45.376  0.00  0.00     0.112 H 
ENDBRANCH  45  46
ENDBRANCH   9  38
TORSDOF 6
