REMARK WARNING: 32 MAX_TORS EXCEEDED!!!
REMARK  63 active torsions:
REMARK  status: ('A' for Active; 'I' for Inactive)
REMARK    1  A    between atoms: N_1  and  CA_2 
REMARK    2  A    between atoms: CA_2  and  C_3 
REMARK    3  A    between atoms: CA_2  and  CB_5 
REMARK       I    between atoms: C_3  and  N_9 
REMARK    4  A    between atoms: CB_5  and  CG_6 
REMARK    5  A    between atoms: N_9  and  CA_10 
REMARK    6  A    between atoms: CA_10  and  C_11 
REMARK    7  A    between atoms: CA_10  and  CB_13 
REMARK       I    between atoms: C_11  and  N_14 
REMARK    8  A    between atoms: N_14  and  CA_15 
REMARK    9  A    between atoms: CA_15  and  C_16 
REMARK   10  A    between atoms: CA_15  and  CB_18 
REMARK       I    between atoms: C_16  and  N_22 
REMARK   11  A    between atoms: CB_18  and  CG_19 
REMARK   12  A    between atoms: N_22  and  CA_23 
REMARK   13  A    between atoms: CA_23  and  C_24 
REMARK   14  A    between atoms: CA_23  and  CB_26 
REMARK       I    between atoms: C_24  and  N_29 
REMARK   15  A    between atoms: CB_26  and  OG1_27 
REMARK   16  A    between atoms: CB_26  and  CG2_28 
REMARK   17  A    between atoms: N_29  and  CA_30 
REMARK   18  A    between atoms: CA_30  and  C_31 
REMARK   19  A    between atoms: CA_30  and  CB_33 
REMARK       I    between atoms: C_31  and  N_37 
REMARK   20  A    between atoms: CB_33  and  CG_34 
REMARK   21  A    between atoms: CG_34  and  CD1_35 
REMARK   22  A    between atoms: CG_34  and  CD2_36 
REMARK   23  A    between atoms: N_37  and  CA_38 
REMARK   24  A    between atoms: CA_38  and  C_39 
REMARK   25  A    between atoms: CA_38  and  CB_41 
REMARK       I    between atoms: C_39  and  N_45 
REMARK   26  A    between atoms: CB_41  and  CG_42 
REMARK   27  A    between atoms: CG_42  and  CD1_43 
REMARK   28  A    between atoms: CG_42  and  CD2_44 
REMARK   29  A    between atoms: N_45  and  CA_46 
REMARK   30  A    between atoms: CA_46  and  C_47 
REMARK   31  A    between atoms: CA_46  and  CB_49 
REMARK       I    between atoms: C_47  and  N_55 
REMARK   32  A    between atoms: CB_49  and  CG_50 
REMARK   33  A    between atoms: N_55  and  CA_56 
REMARK   34  A    between atoms: CA_56  and  C_57 
REMARK   35  A    between atoms: CA_56  and  CB_59 
REMARK       I    between atoms: C_57  and  N_66 
REMARK   36  A    between atoms: CB_59  and  CG_60 
REMARK   37  A    between atoms: N_66  and  CA_67 
REMARK   38  A    between atoms: CA_67  and  C_68 
REMARK   39  A    between atoms: CA_67  and  CB_70 
REMARK       I    between atoms: C_68  and  N_71 
REMARK   40  A    between atoms: N_71  and  CA_72 
REMARK   41  A    between atoms: CA_72  and  C_73 
REMARK   42  A    between atoms: CA_72  and  CB_75 
REMARK       I    between atoms: C_73  and  N_78 
REMARK   43  A    between atoms: CB_75  and  OG1_76 
REMARK   44  A    between atoms: CB_75  and  CG2_77 
REMARK   45  A    between atoms: N_78  and  CA_79 
REMARK   46  A    between atoms: CA_79  and  C_80 
REMARK   47  A    between atoms: CA_79  and  CB_82 
REMARK       I    between atoms: C_80  and  N_87 
REMARK   48  A    between atoms: CB_82  and  CG_83 
REMARK   49  A    between atoms: CG_83  and  CD_84 
REMARK   50  A    between atoms: N_87  and  CA_88 
REMARK   51  A    between atoms: CA_88  and  C_89 
REMARK   52  A    between atoms: CA_88  and  CB_91 
REMARK       I    between atoms: C_89  and  N_93 
REMARK   53  A    between atoms: CB_91  and  OG_92 
REMARK   54  A    between atoms: N_93  and  CA_94 
REMARK   55  A    between atoms: CA_94  and  C_95 
REMARK   56  A    between atoms: CA_94  and  CB_97 
REMARK       I    between atoms: C_95  and  N_100 
REMARK   57  A    between atoms: CB_97  and  OG1_98 
REMARK   58  A    between atoms: CB_97  and  CG2_99 
REMARK   59  A    between atoms: CA_101  and  C_102 
REMARK       I    between atoms: C_102  and  N_107 
REMARK   60  A    between atoms: N_107  and  CA_108 
REMARK   61  A    between atoms: CA_108  and  C_109 
REMARK   62  A    between atoms: CA_108  and  CB_111 
REMARK   63  A    between atoms: CB_111  and  CG_112 
ROOT
ATOM      1  CA  PHE d   1      31.623  23.818  33.453  0.00  0.00     0.093 C 
ATOM      2  H53 PHE d   1      31.401  22.744  33.370  0.00  0.00     0.088 H 
ENDROOT
BRANCH   1   3
ATOM      3  N   PHE d   1      32.681  24.008  34.431  0.00  0.00    -0.346 N 
ATOM      4  C   HIS d   1      33.273  22.984  35.034  0.00  0.00     0.241 C 
ATOM      5  O   HIS d   1      32.979  21.808  34.815  0.00  0.00    -0.271 OA
ATOM      6  H52 PHE d   1      32.972  24.938  34.657  0.00  0.00     0.163 HD
BRANCH   4   7
ATOM      7  CA  HIS d   1      34.353  23.355  36.035  0.00  0.00     0.094 C 
ATOM      8  H46 HIS d   1      34.459  24.450  36.021  0.00  0.00     0.088 H 
BRANCH   7   9
ATOM      9  N   HIS d   1      34.027  22.952  37.398  0.00  0.00    -0.346 N 
ATOM     10  C   LEU d   1      33.498  23.802  38.270  0.00  0.00     0.241 C 
ATOM     11  O   LEU d   1      33.234  24.972  37.987  0.00  0.00    -0.271 OA
ATOM     12  H45 HIS d   1      34.207  22.011  37.683  0.00  0.00     0.163 HD
BRANCH  10  13
ATOM     13  CA  LEU d   1      33.241  23.262  39.674  0.00  0.00     0.089 C 
ATOM     14  H35 LEU d   1      33.653  22.248  39.782  0.00  0.00     0.087 H 
BRANCH  13  15
ATOM     15  N   LEU d   1      33.935  24.194  40.552  0.00  0.00    -0.346 N 
ATOM     16  C   LEU d   1      35.014  23.846  41.248  0.00  0.00     0.241 C 
ATOM     17  O   LEU d   1      35.481  22.705  41.244  0.00  0.00    -0.271 OA
ATOM     18  H34 LEU d   1      33.588  25.128  40.635  0.00  0.00     0.163 HD
BRANCH  16  19
ATOM     19  CA  LEU d   1      35.659  24.955  42.073  0.00  0.00     0.089 C 
ATOM     20  H24 LEU d   1      34.882  25.682  42.352  0.00  0.00     0.087 H 
BRANCH  19  21
ATOM     21  N   LEU d   1      36.280  24.459  43.299  0.00  0.00    -0.346 N 
ATOM     22  C   THR d   1      35.718  24.579  44.499  0.00  0.00     0.243 C 
ATOM     23  O   THR d   1      34.620  25.109  44.683  0.00  0.00    -0.271 OA
ATOM     24  H23 LEU d   1      37.170  24.008  43.233  0.00  0.00     0.163 HD
BRANCH  22  25
ATOM     25  CA  THR d   1      36.529  23.995  45.661  0.00  0.00     0.113 C 
ATOM     26  H17 THR d   1      37.590  24.192  45.449  0.00  0.00     0.091 H 
BRANCH  25  27
ATOM     27  N   THR d   1      36.246  24.571  46.972  0.00  0.00    -0.344 N 
ATOM     28  C   ASP d   1      37.160  25.276  47.631  0.00  0.00     0.241 C 
ATOM     29  O   ASP d   1      38.278  25.514  47.172  0.00  0.00    -0.271 OA
ATOM     30  H16 THR d   1      35.345  24.432  47.383  0.00  0.00     0.163 HD
BRANCH  28  31
ATOM     31  CA  ASP d   1      36.759  25.800  49.008  0.00  0.00     0.098 C 
ATOM     32  H13 ASP d   1      35.948  25.174  49.409  0.00  0.00     0.088 H 
BRANCH  31  33
ATOM     33  N   ASP d   1      37.906  25.726  49.907  0.00  0.00    -0.346 N 
ATOM     34  C   ALA d   1      38.349  24.557  50.359  0.00  0.00     0.240 C 
ATOM     35  O   ALA d   1      37.821  23.483  50.064  0.00  0.00    -0.271 OA
ATOM     36  H12 ASP d   1      38.366  26.568  50.188  0.00  0.00     0.163 HD
BRANCH  34  37
ATOM     37  CA  ALA d   1      39.561  24.592  51.283  0.00  0.00     0.086 C 
ATOM     38  H8  ALA d   1      39.398  25.348  52.066  0.00  0.00     0.086 H 
BRANCH  37  39
ATOM     39  N   ALA d   1      39.723  23.282  51.906  0.00  0.00    -0.346 N 
ATOM     40  C   ASP d   1      38.985  22.926  52.952  0.00  0.00     0.249 C 
ATOM     41  O   ASP d   1      38.147  23.675  53.457  0.00  0.00    -0.271 OA
ATOM     42  H7  ALA d   1      40.400  22.643  51.540  0.00  0.00     0.163 HD
BRANCH  40  43
ATOM     43  CA  ASP d   1      39.230  21.525  53.517  0.00  0.00     0.185 C 
ATOM     44  H4  ASP d   1      39.305  20.813  52.682  0.00  0.00     0.100 H 
BRANCH  43  45
ATOM     45  N   ASP d   1      40.503  21.491  54.294  0.00  0.00    -0.066 N 
ATOM     46  H1  ASP d   1      40.649  20.563  54.659  0.00  0.00     0.275 HD
ATOM     47  H2  ASP d   1      40.448  22.147  55.057  0.00  0.00     0.275 HD
ATOM     48  H3  ASP d   1      41.271  21.740  53.691  0.00  0.00     0.275 HD
ENDBRANCH  43  45
BRANCH  43  49
ATOM     49  CB  ASP d   1      38.054  21.116  54.418  0.00  0.00     0.050 C 
ATOM     50  H5  ASP d   1      37.902  21.900  55.175  0.00  0.00     0.052 H 
ATOM     51  H6  ASP d   1      38.306  20.169  54.917  0.00  0.00     0.052 H 
BRANCH  49  52
ATOM     52  CG  ASP d   1      36.749  20.927  53.642  0.00  0.00     0.175 C 
ATOM     53  OD1 ASP d   1      36.353  21.835  52.875  0.00  0.00    -0.648 OA
ATOM     54  OD2 ASP d   1      36.110  19.867  53.807  0.00  0.00    -0.648 OA
ENDBRANCH  49  52
ENDBRANCH  43  49
ENDBRANCH  40  43
ENDBRANCH  37  39
BRANCH  37  55
ATOM     55  CB  ALA d   1      40.812  24.956  50.494  0.00  0.00    -0.049 C 
ATOM     56  H9  ALA d   1      40.678  25.944  50.030  0.00  0.00     0.030 H 
ATOM     57  H10 ALA d   1      40.983  24.203  49.711  0.00  0.00     0.030 H 
ATOM     58  H11 ALA d   1      41.678  24.984  51.172  0.00  0.00     0.030 H 
ENDBRANCH  37  55
ENDBRANCH  34  37
ENDBRANCH  31  33
BRANCH  31  59
ATOM     59  CB  ASP d   1      36.261  27.241  48.893  0.00  0.00     0.043 C 
ATOM     60  H14 ASP d   1      35.365  27.254  48.255  0.00  0.00     0.052 H 
ATOM     61  H15 ASP d   1      37.050  27.850  48.429  0.00  0.00     0.052 H 
BRANCH  59  62
ATOM     62  CG  ASP d   1      35.907  27.848  50.242  0.00  0.00     0.175 C 
ATOM     63  OD1 ASP d   1      35.611  27.091  51.194  0.00  0.00    -0.648 OA
ATOM     64  OD2 ASP d   1      35.909  29.091  50.342  0.00  0.00    -0.648 OA
ENDBRANCH  59  62
ENDBRANCH  31  59
ENDBRANCH  28  31
ENDBRANCH  25  27
BRANCH  25  65
ATOM     65  CB  THR d   1      36.316  22.464  45.682  0.00  0.00     0.060 C 
ATOM     66  H18 THR d   1      36.513  22.059  44.678  0.00  0.00     0.086 H 
BRANCH  65  67
ATOM     67  OG1 THR d   1      34.963  22.171  46.056  0.00  0.00    -0.393 OA
ATOM     68  H19 THR d   1      34.836  21.230  46.068  0.00  0.00     0.210 HD
ENDBRANCH  65  67
BRANCH  65  69
ATOM     69  CG2 THR d   1      37.260  21.812  46.678  0.00  0.00    -0.050 C 
ATOM     70  H20 THR d   1      37.096  20.724  46.681  0.00  0.00     0.031 H 
ATOM     71  H21 THR d   1      37.067  22.214  47.683  0.00  0.00     0.031 H 
ATOM     72  H22 THR d   1      38.300  22.025  46.391  0.00  0.00     0.031 H 
ENDBRANCH  65  69
ENDBRANCH  25  65
ENDBRANCH  22  25
ENDBRANCH  19  21
BRANCH  19  73
ATOM     73  CB  LEU d   1      36.705  25.649  41.193  0.00  0.00    -0.035 C 
ATOM     74  H25 LEU d   1      36.264  25.748  40.190  0.00  0.00     0.037 H 
ATOM     75  H26 LEU d   1      37.577  24.980  41.145  0.00  0.00     0.037 H 
BRANCH  73  76
ATOM     76  CG  LEU d   1      37.225  27.028  41.587  0.00  0.00    -0.059 C 
ATOM     77  H27 LEU d   1      37.596  26.993  42.622  0.00  0.00     0.038 H 
BRANCH  76  78
ATOM     78  CD1 LEU d   1      38.371  27.430  40.664  0.00  0.00    -0.073 C 
ATOM     79  H28 LEU d   1      38.742  28.425  40.952  0.00  0.00     0.028 H 
ATOM     80  H29 LEU d   1      38.012  27.460  39.625  0.00  0.00     0.028 H 
ATOM     81  H30 LEU d   1      39.185  26.696  40.749  0.00  0.00     0.028 H 
ENDBRANCH  76  78
BRANCH  76  82
ATOM     82  CD2 LEU d   1      36.086  28.034  41.503  0.00  0.00    -0.073 C 
ATOM     83  H31 LEU d   1      35.273  27.724  42.176  0.00  0.00     0.028 H 
ATOM     84  H32 LEU d   1      35.711  28.078  40.470  0.00  0.00     0.028 H 
ATOM     85  H33 LEU d   1      36.451  29.027  41.803  0.00  0.00     0.028 H 
ENDBRANCH  76  82
ENDBRANCH  73  76
ENDBRANCH  19  73
ENDBRANCH  16  19
ENDBRANCH  13  15
BRANCH  13  86
ATOM     86  CB  LEU d   1      31.737  23.235  39.976  0.00  0.00    -0.035 C 
ATOM     87  H36 LEU d   1      31.248  22.649  39.184  0.00  0.00     0.037 H 
ATOM     88  H37 LEU d   1      31.371  24.272  39.944  0.00  0.00     0.037 H 
BRANCH  86  89
ATOM     89  CG  LEU d   1      31.318  22.636  41.324  0.00  0.00    -0.059 C 
ATOM     90  H38 LEU d   1      31.896  23.122  42.124  0.00  0.00     0.038 H 
BRANCH  89  91
ATOM     91  CD1 LEU d   1      29.838  22.894  41.569  0.00  0.00    -0.073 C 
ATOM     92  H39 LEU d   1      29.546  22.462  42.537  0.00  0.00     0.028 H 
ATOM     93  H40 LEU d   1      29.247  22.429  40.766  0.00  0.00     0.028 H 
ATOM     94  H41 LEU d   1      29.652  23.978  41.581  0.00  0.00     0.028 H 
ENDBRANCH  89  91
BRANCH  89  95
ATOM     95  CD2 LEU d   1      31.626  21.137  41.340  0.00  0.00    -0.073 C 
ATOM     96  H42 LEU d   1      32.700  20.982  41.161  0.00  0.00     0.028 H 
ATOM     97  H43 LEU d   1      31.046  20.635  40.551  0.00  0.00     0.028 H 
ATOM     98  H44 LEU d   1      31.353  20.717  42.319  0.00  0.00     0.028 H 
ENDBRANCH  89  95
ENDBRANCH  86  89
ENDBRANCH  13  86
ENDBRANCH  10  13
ENDBRANCH   7   9
BRANCH   7  99
ATOM     99  CB  HIS d   1      35.691  22.735  35.638  0.00  0.00     0.004 C 
ATOM    100  H47 HIS d   1      35.995  23.151  34.666  0.00  0.00     0.046 H 
ATOM    101  H48 HIS d   1      35.559  21.647  35.546  0.00  0.00     0.046 H 
BRANCH  99 102
ATOM    102  CG  HIS d   1      36.777  23.001  36.631  0.00  0.00     0.053 A 
ATOM    103  ND1 HIS d   1      37.261  24.268  36.878  0.00  0.00    -0.247 NA
ATOM    104  CE1 HIS d   1      38.160  24.213  37.845  0.00  0.00     0.064 A 
ATOM    105  NE2 HIS d   1      38.278  22.955  38.232  0.00  0.00    -0.359 N 
ATOM    106  H50 HIS d   1      38.710  25.060  38.253  0.00  0.00     0.143 H 
ATOM    107  CD2 HIS d   1      37.425  22.176  37.487  0.00  0.00     0.002 A 
ATOM    108  H51 HIS d   1      38.907  22.613  38.972  0.00  0.00     0.166 HD
ATOM    109  H49 HIS d   1      37.295  21.098  37.570  0.00  0.00     0.114 H 
ENDBRANCH  99 102
ENDBRANCH   7  99
ENDBRANCH   4   7
ENDBRANCH   1   3
BRANCH   1 110
ATOM    110  C   PHE d   1      32.062  24.337  32.094  0.00  0.00     0.241 C 
ATOM    111  O   PHE d   1      32.852  25.277  31.999  0.00  0.00    -0.271 OA
ATOM    112  N   ALA d   1      31.551  23.708  31.043  0.00  0.00    -0.346 N 
ATOM    113  H61 ALA d   1      30.926  22.941  31.190  0.00  0.00     0.163 HD
BRANCH 112 114
ATOM    114  CA  ALA d   1      31.877  24.106  29.682  0.00  0.00     0.086 C 
ATOM    115  H62 ALA d   1      32.044  25.193  29.659  0.00  0.00     0.086 H 
BRANCH 114 116
ATOM    116  C   ALA d   1      30.717  23.767  28.760  0.00  0.00     0.240 C 
ATOM    117  O   ALA d   1      30.767  22.793  28.010  0.00  0.00    -0.271 OA
ATOM    118  N   THR d   1      29.664  24.573  28.835  0.00  0.00    -0.344 N 
ATOM    119  H66 THR d   1      29.682  25.332  29.486  0.00  0.00     0.163 HD
BRANCH 118 120
ATOM    120  CA  THR d   1      28.481  24.389  28.000  0.00  0.00     0.113 C 
ATOM    121  H67 THR d   1      28.431  23.347  27.650  0.00  0.00     0.091 H 
BRANCH 120 122
ATOM    122  C   THR d   1      28.606  25.339  26.804  0.00  0.00     0.243 C 
ATOM    123  O   THR d   1      28.350  26.536  26.934  0.00  0.00    -0.271 OA
ATOM    124  N   GLU d   1      29.017  24.810  25.650  0.00  0.00    -0.346 N 
ATOM    125  H73 GLU d   1      29.218  23.831  25.607  0.00  0.00     0.163 HD
BRANCH 124 126
ATOM    126  CA  GLU d   1      29.181  25.626  24.443  0.00  0.00     0.090 C 
ATOM    127  H74 GLU d   1      29.457  26.643  24.759  0.00  0.00     0.087 H 
BRANCH 126 128
ATOM    128  C   GLU d   1      27.892  25.716  23.630  0.00  0.00     0.241 C 
ATOM    129  O   GLU d   1      27.706  26.641  22.833  0.00  0.00    -0.271 OA
ATOM    130  N   SER d   1      27.006  24.747  23.828  0.00  0.00    -0.344 N 
ATOM    131  H79 SER d   1      27.218  24.011  24.471  0.00  0.00     0.163 HD
BRANCH 130 132
ATOM    132  CA  SER d   1      25.733  24.738  23.126  0.00  0.00     0.109 C 
ATOM    133  H80 SER d   1      25.593  25.704  22.619  0.00  0.00     0.090 H 
BRANCH 132 134
ATOM    134  C   SER d   1      24.616  24.535  24.139  0.00  0.00     0.243 C 
ATOM    135  O   SER d   1      24.130  25.494  24.742  0.00  0.00    -0.271 OA
ATOM    136  N   THR d   1      24.223  23.280  24.330  0.00  0.00    -0.344 N 
ATOM    137  H84 THR d   1      24.667  22.549  23.812  0.00  0.00     0.163 HD
BRANCH 136 138
ATOM    138  CA  THR d   1      23.166  22.938  25.270  0.00  0.00     0.114 C 
ATOM    139  H85 THR d   1      23.043  23.767  25.983  0.00  0.00     0.091 H 
BRANCH 138 140
ATOM    140  C   THR d   1      23.540  21.671  26.030  0.00  0.00     0.245 C 
ATOM    141  O   THR d   1      23.742  20.614  25.429  0.00  0.00    -0.271 OA
ATOM    142  N   PRO d   1      23.630  21.759  27.368  0.00  0.00    -0.337 N 
ATOM    143  CA  PRO d   1      23.987  20.585  28.169  0.00  0.00     0.091 C 
ATOM    144  CD  PRO d   1      23.184  22.867  28.233  0.00  0.00    -0.001 C 
ATOM    145  CB  PRO d   1      23.945  21.117  29.601  0.00  0.00    -0.036 C 
ATOM    146  H91 PRO d   1      25.001  20.238  27.920  0.00  0.00     0.087 H 
ATOM    147  CG  PRO d   1      22.870  22.156  29.534  0.00  0.00    -0.048 C 
ATOM    148  H92 PRO d   1      24.909  21.562  29.887  0.00  0.00     0.036 H 
ATOM    149  H93 PRO d   1      23.683  20.320  30.313  0.00  0.00     0.036 H 
ATOM    150  H94 PRO d   1      22.930  22.846  30.389  0.00  0.00     0.035 H 
ATOM    151  H95 PRO d   1      21.872  21.695  29.504  0.00  0.00     0.035 H 
ATOM    152  H96 PRO d   1      22.290  23.358  27.822  0.00  0.00     0.064 H 
ATOM    153  H97 PRO d   1      23.982  23.612  28.369  0.00  0.00     0.064 H 
BRANCH 143 154
ATOM    154  C   PRO d   1      23.005  19.442  27.934  0.00  0.00     0.241 C 
ATOM    155  O   PRO d   1      21.793  19.657  27.845  0.00  0.00    -0.271 OA
ATOM    156  N   ASP d   1      23.534  18.229  27.824  0.00  0.00    -0.344 N 
ATOM    157  H98 ASP d   1      24.524  18.114  27.904  0.00  0.00     0.163 HD
BRANCH 156 158
ATOM    158  CA  ASP d   1      22.694  17.065  27.589  0.00  0.00     0.105 C 
ATOM    159  H99 ASP d   1      21.890  17.039  28.339  0.00  0.00     0.090 H 
BRANCH 158 160
ATOM    160  C   ASP d   1      23.535  15.797  27.713  0.00  0.00     0.197 C 
ATOM    161  O   ASP d   1      24.773  15.926  27.837  0.00  0.00    -0.646 OA
ATOM    162  OXT ASP d   1      22.952  14.691  27.686  0.00  0.00    -0.646 OA
ENDBRANCH 158 160
BRANCH 158 163
ATOM    163  CB  ASP d   1      22.074  17.161  26.190  0.00  0.00     0.044 C 
ATOM    164 0H10 ASP d   1      22.845  16.912  25.446  0.00  0.00     0.053 H 
ATOM    165 1H10 ASP d   1      21.728  18.192  26.029  0.00  0.00     0.053 H 
BRANCH 163 166
ATOM    166  CG  ASP d   1      20.901  16.222  26.004  0.00  0.00     0.175 C 
ATOM    167  OD1 ASP d   1      19.928  16.326  26.782  0.00  0.00    -0.648 OA
ATOM    168  OD2 ASP d   1      20.947  15.385  25.077  0.00  0.00    -0.648 OA
ENDBRANCH 163 166
ENDBRANCH 158 163
ENDBRANCH 156 158
ENDBRANCH 143 154
ENDBRANCH 138 140
BRANCH 138 169
ATOM    169  CB  THR d   1      21.830  22.698  24.541  0.00  0.00     0.060 C 
ATOM    170  H86 THR d   1      21.946  21.853  23.847  0.00  0.00     0.086 H 
BRANCH 169 171
ATOM    171  OG1 THR d   1      21.471  23.873  23.802  0.00  0.00    -0.393 OA
ATOM    172  H87 THR d   1      20.647  23.724  23.353  0.00  0.00     0.210 HD
ENDBRANCH 169 171
BRANCH 169 173
ATOM    173  CG2 THR d   1      20.727  22.375  25.541  0.00  0.00    -0.050 C 
ATOM    174  H88 THR d   1      19.782  22.207  25.003  0.00  0.00     0.031 H 
ATOM    175  H89 THR d   1      20.607  23.217  26.239  0.00  0.00     0.031 H 
ATOM    176  H90 THR d   1      20.995  21.468  26.103  0.00  0.00     0.031 H 
ENDBRANCH 169 173
ENDBRANCH 138 169
ENDBRANCH 136 138
ENDBRANCH 132 134
BRANCH 132 177
ATOM    177  CB  SER d   1      25.705  23.621  22.082  0.00  0.00     0.044 C 
ATOM    178  H81 SER d   1      26.475  23.820  21.322  0.00  0.00     0.077 H 
ATOM    179  H82 SER d   1      24.715  23.601  21.604  0.00  0.00     0.077 H 
BRANCH 177 180
ATOM    180  OG  SER d   1      25.957  22.363  22.677  0.00  0.00    -0.398 OA
ATOM    181  H83 SER d   1      26.813  22.374  23.088  0.00  0.00     0.209 HD
ENDBRANCH 177 180
ENDBRANCH 132 177
ENDBRANCH 130 132
ENDBRANCH 126 128
BRANCH 126 182
ATOM    182  CB  GLU d   1      30.307  25.072  23.560  0.00  0.00    -0.029 C 
ATOM    183  H75 GLU d   1      30.080  24.021  23.326  0.00  0.00     0.037 H 
ATOM    184  H76 GLU d   1      31.250  25.127  24.124  0.00  0.00     0.037 H 
BRANCH 182 185
ATOM    185  CG  GLU d   1      30.486  25.832  22.245  0.00  0.00     0.018 C 
ATOM    186  H77 GLU d   1      30.637  26.897  22.475  0.00  0.00     0.049 H 
ATOM    187  H78 GLU d   1      29.571  25.712  21.646  0.00  0.00     0.049 H 
BRANCH 185 188
ATOM    188  CD  GLU d   1      31.670  25.344  21.421  0.00  0.00     0.172 C 
ATOM    189  OE1 GLU d   1      31.864  24.113  21.310  0.00  0.00    -0.648 OA
ATOM    190  OE2 GLU d   1      32.400  26.194  20.869  0.00  0.00    -0.648 OA
ENDBRANCH 185 188
ENDBRANCH 182 185
ENDBRANCH 126 182
ENDBRANCH 124 126
ENDBRANCH 120 122
BRANCH 120 191
ATOM    191  CB  THR d   1      27.195  24.728  28.794  0.00  0.00     0.060 C 
ATOM    192  H68 THR d   1      27.174  25.809  28.997  0.00  0.00     0.086 H 
BRANCH 191 193
ATOM    193  OG1 THR d   1      27.197  24.013  30.037  0.00  0.00    -0.393 OA
ATOM    194  H69 THR d   1      27.959  24.266  30.545  0.00  0.00     0.210 HD
ENDBRANCH 191 193
BRANCH 191 195
ATOM    195  CG2 THR d   1      25.954  24.349  27.999  0.00  0.00    -0.050 C 
ATOM    196  H70 THR d   1      25.055  24.599  28.582  0.00  0.00     0.031 H 
ATOM    197  H71 THR d   1      25.968  23.269  27.791  0.00  0.00     0.031 H 
ATOM    198  H72 THR d   1      25.942  24.906  27.050  0.00  0.00     0.031 H 
ENDBRANCH 191 195
ENDBRANCH 120 191
ENDBRANCH 118 120
ENDBRANCH 114 116
BRANCH 114 199
ATOM    199  CB  ALA d   1      33.151  23.404  29.214  0.00  0.00    -0.049 C 
ATOM    200  H63 ALA d   1      33.384  23.715  28.185  0.00  0.00     0.030 H 
ATOM    201  H64 ALA d   1      33.001  22.315  29.243  0.00  0.00     0.030 H 
ATOM    202  H65 ALA d   1      33.985  23.677  29.877  0.00  0.00     0.030 H 
ENDBRANCH 114 199
ENDBRANCH 112 114
ENDBRANCH   1 110
BRANCH   1 203
ATOM    203  CB  PHE d   1      30.365  24.554  33.909  0.00  0.00    -0.014 C 
ATOM    204  H54 PHE d   1      29.592  24.432  33.136  0.00  0.00     0.043 H 
ATOM    205  H55 PHE d   1      30.608  25.621  34.020  0.00  0.00     0.043 H 
BRANCH 203 206
ATOM    206  CG  PHE d   1      29.814  24.055  35.214  0.00  0.00    -0.056 A 
ATOM    207  CD1 PHE d   1      29.012  22.917  35.257  0.00  0.00    -0.077 A 
ATOM    208  CE1 PHE d   1      28.510  22.441  36.469  0.00  0.00    -0.082 A 
ATOM    209  H56 PHE d   1      28.775  22.395  34.337  0.00  0.00     0.084 H 
ATOM    210  CZ  PHE d   1      28.813  23.106  37.652  0.00  0.00    -0.083 A 
ATOM    211  H58 PHE d   1      27.886  21.555  36.488  0.00  0.00     0.083 H 
ATOM    212  CE2 PHE d   1      29.615  24.246  37.620  0.00  0.00    -0.082 A 
ATOM    213  H60 PHE d   1      28.427  22.739  38.596  0.00  0.00     0.083 H 
ATOM    214  CD2 PHE d   1      30.110  24.712  36.405  0.00  0.00    -0.077 A 
ATOM    215  H59 PHE d   1      29.853  24.769  38.539  0.00  0.00     0.083 H 
ATOM    216  H57 PHE d   1      30.734  25.598  36.386  0.00  0.00     0.084 H 
ENDBRANCH 203 206
ENDBRANCH   1 203
TORSDOF 63
