REMARK  4 active torsions:
REMARK  status: ('A' for Active; 'I' for Inactive)
REMARK    1  A    between atoms: C2_2  and  N17_11 
REMARK    2  A    between atoms: N17_11  and  C18_12 
REMARK    3  A    between atoms: C18_12  and  P20_13 
REMARK    4  A    between atoms: C18_12  and  P21_14 
ROOT
ATOM      1  N1  IMB d   1      21.125  18.960  28.863  0.00  0.00    -0.243 NA
ATOM      2  C2  IMB d   1      21.406  19.074  27.489  0.00  0.00     0.135 A 
ATOM      3  C3  IMB d   1      22.152  20.244  27.057  0.00  0.00     0.020 A 
ATOM      4  C4  IMB d   1      22.552  21.199  28.034  0.00  0.00    -0.021 A 
ATOM      5  C5  IMB d   1      22.249  21.036  29.383  0.00  0.00    -0.055 A 
ATOM      6  C6  IMB d   1      21.536  19.919  29.798  0.00  0.00     0.005 A 
ATOM      7  C9  IMB d   1      22.472  20.493  25.677  0.00  0.00    -0.069 A 
ATOM      8  C10 IMB d   1      23.172  21.675  25.305  0.00  0.00    -0.082 A 
ATOM      9  C11 IMB d   1      23.564  22.618  26.296  0.00  0.00    -0.082 A 
ATOM     10  C12 IMB d   1      23.256  22.383  27.663  0.00  0.00    -0.072 A 
ATOM     11  H1  IMB d   1      22.568  21.778  30.106  0.00  0.00     0.087 H 
ATOM     12  H2  IMB d   1      21.297  19.789  30.847  0.00  0.00     0.114 H 
ATOM     13  H3  IMB d   1      22.179  19.777  24.917  0.00  0.00     0.085 H 
ATOM     14  H4  IMB d   1      23.407  21.858  24.263  0.00  0.00     0.083 H 
ATOM     15  H5  IMB d   1      24.098  23.516  26.008  0.00  0.00     0.083 H 
ATOM     16  H6  IMB d   1      23.554  23.099  28.420  0.00  0.00     0.084 H 
ENDROOT
BRANCH   2  17
ATOM     17  N17 IMB d   1      20.927  18.018  26.697  0.00  0.00    -0.346 N 
ATOM     18  H7  IMB d   1      20.401  17.285  27.195  0.00  0.00     0.162 HD
BRANCH  17  19
ATOM     19  C18 IMB d   1      21.079  17.827  25.259  0.00  0.00     0.228 C 
ATOM     20  H8  IMB d   1      21.569  18.717  24.836  0.00  0.00     0.117 H 
BRANCH  19  21
ATOM     21  P20 IMB d   1      19.465  17.620  24.451  0.00  0.00     0.297 P 
ATOM     22  O28 IMB d   1      19.651  17.406  22.927  0.00  0.00    -0.638 OA
ATOM     23  O30 IMB d   1      18.618  18.771  24.698  0.00  0.00    -0.638 OA
ATOM     24  O31 IMB d   1      18.681  16.438  25.083  0.00  0.00    -0.638 OA
ENDBRANCH  19  21
BRANCH  19  25
ATOM     25  P21 IMB d   1      22.120  16.390  24.950  0.00  0.00     0.297 P 
ATOM     26  O23 IMB d   1      22.295  16.187  23.428  0.00  0.00    -0.638 OA
ATOM     27  O25 IMB d   1      21.551  15.221  25.562  0.00  0.00    -0.638 OA
ATOM     28  O26 IMB d   1      23.499  16.541  25.649  0.00  0.00    -0.638 OA
ENDBRANCH  19  25
ENDBRANCH  17  19
ENDBRANCH   2  17
TORSDOF 4
