REMARK  4 active torsions:
REMARK  status: ('A' for Active; 'I' for Inactive)
REMARK    1  A    between atoms: P1_2  and  C1_5 
REMARK    2  A    between atoms: C1_5  and  N1_6 
REMARK    3  A    between atoms: C1_5  and  P2_14 
REMARK    4  A    between atoms: N1_6  and  C2_7 
ROOT
ATOM      1  N1  CBQ d   1      15.672  12.180  59.200  0.00  0.00    -0.347 N 
ATOM      2  H2  CBQ d   1      16.210  13.053  59.109  0.00  0.00     0.162 HD
ENDROOT
BRANCH   1   3
ATOM      3  C1  CBQ d   1      15.726  11.474  60.472  0.00  0.00     0.228 C 
ATOM      4  H1  CBQ d   1      14.844  10.822  60.559  0.00  0.00     0.117 H 
BRANCH   3   5
ATOM      5  P1  CBQ d   1      17.222  10.440  60.598  0.00  0.00     0.297 P 
ATOM      6  O1  CBQ d   1      17.244   9.712  61.961  0.00  0.00    -0.638 OA
ATOM      7  O2  CBQ d   1      18.427  11.231  60.427  0.00  0.00    -0.638 OA
ATOM      8  O3  CBQ d   1      17.269   9.399  59.451  0.00  0.00    -0.638 OA
ENDBRANCH   3   5
BRANCH   3   9
ATOM      9  P2  CBQ d   1      15.681  12.718  61.797  0.00  0.00     0.297 P 
ATOM     10  O4  CBQ d   1      15.759  12.037  63.185  0.00  0.00    -0.638 OA
ATOM     11  O5  CBQ d   1      14.481  13.532  61.691  0.00  0.00    -0.638 OA
ATOM     12  O6  CBQ d   1      16.800  13.764  61.603  0.00  0.00    -0.638 OA
ENDBRANCH   3   9
ENDBRANCH   1   3
BRANCH   1  13
ATOM     13  C2  CBQ d   1      14.950  11.755  58.116  0.00  0.00     0.124 A 
ATOM     14  N2  CBQ d   1      14.975  12.537  56.961  0.00  0.00    -0.242 NA
ATOM     15  C3  CBQ d   1      14.264  12.171  55.828  0.00  0.00     0.025 A 
ATOM     16  C4  CBQ d   1      13.522  11.008  55.869  0.00  0.00     0.051 A 
ATOM     17  H3  CBQ d   1      14.290  12.783  54.933  0.00  0.00     0.117 H 
ATOM     18 CL1  CBQ d   1      12.570  10.590  54.502  0.00  0.00    -0.083 Cl
ATOM     19  C5  CBQ d   1      13.479  10.202  57.000  0.00  0.00    -0.057 A 
ATOM     20  C6  CBQ d   1      14.193  10.572  58.135  0.00  0.00    -0.037 A 
ATOM     21  H4  CBQ d   1      12.893   9.290  56.998  0.00  0.00     0.086 H 
ATOM     22  H5  CBQ d   1      14.165   9.954  59.025  0.00  0.00     0.089 H 
ENDBRANCH   1  13
TORSDOF 4
