REMARK WARNING: 32 MAX_TORS EXCEEDED!!!
REMARK  57 active torsions:
REMARK  status: ('A' for Active; 'I' for Inactive)
REMARK    1  A    between atoms: CA_2  and  N_1 
REMARK    2  A    between atoms: CA_2  and  CB_5 
REMARK    3  A    between atoms: C_3  and  CA_2 
REMARK       I    between atoms: N_9  and  C_3 
REMARK    4  A    between atoms: CB_5  and  CG2_7 
REMARK    5  A    between atoms: CB_5  and  CG1_6 
REMARK    6  A    between atoms: CG1_6  and  CD1_8 
REMARK    7  A    between atoms: CA_10  and  N_9 
REMARK    8  A    between atoms: CA_10  and  CB_13 
REMARK    9  A    between atoms: C_11  and  CA_10 
REMARK       I    between atoms: N_15  and  C_11 
REMARK   10  A    between atoms: CB_13  and  OG_14 
REMARK   11  A    between atoms: CA_16  and  N_15 
REMARK   12  A    between atoms: CA_16  and  CB_19 
REMARK   13  A    between atoms: C_17  and  CA_16 
REMARK       I    between atoms: N_26  and  C_17 
REMARK   14  A    between atoms: CB_19  and  CG_20 
REMARK   15  A    between atoms: CG_20  and  CD_21 
REMARK   16  A    between atoms: CD_21  and  NE_22 
REMARK       I    between atoms: NE_22  and  CZ_23 
REMARK       I    between atoms: CZ_23  and  NH1_24 
REMARK   17  A    between atoms: CA_27  and  N_26 
REMARK   18  A    between atoms: CA_27  and  CB_30 
REMARK   19  A    between atoms: C_28  and  CA_27 
REMARK       I    between atoms: N_32  and  C_28 
REMARK   20  A    between atoms: CB_30  and  OG_31 
REMARK   21  A    between atoms: CA_33  and  N_32 
REMARK   22  A    between atoms: CA_33  and  CB_36 
REMARK   23  A    between atoms: C_34  and  CA_33 
REMARK       I    between atoms: C_34  and  N_39 
REMARK   24  A    between atoms: CB_36  and  CG2_38 
REMARK   25  A    between atoms: CB_36  and  OG1_37 
REMARK   26  A    between atoms: N_39  and  CA_40 
REMARK   27  A    between atoms: CA_40  and  CB_41 
REMARK   28  A    between atoms: CA_40  and  C_43 
REMARK   29  A    between atoms: CB_41  and  OG_42 
REMARK   30  A    between atoms: OG_42  and  P_45 
REMARK       I    between atoms: C_43  and  N_49 
REMARK   31  A    between atoms: CA_50  and  C_51 
REMARK       I    between atoms: C_51  and  N_56 
REMARK   32  A    between atoms: N_56  and  CA_57 
REMARK   33  A    between atoms: CA_57  and  CB_60 
REMARK   34  A    between atoms: CA_57  and  C_58 
REMARK       I    between atoms: C_58  and  N_63 
REMARK   35  A    between atoms: CB_60  and  CG2_62 
REMARK   36  A    between atoms: CB_60  and  OG1_61 
REMARK   37  A    between atoms: N_63  and  CA_64 
REMARK   38  A    between atoms: CA_64  and  CB_67 
REMARK   39  A    between atoms: CA_64  and  C_65 
REMARK       I    between atoms: C_65  and  N_74 
REMARK   40  A    between atoms: CB_67  and  CG_68 
REMARK   41  A    between atoms: N_74  and  CA_75 
REMARK   42  A    between atoms: CA_75  and  CB_78 
REMARK   43  A    between atoms: CA_75  and  C_76 
REMARK       I    between atoms: C_76  and  N_82 
REMARK   44  A    between atoms: CB_78  and  CG_79 
REMARK       I    between atoms: CG_79  and  ND2_81 
REMARK   45  A    between atoms: N_82  and  CA_83 
REMARK   46  A    between atoms: CA_83  and  CB_86 
REMARK   47  A    between atoms: CA_83  and  C_84 
REMARK       I    between atoms: C_84  and  N_91 
REMARK   48  A    between atoms: CB_86  and  CG_87 
REMARK   49  A    between atoms: CG_87  and  CD_88 
REMARK   50  A    between atoms: CD_88  and  CE_89 
REMARK   51  A    between atoms: CE_89  and  NZ_90 
REMARK   52  A    between atoms: N_91  and  CA_92 
REMARK   53  A    between atoms: CA_92  and  CB_95 
REMARK   54  A    between atoms: CA_92  and  C_93 
REMARK   55  A    between atoms: C_93  and  O1_100 
REMARK   56  A    between atoms: CB_95  and  CG_96 
REMARK   57  A    between atoms: CG_96  and  CD_97 
REMARK       I    between atoms: CD_97  and  NE2_99 
ROOT
ATOM      1  C   SEP d   1      40.067   6.875  33.091  0.00  0.00     0.245 C 
ATOM      2  O   SEP d   1      40.346   6.082  32.207  0.00  0.00    -0.271 OA
ATOM      3  N   PRO d   1      38.810   7.065  33.516  0.00  0.00    -0.337 N 
ATOM      4  CA  PRO d   1      37.692   6.241  33.047  0.00  0.00     0.091 C 
ATOM      5  CB  PRO d   1      36.504   6.795  33.833  0.00  0.00    -0.036 C 
ATOM      6  CG  PRO d   1      37.132   7.272  35.096  0.00  0.00    -0.048 C 
ATOM      7  CD  PRO d   1      38.368   7.977  34.585  0.00  0.00    -0.001 C 
ATOM      8  H48 PRO d   1      37.858   5.179  33.281  0.00  0.00     0.087 H 
ATOM      9  H49 PRO d   1      35.761   6.009  34.033  0.00  0.00     0.036 H 
ATOM     10  H50 PRO d   1      36.024   7.624  33.292  0.00  0.00     0.036 H 
ATOM     11  H51 PRO d   1      36.470   7.966  35.635  0.00  0.00     0.035 H 
ATOM     12  H52 PRO d   1      37.395   6.431  35.754  0.00  0.00     0.035 H 
ATOM     13  H53 PRO d   1      38.126   8.974  34.188  0.00  0.00     0.064 H 
ATOM     14  H54 PRO d   1      39.130   8.072  35.372  0.00  0.00     0.064 H 
ENDROOT
BRANCH   4  15
ATOM     15  C   PRO d   1      37.492   6.404  31.543  0.00  0.00     0.241 C 
ATOM     16  O   PRO d   1      37.771   7.461  30.995  0.00  0.00    -0.271 OA
ATOM     17  N   THR d   1      37.012   5.356  30.884  0.00  0.00    -0.344 N 
ATOM     18  H55 THR d   1      36.828   4.511  31.387  0.00  0.00     0.163 HD
BRANCH  17  19
ATOM     19  CA  THR d   1      36.745   5.396  29.456  0.00  0.00     0.113 C 
ATOM     20  H56 THR d   1      37.013   6.382  29.048  0.00  0.00     0.091 H 
BRANCH  19  21
ATOM     21  CB  THR d   1      37.513   4.307  28.699  0.00  0.00     0.060 C 
ATOM     22  H57 THR d   1      37.133   4.246  27.668  0.00  0.00     0.086 H 
BRANCH  21  23
ATOM     23  CG2 THR d   1      39.007   4.627  28.665  0.00  0.00    -0.050 C 
ATOM     24  H59 THR d   1      39.539   3.835  28.118  0.00  0.00     0.031 H 
ATOM     25  H60 THR d   1      39.393   4.686  29.693  0.00  0.00     0.031 H 
ATOM     26  H61 THR d   1      39.164   5.591  28.159  0.00  0.00     0.031 H 
ENDBRANCH  21  23
BRANCH  21  27
ATOM     27  OG1 THR d   1      37.312   3.053  29.355  0.00  0.00    -0.393 OA
ATOM     28  H58 THR d   1      36.383   2.853  29.377  0.00  0.00     0.210 HD
ENDBRANCH  21  27
ENDBRANCH  19  21
BRANCH  19  29
ATOM     29  C   THR d   1      35.247   5.144  29.318  0.00  0.00     0.243 C 
ATOM     30  O   THR d   1      34.636   4.518  30.180  0.00  0.00    -0.271 OA
ATOM     31  N   PHE d   1      34.662   5.669  28.252  0.00  0.00    -0.346 N 
ATOM     32  H62 PHE d   1      35.217   6.191  27.604  0.00  0.00     0.163 HD
BRANCH  31  33
ATOM     33  CA  PHE d   1      33.243   5.512  27.992  0.00  0.00     0.093 C 
ATOM     34  H63 PHE d   1      32.780   4.858  28.745  0.00  0.00     0.088 H 
BRANCH  33  35
ATOM     35  CB  PHE d   1      32.565   6.894  28.039  0.00  0.00    -0.014 C 
ATOM     36  H64 PHE d   1      31.475   6.748  28.060  0.00  0.00     0.043 H 
ATOM     37  H65 PHE d   1      32.843   7.451  27.132  0.00  0.00     0.043 H 
BRANCH  35  38
ATOM     38  CG  PHE d   1      32.964   7.712  29.247  0.00  0.00    -0.056 A 
ATOM     39  CD1 PHE d   1      34.236   8.273  29.332  0.00  0.00    -0.077 A 
ATOM     40  CE1 PHE d   1      34.652   8.927  30.486  0.00  0.00    -0.082 A 
ATOM     41  H66 PHE d   1      34.911   8.199  28.487  0.00  0.00     0.084 H 
ATOM     42  CZ  PHE d   1      33.791   9.023  31.571  0.00  0.00    -0.083 A 
ATOM     43  H68 PHE d   1      35.644   9.360  30.538  0.00  0.00     0.083 H 
ATOM     44  CE2 PHE d   1      32.528   8.478  31.499  0.00  0.00    -0.082 A 
ATOM     45  H70 PHE d   1      34.113   9.527  32.475  0.00  0.00     0.083 H 
ATOM     46  CD2 PHE d   1      32.114   7.826  30.342  0.00  0.00    -0.077 A 
ATOM     47  H69 PHE d   1      31.855   8.557  32.345  0.00  0.00     0.083 H 
ATOM     48  H67 PHE d   1      31.118   7.402  30.293  0.00  0.00     0.084 H 
ENDBRANCH  35  38
ENDBRANCH  33  35
BRANCH  33  49
ATOM     49  C   PHE d   1      33.165   4.861  26.624  0.00  0.00     0.241 C 
ATOM     50  O   PHE d   1      33.318   5.497  25.593  0.00  0.00    -0.271 OA
ATOM     51  N   ASN d   1      32.996   3.549  26.621  0.00  0.00    -0.346 N 
ATOM     52  H71 ASN d   1      32.917   3.055  27.487  0.00  0.00     0.163 HD
BRANCH  51  53
ATOM     53  CA  ASN d   1      32.925   2.826  25.371  0.00  0.00     0.097 C 
ATOM     54  H72 ASN d   1      33.008   3.523  24.524  0.00  0.00     0.088 H 
BRANCH  53  55
ATOM     55  CB  ASN d   1      34.053   1.790  25.305  0.00  0.00     0.036 C 
ATOM     56  H73 ASN d   1      35.014   2.319  25.221  0.00  0.00     0.051 H 
ATOM     57  H74 ASN d   1      33.902   1.160  24.416  0.00  0.00     0.051 H 
BRANCH  55  58
ATOM     58  CG  ASN d   1      34.095   0.895  26.536  0.00  0.00     0.217 C 
ATOM     59  ND2 ASN d   1      32.949   0.718  27.185  0.00  0.00    -0.370 N 
ATOM     60  H75 ASN d   1      32.920   0.140  28.000  0.00  0.00     0.159 HD
ATOM     61  H76 ASN d   1      32.115   1.163  26.858  0.00  0.00     0.159 HD
ATOM     62  OD1 ASN d   1      35.148   0.366  26.895  0.00  0.00    -0.274 OA
ENDBRANCH  55  58
ENDBRANCH  53  55
BRANCH  53  63
ATOM     63  C   ASN d   1      31.597   2.113  25.333  0.00  0.00     0.241 C 
ATOM     64  O   ASN d   1      31.332   1.339  24.411  0.00  0.00    -0.271 OA
ATOM     65  N   LYS d   1      30.756   2.392  26.321  0.00  0.00    -0.346 N 
ATOM     66  H77 LYS d   1      30.994   3.090  26.996  0.00  0.00     0.163 HD
BRANCH  65  67
ATOM     67  CA  LYS d   1      29.505   1.695  26.424  0.00  0.00     0.089 C 
ATOM     68  H78 LYS d   1      28.924   1.844  25.502  0.00  0.00     0.087 H 
BRANCH  67  69
ATOM     69  CB  LYS d   1      29.746   0.208  26.658  0.00  0.00    -0.038 C 
ATOM     70  H79 LYS d   1      29.262  -0.073  27.605  0.00  0.00     0.036 H 
ATOM     71  H80 LYS d   1      30.831   0.044  26.738  0.00  0.00     0.036 H 
BRANCH  69  72
ATOM     72  CG  LYS d   1      29.213  -0.692  25.571  0.00  0.00    -0.061 C 
ATOM     73  H81 LYS d   1      29.491  -1.730  25.807  0.00  0.00     0.033 H 
ATOM     74  H82 LYS d   1      29.672  -0.398  24.616  0.00  0.00     0.033 H 
BRANCH  72  75
ATOM     75  CD  LYS d   1      27.708  -0.616  25.427  0.00  0.00    -0.043 C 
ATOM     76  H83 LYS d   1      27.410   0.413  25.176  0.00  0.00     0.035 H 
ATOM     77  H84 LYS d   1      27.228  -0.918  26.370  0.00  0.00     0.035 H 
BRANCH  75  78
ATOM     78  CE  LYS d   1      27.289  -1.559  24.312  0.00  0.00     0.080 C 
ATOM     79  H85 LYS d   1      27.656  -2.566  24.560  0.00  0.00     0.075 H 
ATOM     80  H86 LYS d   1      27.761  -1.216  23.379  0.00  0.00     0.075 H 
BRANCH  78  81
ATOM     81  NZ  LYS d   1      25.824  -1.646  24.083  0.00  0.00    -0.079 N 
ATOM     82  H87 LYS d   1      25.639  -2.290  23.330  0.00  0.00     0.274 HD
ATOM     83  H88 LYS d   1      25.467  -0.735  23.841  0.00  0.00     0.274 HD
ATOM     84  H89 LYS d   1      25.371  -1.972  24.923  0.00  0.00     0.274 HD
ENDBRANCH  78  81
ENDBRANCH  75  78
ENDBRANCH  72  75
ENDBRANCH  69  72
ENDBRANCH  67  69
BRANCH  67  85
ATOM     85  C   LYS d   1      28.742   2.199  27.603  0.00  0.00     0.241 C 
ATOM     86  O   LYS d   1      29.279   2.730  28.565  0.00  0.00    -0.271 OA
ATOM     87  N   GLN d   1      27.454   1.981  27.439  0.00  0.00    -0.345 N 
ATOM     88  H90 GLN d   1      27.208   1.554  26.569  0.00  0.00     0.163 HD
BRANCH  87  89
ATOM     89  CA  GLN d   1      26.345   2.259  28.311  0.00  0.00     0.093 C 
ATOM     90  H91 GLN d   1      26.200   1.468  29.061  0.00  0.00     0.089 H 
BRANCH  89  91
ATOM     91  CB  GLN d   1      26.504   3.611  29.029  0.00  0.00    -0.029 C 
ATOM     92  H92 GLN d   1      25.679   3.705  29.751  0.00  0.00     0.037 H 
ATOM     93  H93 GLN d   1      26.420   4.404  28.271  0.00  0.00     0.037 H 
BRANCH  91  94
ATOM     94  CG  GLN d   1      27.860   3.838  29.815  0.00  0.00     0.011 C 
ATOM     95  H94 GLN d   1      28.206   4.854  29.576  0.00  0.00     0.047 H 
ATOM     96  H95 GLN d   1      28.584   3.104  29.430  0.00  0.00     0.047 H 
BRANCH  94  97
ATOM     97  CD  GLN d   1      27.856   3.709  31.350  0.00  0.00     0.215 C 
ATOM     98  NE2 GLN d   1      29.056   3.583  31.926  0.00  0.00    -0.370 N 
ATOM     99  H96 GLN d   1      29.127   3.495  32.920  0.00  0.00     0.159 HD
ATOM    100  H97 GLN d   1      29.883   3.577  31.363  0.00  0.00     0.159 HD
ATOM    101  OE1 GLN d   1      26.820   3.775  32.003  0.00  0.00    -0.274 OA
ENDBRANCH  94  97
ENDBRANCH  91  94
ENDBRANCH  89  91
BRANCH  89 102
ATOM    102  C   GLN d   1      25.214   2.252  27.238  0.00  0.00     0.163 C 
ATOM    103  O   GLN d   1      25.128   3.164  26.373  0.00  0.00    -0.648 OA
BRANCH 102 104
ATOM    104  O1  GLN d   1      24.323   1.265  27.236  0.00  0.00    -0.775 OA
ATOM    105  H98 GLN d   1      24.363   0.806  26.405  0.00  0.00     0.167 HD
ENDBRANCH 102 104
ENDBRANCH  89 102
ENDBRANCH  87  89
ENDBRANCH  67  85
ENDBRANCH  65  67
ENDBRANCH  53  63
ENDBRANCH  51  53
ENDBRANCH  33  49
ENDBRANCH  31  33
ENDBRANCH  19  29
ENDBRANCH  17  19
ENDBRANCH   4  15
BRANCH   1 106
ATOM    106  CA  SEP d   1      41.119   7.797  33.649  0.00  0.00     0.110 C 
ATOM    107  H45 SEP d   1      40.656   8.427  34.423  0.00  0.00     0.090 H 
BRANCH 106 108
ATOM    108  N   SEP d   1      42.248   7.100  34.257  0.00  0.00    -0.344 N 
ATOM    109  C   THR d   1      42.099   6.359  35.351  0.00  0.00     0.243 C 
ATOM    110  O   THR d   1      41.003   6.191  35.907  0.00  0.00    -0.271 OA
ATOM    111  H44 SEP d   1      43.154   7.181  33.842  0.00  0.00     0.163 HD
BRANCH 109 112
ATOM    112  CA  THR d   1      43.371   5.706  35.887  0.00  0.00     0.113 C 
ATOM    113  H38 THR d   1      43.214   4.621  35.973  0.00  0.00     0.091 H 
BRANCH 112 114
ATOM    114  N   THR d   1      44.473   5.958  34.967  0.00  0.00    -0.344 N 
ATOM    115  C   SER d   1      44.687   5.232  33.872  0.00  0.00     0.243 C 
ATOM    116  O   SER d   1      44.011   4.254  33.554  0.00  0.00    -0.271 OA
ATOM    117  H37 THR d   1      45.098   6.712  35.168  0.00  0.00     0.163 HD
BRANCH 115 118
ATOM    118  CA  SER d   1      45.854   5.654  33.006  0.00  0.00     0.109 C 
ATOM    119  H33 SER d   1      46.794   5.514  33.560  0.00  0.00     0.090 H 
BRANCH 118 120
ATOM    120  N   SER d   1      45.864   4.815  31.811  0.00  0.00    -0.344 N 
ATOM    121  C   ARG d   1      46.817   3.907  31.633  0.00  0.00     0.241 C 
ATOM    122  O   ARG d   1      47.721   3.743  32.444  0.00  0.00    -0.271 OA
ATOM    123  H32 SER d   1      45.148   4.925  31.122  0.00  0.00     0.163 HD
BRANCH 121 124
ATOM    124  CA  ARG d   1      46.787   3.058  30.369  0.00  0.00     0.089 C 
ATOM    125  H20 ARG d   1      46.241   2.128  30.585  0.00  0.00     0.087 H 
BRANCH 124 126
ATOM    126  N   ARG d   1      46.107   3.718  29.250  0.00  0.00    -0.346 N 
ATOM    127  C   SER d   1      44.977   3.243  28.711  0.00  0.00     0.243 C 
ATOM    128  O   SER d   1      44.402   2.224  29.123  0.00  0.00    -0.271 OA
ATOM    129  H19 ARG d   1      46.503   4.556  28.875  0.00  0.00     0.163 HD
BRANCH 127 130
ATOM    130  CA  SER d   1      44.399   4.035  27.533  0.00  0.00     0.109 C 
ATOM    131  H15 SER d   1      45.103   4.840  27.276  0.00  0.00     0.090 H 
BRANCH 130 132
ATOM    132  N   SER d   1      44.224   3.184  26.364  0.00  0.00    -0.344 N 
ATOM    133  C   ILE d   1      45.259   2.597  25.765  0.00  0.00     0.249 C 
ATOM    134  O   ILE d   1      46.415   2.708  26.176  0.00  0.00    -0.271 OA
ATOM    135  H14 SER d   1      43.304   3.037  26.002  0.00  0.00     0.163 HD
BRANCH 133 136
ATOM    136  CA  ILE d   1      44.941   1.731  24.543  0.00  0.00     0.179 C 
ATOM    137  H4  ILE d   1      45.874   1.271  24.184  0.00  0.00     0.099 H 
BRANCH 136 138
ATOM    138  N   ILE d   1      43.989   0.643  24.914  0.00  0.00    -0.066 N 
ATOM    139  H1  ILE d   1      43.788   0.081  24.102  0.00  0.00     0.275 HD
ATOM    140  H2  ILE d   1      43.134   1.048  25.262  0.00  0.00     0.275 HD
ATOM    141  H3  ILE d   1      44.402   0.065  25.629  0.00  0.00     0.275 HD
ENDBRANCH 136 138
BRANCH 136 142
ATOM    142  CB  ILE d   1      44.354   2.618  23.404  0.00  0.00    -0.022 C 
ATOM    143  H5  ILE d   1      43.403   3.054  23.743  0.00  0.00     0.043 H 
BRANCH 142 144
ATOM    144  CG2 ILE d   1      45.325   3.744  23.062  0.00  0.00    -0.070 C 
ATOM    145  H8  ILE d   1      45.506   4.357  23.957  0.00  0.00     0.028 H 
ATOM    146  H9  ILE d   1      44.893   4.372  22.269  0.00  0.00     0.028 H 
ATOM    147  H10 ILE d   1      46.276   3.315  22.713  0.00  0.00     0.028 H 
ENDBRANCH 142 144
BRANCH 142 148
ATOM    148  CG1 ILE d   1      44.100   1.762  22.157  0.00  0.00    -0.063 C 
ATOM    149  H6  ILE d   1      43.490   0.896  22.454  0.00  0.00     0.033 H 
ATOM    150  H7  ILE d   1      45.072   1.413  21.777  0.00  0.00     0.033 H 
BRANCH 148 151
ATOM    151  CD1 ILE d   1      43.381   2.483  21.029  0.00  0.00    -0.076 C 
ATOM    152  H11 ILE d   1      43.244   1.794  20.182  0.00  0.00     0.027 H 
ATOM    153  H12 ILE d   1      43.980   3.347  20.705  0.00  0.00     0.027 H 
ATOM    154  H13 ILE d   1      42.399   2.830  21.383  0.00  0.00     0.027 H 
ENDBRANCH 148 151
ENDBRANCH 142 148
ENDBRANCH 136 142
ENDBRANCH 133 136
ENDBRANCH 130 132
BRANCH 130 155
ATOM    155  CB  SER d   1      43.061   4.660  27.924  0.00  0.00     0.044 C 
ATOM    156  H16 SER d   1      42.397   3.876  28.317  0.00  0.00     0.077 H 
ATOM    157  H17 SER d   1      42.602   5.117  27.035  0.00  0.00     0.077 H 
BRANCH 155 158
ATOM    158  OG  SER d   1      43.246   5.650  28.912  0.00  0.00    -0.398 OA
ATOM    159  H18 SER d   1      43.817   6.330  28.574  0.00  0.00     0.209 HD
ENDBRANCH 155 158
ENDBRANCH 130 155
ENDBRANCH 127 130
ENDBRANCH 124 126
BRANCH 124 160
ATOM    160  CB  ARG d   1      48.259   2.704  30.033  0.00  0.00    -0.036 C 
ATOM    161  H21 ARG d   1      48.636   2.060  30.841  0.00  0.00     0.036 H 
ATOM    162  H22 ARG d   1      48.829   3.645  30.018  0.00  0.00     0.036 H 
BRANCH 160 163
ATOM    163  CG  ARG d   1      48.528   1.985  28.711  0.00  0.00    -0.048 C 
ATOM    164  H23 ARG d   1      48.722   2.741  27.936  0.00  0.00     0.035 H 
ATOM    165  H24 ARG d   1      47.634   1.404  28.442  0.00  0.00     0.035 H 
BRANCH 163 166
ATOM    166  CD  ARG d   1      49.715   1.042  28.771  0.00  0.00     0.009 C 
ATOM    167  H25 ARG d   1      49.496   0.189  28.112  0.00  0.00     0.064 H 
ATOM    168  H26 ARG d   1      49.807   0.689  29.809  0.00  0.00     0.064 H 
BRANCH 166 169
ATOM    169  NE  ARG d   1      51.006   1.584  28.374  0.00  0.00    -0.227 N 
ATOM    170  CZ  ARG d   1      51.638   1.225  27.266  0.00  0.00     0.665 C 
ATOM    171  NH2 ARG d   1      51.066   0.372  26.426  0.00  0.00    -0.235 N 
ATOM    172  NH1 ARG d   1      52.820   1.746  26.992  0.00  0.00    -0.235 N 
ATOM    173  H30 ARG d   1      50.144  -0.029  26.648  0.00  0.00     0.174 HD
ATOM    174  H31 ARG d   1      51.544   0.111  25.552  0.00  0.00     0.174 HD
ATOM    175  H28 ARG d   1      53.317   1.472  26.133  0.00  0.00     0.174 HD
ATOM    176  H29 ARG d   1      53.245   2.427  27.638  0.00  0.00     0.174 HD
ATOM    177  H27 ARG d   1      51.451   2.283  28.986  0.00  0.00     0.177 HD
ENDBRANCH 166 169
ENDBRANCH 163 166
ENDBRANCH 160 163
ENDBRANCH 124 160
ENDBRANCH 121 124
ENDBRANCH 118 120
BRANCH 118 178
ATOM    178  CB  SER d   1      45.711   7.135  32.622  0.00  0.00     0.044 C 
ATOM    179  H34 SER d   1      46.577   7.434  32.012  0.00  0.00     0.077 H 
ATOM    180  H35 SER d   1      45.681   7.743  33.538  0.00  0.00     0.077 H 
BRANCH 178 181
ATOM    181  OG  SER d   1      44.528   7.354  31.883  0.00  0.00    -0.398 OA
ATOM    182  H36 SER d   1      44.462   8.275  31.658  0.00  0.00     0.209 HD
ENDBRANCH 178 181
ENDBRANCH 118 178
ENDBRANCH 115 118
ENDBRANCH 112 114
BRANCH 112 183
ATOM    183  CB  THR d   1      43.694   6.283  37.283  0.00  0.00     0.060 C 
ATOM    184  H39 THR d   1      44.217   7.242  37.157  0.00  0.00     0.086 H 
BRANCH 183 185
ATOM    185  CG2 THR d   1      42.421   6.524  38.096  0.00  0.00    -0.050 C 
ATOM    186  H41 THR d   1      42.687   6.934  39.081  0.00  0.00     0.031 H 
ATOM    187  H42 THR d   1      41.884   5.573  38.227  0.00  0.00     0.031 H 
ATOM    188  H43 THR d   1      41.776   7.239  37.564  0.00  0.00     0.031 H 
ENDBRANCH 183 185
BRANCH 183 189
ATOM    189  OG1 THR d   1      44.553   5.368  37.978  0.00  0.00    -0.393 OA
ATOM    190  H40 THR d   1      45.340   5.224  37.467  0.00  0.00     0.210 HD
ENDBRANCH 183 189
ENDBRANCH 112 183
ENDBRANCH 109 112
ENDBRANCH 106 108
BRANCH 106 191
ATOM    191  CB  SEP d   1      41.590   8.678  32.505  0.00  0.00     0.059 C 
ATOM    192  H46 SEP d   1      40.724   8.996  31.906  0.00  0.00     0.079 H 
ATOM    193  H47 SEP d   1      42.287   8.112  31.870  0.00  0.00     0.079 H 
BRANCH 191 194
ATOM    194  OG  SEP d   1      42.262   9.845  33.039  0.00  0.00    -0.280 OA
BRANCH 194 195
ATOM    195  P   SEP d   1      43.201  10.711  32.080  0.00  0.00     0.422 P 
ATOM    196  O1P SEP d   1      43.863  11.775  32.931  0.00  0.00    -0.617 OA
ATOM    197  O2P SEP d   1      44.334   9.933  31.557  0.00  0.00    -0.617 OA
ATOM    198  O3P SEP d   1      42.348  11.068  30.932  0.00  0.00    -0.617 OA
ENDBRANCH 194 195
ENDBRANCH 191 194
ENDBRANCH 106 191
ENDBRANCH   1 106
TORSDOF 57
