REMARK WARNING: 32 MAX_TORS EXCEEDED!!!
REMARK  57 active torsions:
REMARK  status: ('A' for Active; 'I' for Inactive)
REMARK    1  A    between atoms: CA_2  and  N_1 
REMARK    2  A    between atoms: C_3  and  CA_2 
REMARK       I    between atoms: N_5  and  C_3 
REMARK    3  A    between atoms: CA_6  and  N_5 
REMARK    4  A    between atoms: CA_6  and  CB_9 
REMARK    5  A    between atoms: C_7  and  CA_6 
REMARK       I    between atoms: N_10  and  C_7 
REMARK    6  A    between atoms: CA_11  and  N_10 
REMARK    7  A    between atoms: CA_11  and  CB_14 
REMARK    8  A    between atoms: C_12  and  CA_11 
REMARK       I    between atoms: N_15  and  C_12 
REMARK    9  A    between atoms: CA_16  and  N_15 
REMARK   10  A    between atoms: CA_16  and  CB_19 
REMARK   11  A    between atoms: C_17  and  CA_16 
REMARK       I    between atoms: N_27  and  C_17 
REMARK   12  A    between atoms: CB_19  and  CG_20 
REMARK   13  A    between atoms: CZ_25  and  OH_26 
REMARK   14  A    between atoms: CA_28  and  N_27 
REMARK   15  A    between atoms: CA_28  and  CB_31 
REMARK   16  A    between atoms: C_29  and  CA_28 
REMARK       I    between atoms: N_35  and  C_29 
REMARK   17  A    between atoms: CB_31  and  CG_32 
REMARK   18  A    between atoms: CA_36  and  N_35 
REMARK   19  A    between atoms: CA_36  and  CB_39 
REMARK   20  A    between atoms: C_37  and  CA_36 
REMARK       I    between atoms: C_37  and  N_43 
REMARK   21  A    between atoms: CB_39  and  CG2_41 
REMARK   22  A    between atoms: CB_39  and  CG1_40 
REMARK   23  A    between atoms: CG1_40  and  CD1_42 
REMARK   24  A    between atoms: N_43  and  CA_44 
REMARK   25  A    between atoms: CA_44  and  CB_45 
REMARK   26  A    between atoms: CA_44  and  C_47 
REMARK   27  A    between atoms: CB_45  and  OG_46 
REMARK   28  A    between atoms: OG_46  and  P_49 
REMARK       I    between atoms: C_47  and  N_53 
REMARK   29  A    between atoms: P_49  and  O1P_50 
REMARK   30  A    between atoms: P_49  and  O2P_51 
REMARK   31  A    between atoms: P_49  and  O3P_52 
REMARK   32  A    between atoms: N_53  and  CA_54 
REMARK   33  A    between atoms: CA_54  and  CB_57 
REMARK   34  A    between atoms: CA_54  and  C_55 
REMARK       I    between atoms: C_55  and  N_62 
REMARK   35  A    between atoms: CB_57  and  CG_58 
REMARK   36  A    between atoms: CG_58  and  CD_59 
REMARK       I    between atoms: CD_59  and  NE2_61 
REMARK   37  A    between atoms: N_62  and  CA_63 
REMARK   38  A    between atoms: CA_63  and  CB_66 
REMARK   39  A    between atoms: CA_63  and  C_64 
REMARK       I    between atoms: C_64  and  N_69 
REMARK   40  A    between atoms: CB_66  and  CG2_68 
REMARK   41  A    between atoms: CB_66  and  CG1_67 
REMARK   42  A    between atoms: N_69  and  CA_70 
REMARK   43  A    between atoms: CA_70  and  CB_73 
REMARK   44  A    between atoms: CA_70  and  C_71 
REMARK       I    between atoms: C_71  and  N_80 
REMARK   45  A    between atoms: CB_73  and  CG_74 
REMARK   46  A    between atoms: CA_81  and  C_82 
REMARK       I    between atoms: C_82  and  N_87 
REMARK   47  A    between atoms: N_87  and  CA_88 
REMARK   48  A    between atoms: CA_88  and  CB_91 
REMARK   49  A    between atoms: CA_88  and  C_89 
REMARK       I    between atoms: C_89  and  N_98 
REMARK   50  A    between atoms: CB_91  and  CG_92 
REMARK   51  A    between atoms: N_98  and  CA_99 
REMARK   52  A    between atoms: CA_99  and  CB_102 
REMARK   53  A    between atoms: CA_99  and  C_100 
REMARK       I    between atoms: C_100  and  N_103 
REMARK   54  A    between atoms: N_103  and  CA_104 
REMARK   55  A    between atoms: CA_104  and  CB_107 
REMARK   56  A    between atoms: CA_104  and  C_105 
REMARK   57  A    between atoms: C_105  and  O1_108 
ROOT
ATOM      1  CA  GLN d   1      69.774  42.484  32.807  0.00  0.00     0.090 C 
ATOM      2  H48 GLN d   1      69.292  42.009  31.940  0.00  0.00     0.087 H 
ENDROOT
BRANCH   1   3
ATOM      3  N   GLN d   1      70.322  41.436  33.662  0.00  0.00    -0.346 N 
ATOM      4  C   SEP d   1      71.149  40.504  33.193  0.00  0.00     0.243 C 
ATOM      5  O   SEP d   1      71.638  40.533  32.060  0.00  0.00    -0.271 OA
ATOM      6  H47 GLN d   1      70.069  41.417  34.629  0.00  0.00     0.163 HD
BRANCH   4   7
ATOM      7  CA  SEP d   1      71.463  39.360  34.141  0.00  0.00     0.110 C 
ATOM      8  H41 SEP d   1      70.573  39.194  34.765  0.00  0.00     0.090 H 
BRANCH   7   9
ATOM      9  N   SEP d   1      71.715  38.119  33.403  0.00  0.00    -0.344 N 
ATOM     10  C   ILE d   1      70.726  37.436  32.824  0.00  0.00     0.241 C 
ATOM     11  O   ILE d   1      69.555  37.828  32.801  0.00  0.00    -0.271 OA
ATOM     12  H40 SEP d   1      72.651  37.776  33.332  0.00  0.00     0.163 HD
BRANCH  10  13
ATOM     13  CA  ILE d   1      71.109  36.085  32.207  0.00  0.00     0.092 C 
ATOM     14  H30 ILE d   1      72.060  35.788  32.674  0.00  0.00     0.088 H 
BRANCH  13  15
ATOM     15  N   ILE d   1      70.130  35.042  32.507  0.00  0.00    -0.346 N 
ATOM     16  C   ASP d   1      70.495  33.820  32.878  0.00  0.00     0.241 C 
ATOM     17  O   ASP d   1      71.634  33.539  33.238  0.00  0.00    -0.271 OA
ATOM     18  H29 ILE d   1      69.156  35.255  32.431  0.00  0.00     0.163 HD
BRANCH  16  19
ATOM     19  CA  ASP d   1      69.414  32.743  32.851  0.00  0.00     0.098 C 
ATOM     20  H26 ASP d   1      68.793  32.931  31.963  0.00  0.00     0.088 H 
BRANCH  19  21
ATOM     21  N   ASP d   1      70.023  31.435  32.691  0.00  0.00    -0.345 N 
ATOM     22  C   TYR d   1      70.486  31.010  31.525  0.00  0.00     0.241 C 
ATOM     23  O   TYR d   1      70.451  31.644  30.467  0.00  0.00    -0.271 OA
ATOM     24  H25 ASP d   1      70.095  30.835  33.488  0.00  0.00     0.163 HD
BRANCH  22  25
ATOM     25  CA  TYR d   1      71.090  29.631  31.594  0.00  0.00     0.093 C 
ATOM     26  H17 TYR d   1      70.710  29.142  32.503  0.00  0.00     0.088 H 
BRANCH  25  27
ATOM     27  N   TYR d   1      70.656  28.830  30.453  0.00  0.00    -0.346 N 
ATOM     28  C   ALA d   1      70.157  27.606  30.681  0.00  0.00     0.240 C 
ATOM     29  O   ALA d   1      70.141  27.125  31.812  0.00  0.00    -0.271 OA
ATOM     30  H16 TYR d   1      70.729  29.186  29.521  0.00  0.00     0.163 HD
BRANCH  28  31
ATOM     31  CA  ALA d   1      69.586  26.789  29.521  0.00  0.00     0.086 C 
ATOM     32  H12 ALA d   1      69.491  27.457  28.653  0.00  0.00     0.086 H 
BRANCH  31  33
ATOM     33  N   ALA d   1      70.452  25.685  29.141  0.00  0.00    -0.346 N 
ATOM     34  C   ALA d   1      71.613  25.876  28.570  0.00  0.00     0.240 C 
ATOM     35  O   ALA d   1      72.078  27.003  28.366  0.00  0.00    -0.271 OA
ATOM     36  H11 ALA d   1      70.150  24.749  29.322  0.00  0.00     0.163 HD
BRANCH  34  37
ATOM     37  CA  ALA d   1      72.399  24.614  28.144  0.00  0.00     0.086 C 
ATOM     38  H7  ALA d   1      71.929  24.241  27.222  0.00  0.00     0.086 H 
BRANCH  37  39
ATOM     39  N   ALA d   1      73.818  24.835  27.847  0.00  0.00    -0.347 N 
ATOM     40  C   GLY d   1      74.237  25.590  26.844  0.00  0.00     0.243 C 
ATOM     41  O   GLY d   1      73.472  26.212  26.101  0.00  0.00    -0.272 OA
ATOM     42  H6  ALA d   1      74.501  24.395  28.430  0.00  0.00     0.163 HD
BRANCH  40  43
ATOM     43  CA  GLY d   1      75.755  25.660  26.663  0.00  0.00     0.152 C 
ATOM     44  H4  GLY d   1      76.222  24.885  27.289  0.00  0.00     0.090 H 
ATOM     45  H5  GLY d   1      75.994  25.471  25.606  0.00  0.00     0.090 H 
BRANCH  43  46
ATOM     46  N   GLY d   1      76.293  26.948  27.039  0.00  0.00    -0.071 N 
ATOM     47  H1  GLY d   1      77.292  26.947  26.904  0.00  0.00     0.274 HD
ATOM     48  H2  GLY d   1      76.085  27.129  28.009  0.00  0.00     0.274 HD
ATOM     49  H3  GLY d   1      75.877  27.666  26.467  0.00  0.00     0.274 HD
ENDBRANCH  43  46
ENDBRANCH  40  43
ENDBRANCH  37  39
BRANCH  37  50
ATOM     50  CB  ALA d   1      72.276  23.529  29.213  0.00  0.00    -0.049 C 
ATOM     51  H8  ALA d   1      71.214  23.358  29.441  0.00  0.00     0.030 H 
ATOM     52  H9  ALA d   1      72.799  23.852  30.125  0.00  0.00     0.030 H 
ATOM     53  H10 ALA d   1      72.726  22.596  28.842  0.00  0.00     0.030 H 
ENDBRANCH  37  50
ENDBRANCH  34  37
ENDBRANCH  31  33
BRANCH  31  54
ATOM     54  CB  ALA d   1      68.205  26.270  29.877  0.00  0.00    -0.049 C 
ATOM     55  H13 ALA d   1      67.559  27.113  30.163  0.00  0.00     0.030 H 
ATOM     56  H14 ALA d   1      68.283  25.567  30.719  0.00  0.00     0.030 H 
ATOM     57  H15 ALA d   1      67.772  25.754  29.007  0.00  0.00     0.030 H 
ENDBRANCH  31  54
ENDBRANCH  28  31
ENDBRANCH  25  27
BRANCH  25  58
ATOM     58  CB  TYR d   1      72.632  29.709  31.724  0.00  0.00    -0.014 C 
ATOM     59  H18 TYR d   1      73.006  28.680  31.831  0.00  0.00     0.043 H 
ATOM     60  H19 TYR d   1      72.857  30.279  32.638  0.00  0.00     0.043 H 
BRANCH  58  61
ATOM     61  CG  TYR d   1      73.400  30.356  30.583  0.00  0.00    -0.056 A 
ATOM     62  CD1 TYR d   1      73.760  31.694  30.608  0.00  0.00    -0.074 A 
ATOM     63  CE1 TYR d   1      74.483  32.260  29.568  0.00  0.00    -0.051 A 
ATOM     64  H20 TYR d   1      73.472  32.308  31.454  0.00  0.00     0.084 H 
ATOM     65  CZ  TYR d   1      74.865  31.480  28.497  0.00  0.00     0.065 A 
ATOM     66  H22 TYR d   1      74.746  33.311  29.597  0.00  0.00     0.087 H 
ATOM     67  CE2 TYR d   1      74.534  30.146  28.458  0.00  0.00    -0.051 A 
ATOM     68  CD2 TYR d   1      73.811  29.590  29.500  0.00  0.00    -0.074 A 
ATOM     69  H23 TYR d   1      74.837  29.533  27.617  0.00  0.00     0.087 H 
ATOM     70  H21 TYR d   1      73.561  28.536  29.470  0.00  0.00     0.084 H 
BRANCH  65  71
ATOM     71  OH  TYR d   1      75.586  32.040  27.467  0.00  0.00    -0.361 OA
ATOM     72  H24 TYR d   1      75.730  32.962  27.647  0.00  0.00     0.217 HD
ENDBRANCH  65  71
ENDBRANCH  58  61
ENDBRANCH  25  58
ENDBRANCH  22  25
ENDBRANCH  19  21
BRANCH  19  73
ATOM     73  CB  ASP d   1      68.480  32.777  34.058  0.00  0.00     0.043 C 
ATOM     74  H27 ASP d   1      68.372  33.817  34.399  0.00  0.00     0.052 H 
ATOM     75  H28 ASP d   1      68.914  32.169  34.866  0.00  0.00     0.052 H 
BRANCH  73  76
ATOM     76  CG  ASP d   1      67.103  32.223  33.703  0.00  0.00     0.175 C 
ATOM     77  OD1 ASP d   1      66.277  32.965  33.120  0.00  0.00    -0.648 OA
ATOM     78  OD2 ASP d   1      66.857  31.033  34.005  0.00  0.00    -0.648 OA
ENDBRANCH  73  76
ENDBRANCH  19  73
ENDBRANCH  16  19
ENDBRANCH  13  15
BRANCH  13  79
ATOM     79  CB  ILE d   1      71.355  36.134  30.642  0.00  0.00    -0.030 C 
ATOM     80  H31 ILE d   1      70.503  35.616  30.177  0.00  0.00     0.043 H 
BRANCH  79  81
ATOM     81  CG2 ILE d   1      71.367  37.544  30.058  0.00  0.00    -0.071 C 
ATOM     82  H34 ILE d   1      70.449  38.072  30.356  0.00  0.00     0.028 H 
ATOM     83  H35 ILE d   1      71.417  37.486  28.961  0.00  0.00     0.028 H 
ATOM     84  H36 ILE d   1      72.243  38.090  30.437  0.00  0.00     0.028 H 
ENDBRANCH  79  81
BRANCH  79  85
ATOM     85  CG1 ILE d   1      72.619  35.344  30.258  0.00  0.00    -0.063 C 
ATOM     86  H32 ILE d   1      72.984  35.735  29.297  0.00  0.00     0.033 H 
ATOM     87  H33 ILE d   1      72.336  34.288  30.141  0.00  0.00     0.033 H 
BRANCH  85  88
ATOM     88  CD1 ILE d   1      73.783  35.416  31.275  0.00  0.00    -0.076 C 
ATOM     89  H37 ILE d   1      74.631  34.821  30.905  0.00  0.00     0.027 H 
ATOM     90  H38 ILE d   1      73.449  35.016  32.244  0.00  0.00     0.027 H 
ATOM     91  H39 ILE d   1      74.097  36.463  31.399  0.00  0.00     0.027 H 
ENDBRANCH  85  88
ENDBRANCH  79  85
ENDBRANCH  13  79
ENDBRANCH  10  13
ENDBRANCH   7   9
BRANCH   7  92
ATOM     92  CB  SEP d   1      72.618  39.722  35.084  0.00  0.00     0.057 C 
ATOM     93  H42 SEP d   1      72.325  39.479  36.116  0.00  0.00     0.079 H 
ATOM     94  H43 SEP d   1      72.818  40.801  35.004  0.00  0.00     0.079 H 
BRANCH  92  95
ATOM     95  OG  SEP d   1      73.799  39.012  34.765  0.00  0.00    -0.302 OA
BRANCH  95  96
ATOM     96  P   SEP d   1      74.939  39.223  35.878  0.00  0.00     0.376 P 
BRANCH  96  97
ATOM     97  O1P SEP d   1      75.186  40.781  36.180  0.00  0.00    -0.314 OA
ATOM     98  H44 SEP d   1      75.460  41.218  35.382  0.00  0.00     0.221 HD
ENDBRANCH  96  97
BRANCH  96  99
ATOM     99  O2P SEP d   1      76.291  38.622  35.275  0.00  0.00    -0.314 OA
ATOM    100  H45 SEP d   1      76.993  38.728  35.907  0.00  0.00     0.221 HD
ENDBRANCH  96  99
BRANCH  96 101
ATOM    101  O3P SEP d   1      74.548  38.409  37.208  0.00  0.00    -0.314 OA
ATOM    102  H46 SEP d   1      75.223  38.535  37.865  0.00  0.00     0.221 HD
ENDBRANCH  96 101
ENDBRANCH  95  96
ENDBRANCH  92  95
ENDBRANCH   7  92
ENDBRANCH   4   7
ENDBRANCH   1   3
BRANCH   1 103
ATOM    103  CB  GLN d   1      68.729  43.318  33.552  0.00  0.00    -0.030 C 
ATOM    104  H49 GLN d   1      68.450  44.167  32.911  0.00  0.00     0.037 H 
ATOM    105  H50 GLN d   1      69.189  43.693  34.478  0.00  0.00     0.037 H 
BRANCH 103 106
ATOM    106  CG  GLN d   1      67.454  42.568  33.926  0.00  0.00     0.011 C 
ATOM    107  H51 GLN d   1      67.062  42.992  34.862  0.00  0.00     0.047 H 
ATOM    108  H52 GLN d   1      67.706  41.508  34.081  0.00  0.00     0.047 H 
BRANCH 106 109
ATOM    109  CD  GLN d   1      66.362  42.656  32.859  0.00  0.00     0.215 C 
ATOM    110  NE2 GLN d   1      65.366  41.772  32.963  0.00  0.00    -0.370 N 
ATOM    111  H53 GLN d   1      64.621  41.777  32.296  0.00  0.00     0.159 HD
ATOM    112  H54 GLN d   1      65.365  41.105  33.708  0.00  0.00     0.159 HD
ATOM    113  OE1 GLN d   1      66.413  43.511  31.958  0.00  0.00    -0.274 OA
ENDBRANCH 106 109
ENDBRANCH 103 106
ENDBRANCH   1 103
BRANCH   1 114
ATOM    114  C   GLN d   1      70.879  43.390  32.316  0.00  0.00     0.241 C 
ATOM    115  O   GLN d   1      71.901  43.558  32.986  0.00  0.00    -0.271 OA
ATOM    116  N   VAL d   1      70.681  43.929  31.125  0.00  0.00    -0.346 N 
ATOM    117  H55 VAL d   1      69.914  43.606  30.570  0.00  0.00     0.163 HD
BRANCH 116 118
ATOM    118  CA  VAL d   1      71.539  44.973  30.595  0.00  0.00     0.092 C 
ATOM    119  H56 VAL d   1      72.420  45.090  31.243  0.00  0.00     0.088 H 
BRANCH 118 120
ATOM    120  CB  VAL d   1      72.049  44.594  29.174  0.00  0.00    -0.033 C 
ATOM    121  H57 VAL d   1      71.342  43.870  28.743  0.00  0.00     0.042 H 
BRANCH 120 122
ATOM    122  CG2 VAL d   1      73.409  43.934  29.287  0.00  0.00    -0.071 C 
ATOM    123  H61 VAL d   1      73.344  43.075  29.972  0.00  0.00     0.028 H 
ATOM    124  H62 VAL d   1      74.138  44.660  29.677  0.00  0.00     0.028 H 
ATOM    125  H63 VAL d   1      73.732  43.588  28.294  0.00  0.00     0.028 H 
ENDBRANCH 120 122
BRANCH 120 126
ATOM    126  CG1 VAL d   1      72.134  45.782  28.228  0.00  0.00    -0.071 C 
ATOM    127  H58 VAL d   1      72.499  45.444  27.247  0.00  0.00     0.028 H 
ATOM    128  H59 VAL d   1      72.828  46.530  28.640  0.00  0.00     0.028 H 
ATOM    129  H60 VAL d   1      71.136  46.231  28.113  0.00  0.00     0.028 H 
ENDBRANCH 120 126
ENDBRANCH 118 120
BRANCH 118 130
ATOM    130  C   VAL d   1      70.706  46.248  30.672  0.00  0.00     0.241 C 
ATOM    131  O   VAL d   1      69.479  46.177  30.761  0.00  0.00    -0.271 OA
ATOM    132  N   PHE d   1      71.352  47.407  30.705  0.00  0.00    -0.346 N 
ATOM    133  H64 PHE d   1      72.352  47.424  30.680  0.00  0.00     0.163 HD
BRANCH 132 134
ATOM    134  CA  PHE d   1      70.605  48.653  30.777  0.00  0.00     0.093 C 
ATOM    135  H65 PHE d   1      69.539  48.396  30.692  0.00  0.00     0.088 H 
BRANCH 134 136
ATOM    136  CB  PHE d   1      70.789  49.310  32.156  0.00  0.00    -0.014 C 
ATOM    137  H66 PHE d   1      70.364  50.324  32.121  0.00  0.00     0.043 H 
ATOM    138  H67 PHE d   1      71.865  49.371  32.374  0.00  0.00     0.043 H 
BRANCH 136 139
ATOM    139  CG  PHE d   1      70.116  48.545  33.270  0.00  0.00    -0.056 A 
ATOM    140  CD1 PHE d   1      70.757  47.485  33.898  0.00  0.00    -0.077 A 
ATOM    141  CE1 PHE d   1      70.133  46.766  34.890  0.00  0.00    -0.082 A 
ATOM    142  H68 PHE d   1      71.765  47.220  33.601  0.00  0.00     0.084 H 
ATOM    143  CZ  PHE d   1      68.844  47.090  35.270  0.00  0.00    -0.083 A 
ATOM    144  H70 PHE d   1      70.651  45.946  35.374  0.00  0.00     0.083 H 
ATOM    145  CE2 PHE d   1      68.189  48.142  34.655  0.00  0.00    -0.082 A 
ATOM    146  H72 PHE d   1      68.348  46.521  36.048  0.00  0.00     0.083 H 
ATOM    147  CD2 PHE d   1      68.823  48.861  33.660  0.00  0.00    -0.077 A 
ATOM    148  H71 PHE d   1      67.180  48.402  34.953  0.00  0.00     0.083 H 
ATOM    149  H69 PHE d   1      68.304  49.682  33.178  0.00  0.00     0.084 H 
ENDBRANCH 136 139
ENDBRANCH 134 136
BRANCH 134 150
ATOM    150  C   PHE d   1      70.922  49.569  29.594  0.00  0.00     0.243 C 
ATOM    151  O   PHE d   1      71.736  50.486  29.704  0.00  0.00    -0.271 OA
ATOM    152  N   PRO d   1      70.256  49.307  28.467  0.00  0.00    -0.337 N 
ATOM    153  CA  PRO d   1      70.535  49.976  27.192  0.00  0.00     0.091 C 
ATOM    154  CD  PRO d   1      69.157  48.337  28.321  0.00  0.00    -0.001 C 
ATOM    155  CB  PRO d   1      69.674  49.196  26.198  0.00  0.00    -0.036 C 
ATOM    156  H73 PRO d   1      71.606  49.911  26.947  0.00  0.00     0.087 H 
ATOM    157  CG  PRO d   1      69.317  47.956  26.894  0.00  0.00    -0.048 C 
ATOM    158  H74 PRO d   1      70.244  48.975  25.283  0.00  0.00     0.036 H 
ATOM    159  H75 PRO d   1      68.770  49.767  25.938  0.00  0.00     0.036 H 
ATOM    160  H76 PRO d   1      68.376  47.549  26.496  0.00  0.00     0.035 H 
ATOM    161  H77 PRO d   1      70.116  47.208  26.782  0.00  0.00     0.035 H 
ATOM    162  H78 PRO d   1      68.178  48.802  28.509  0.00  0.00     0.064 H 
ATOM    163  H79 PRO d   1      69.287  47.473  28.989  0.00  0.00     0.064 H 
BRANCH 153 164
ATOM    164  C   PRO d   1      70.088  51.418  27.148  0.00  0.00     0.241 C 
ATOM    165  O   PRO d   1      69.505  51.925  28.111  0.00  0.00    -0.271 OA
ATOM    166  N   PHE d   1      70.301  52.039  26.003  0.00  0.00    -0.346 N 
ATOM    167  H80 PHE d   1      70.796  51.564  25.275  0.00  0.00     0.163 HD
BRANCH 166 168
ATOM    168  CA  PHE d   1      69.830  53.409  25.771  0.00  0.00     0.093 C 
ATOM    169  H81 PHE d   1      70.305  54.070  26.511  0.00  0.00     0.088 H 
BRANCH 168 170
ATOM    170  CB  PHE d   1      70.258  53.868  24.361  0.00  0.00    -0.014 C 
ATOM    171  H82 PHE d   1      69.701  53.257  23.636  0.00  0.00     0.043 H 
ATOM    172  H83 PHE d   1      71.334  53.662  24.264  0.00  0.00     0.043 H 
BRANCH 170 173
ATOM    173  CG  PHE d   1      70.043  55.316  23.986  0.00  0.00    -0.056 A 
ATOM    174  CD1 PHE d   1      71.019  56.256  24.301  0.00  0.00    -0.077 A 
ATOM    175  CE1 PHE d   1      70.853  57.593  23.962  0.00  0.00    -0.082 A 
ATOM    176  H84 PHE d   1      71.919  55.942  24.817  0.00  0.00     0.084 H 
ATOM    177  CZ  PHE d   1      69.700  57.998  23.290  0.00  0.00    -0.083 A 
ATOM    178  H86 PHE d   1      71.617  58.318  24.219  0.00  0.00     0.083 H 
ATOM    179  CE2 PHE d   1      68.723  57.063  22.967  0.00  0.00    -0.082 A 
ATOM    180  H88 PHE d   1      69.566  59.039  23.020  0.00  0.00     0.083 H 
ATOM    181  CD2 PHE d   1      68.902  55.731  23.312  0.00  0.00    -0.077 A 
ATOM    182  H87 PHE d   1      67.824  57.374  22.447  0.00  0.00     0.083 H 
ATOM    183  H85 PHE d   1      68.141  55.004  23.052  0.00  0.00     0.084 H 
ENDBRANCH 170 173
ENDBRANCH 168 170
BRANCH 168 184
ATOM    184  C   PHE d   1      68.303  53.508  25.950  0.00  0.00     0.241 C 
ATOM    185  O   PHE d   1      67.586  52.593  25.569  0.00  0.00    -0.271 OA
ATOM    186  N   ALA d   1      67.829  54.598  26.516  0.00  0.00    -0.346 N 
ATOM    187  H89 ALA d   1      68.462  55.306  26.827  0.00  0.00     0.163 HD
BRANCH 186 188
ATOM    188  CA  ALA d   1      66.385  54.789  26.697  0.00  0.00     0.086 C 
ATOM    189  H90 ALA d   1      65.871  54.449  25.786  0.00  0.00     0.086 H 
BRANCH 188 190
ATOM    190  CB  ALA d   1      65.882  53.964  27.871  0.00  0.00    -0.049 C 
ATOM    191  H91 ALA d   1      64.800  54.119  27.991  0.00  0.00     0.030 H 
ATOM    192  H92 ALA d   1      66.402  54.277  28.789  0.00  0.00     0.030 H 
ATOM    193  H93 ALA d   1      66.081  52.899  27.682  0.00  0.00     0.030 H 
ENDBRANCH 188 190
BRANCH 188 194
ATOM    194  C   ALA d   1      66.074  56.246  26.907  0.00  0.00     0.240 C 
ATOM    195  O   ALA d   1      66.955  57.022  27.242  0.00  0.00    -0.271 OA
ATOM    196  N   LYS d   1      64.852  56.649  26.730  0.00  0.00    -0.345 N 
ATOM    197  H94 LYS d   1      64.130  55.983  26.543  0.00  0.00     0.163 HD
BRANCH 196 198
ATOM    198  CA  LYS d   1      64.525  58.080  26.803  0.00  0.00     0.090 C 
ATOM    199  H95 LYS d   1      65.027  58.578  25.960  0.00  0.00     0.088 H 
BRANCH 198 200
ATOM    200  CB  LYS d   1      63.003  58.266  26.648  0.00  0.00    -0.048 C 
ATOM    201  H96 LYS d   1      62.757  59.337  26.703  0.00  0.00     0.030 H 
ATOM    202  H97 LYS d   1      62.484  57.729  27.456  0.00  0.00     0.030 H 
ATOM    203  H98 LYS d   1      62.682  57.865  25.675  0.00  0.00     0.030 H 
ENDBRANCH 198 200
BRANCH 198 204
ATOM    204  C   LYS d   1      64.982  58.762  28.075  0.00  0.00     0.163 C 
ATOM    205  O   LYS d   1      65.231  59.969  28.092  0.00  0.00    -0.648 OA
BRANCH 204 206
ATOM    206  O1  LYS d   1      65.117  58.049  29.189  0.00  0.00    -0.775 OA
ATOM    207  H99 LYS d   1      66.017  58.098  29.489  0.00  0.00     0.167 HD
ENDBRANCH 204 206
ENDBRANCH 198 204
ENDBRANCH 196 198
ENDBRANCH 188 194
ENDBRANCH 186 188
ENDBRANCH 168 184
ENDBRANCH 166 168
ENDBRANCH 153 164
ENDBRANCH 134 150
ENDBRANCH 132 134
ENDBRANCH 118 130
ENDBRANCH 116 118
ENDBRANCH   1 114
TORSDOF 57
