REMARK  25 active torsions:
REMARK  status: ('A' for Active; 'I' for Inactive)
REMARK    1  A    between atoms: N_1  and  CA_2 
REMARK    2  A    between atoms: CA_2  and  C_3 
REMARK    3  A    between atoms: CA_2  and  CB_5 
REMARK       I    between atoms: C_3  and  N_9 
REMARK    4  A    between atoms: CB_5  and  CG_6 
REMARK    5  A    between atoms: CG_6  and  CD1_7 
REMARK    6  A    between atoms: CG_6  and  CD2_8 
REMARK    7  A    between atoms: N_9  and  CA_10 
REMARK    8  A    between atoms: CA_10  and  C_11 
REMARK    9  A    between atoms: CA_10  and  CB_13 
REMARK       I    between atoms: C_11  and  N_14 
REMARK   10  A    between atoms: N_14  and  CA_15 
REMARK   11  A    between atoms: CA_15  and  C_16 
REMARK   12  A    between atoms: CA_15  and  CB_18 
REMARK       I    between atoms: C_16  and  N_22 
REMARK   13  A    between atoms: CB_18  and  CG1_19 
REMARK   14  A    between atoms: CB_18  and  CG2_20 
REMARK   15  A    between atoms: CG1_19  and  CD1_21 
REMARK   16  A    between atoms: N_22  and  CA_23 
REMARK   17  A    between atoms: CA_23  and  C_24 
REMARK   18  A    between atoms: CA_23  and  CB_26 
REMARK       I    between atoms: C_24  and  N_34 
REMARK   19  A    between atoms: CB_26  and  CG_27 
REMARK   20  A    between atoms: CZ_32  and  OH_33 
REMARK   21  A    between atoms: N_34  and  CA_35 
REMARK   22  A    between atoms: CA_35  and  C_36 
REMARK   23  A    between atoms: CA_35  and  CB_38 
REMARK   24  A    between atoms: C_36  and  O_37 
REMARK   25  A    between atoms: CB_38  and  OG_39 
ROOT
ATOM      1  CA  ILE d   1      33.367  31.920  -5.839  0.00  0.00     0.092 C 
ATOM      2  H20 ILE d   1      34.213  31.312  -6.191  0.00  0.00     0.088 H 
ENDROOT
BRANCH   1   3
ATOM      3  N   ILE d   1      32.331  31.644  -6.842  0.00  0.00    -0.346 N 
ATOM      4  C   ALA d   1      31.445  30.662  -6.988  0.00  0.00     0.240 C 
ATOM      5  O   ALA d   1      31.290  29.712  -6.226  0.00  0.00    -0.271 OA
ATOM      6  H19 ILE d   1      32.281  32.335  -7.563  0.00  0.00     0.163 HD
BRANCH   4   7
ATOM      7  CA  ALA d   1      30.622  30.861  -8.275  0.00  0.00     0.086 C 
ATOM      8  H15 ALA d   1      31.341  31.300  -8.983  0.00  0.00     0.086 H 
BRANCH   7   9
ATOM      9  N   ALA d   1      30.041  29.739  -9.008  0.00  0.00    -0.346 N 
ATOM     10  C   LEU d   1      30.178  29.767 -10.328  0.00  0.00     0.248 C 
ATOM     11  O   LEU d   1      30.862  30.618 -10.866  0.00  0.00    -0.271 OA
ATOM     12  H14 ALA d   1      29.567  28.992  -8.542  0.00  0.00     0.163 HD
BRANCH  10  13
ATOM     13  CA  LEU d   1      29.532  28.685 -11.174  0.00  0.00     0.176 C 
ATOM     14  H4  LEU d   1      30.304  28.292 -11.851  0.00  0.00     0.099 H 
BRANCH  13  15
ATOM     15  N   LEU d   1      29.014  27.536 -10.392  0.00  0.00    -0.066 N 
ATOM     16  H1  LEU d   1      28.602  26.862 -11.018  0.00  0.00     0.275 HD
ATOM     17  H2  LEU d   1      28.316  27.860  -9.741  0.00  0.00     0.275 HD
ATOM     18  H3  LEU d   1      29.772  27.105  -9.886  0.00  0.00     0.275 HD
ENDBRANCH  13  15
BRANCH  13  19
ATOM     19  CB  LEU d   1      28.414  29.320 -12.039  0.00  0.00    -0.028 C 
ATOM     20  H5  LEU d   1      28.166  28.593 -12.826  0.00  0.00     0.037 H 
ATOM     21  H6  LEU d   1      28.839  30.225 -12.497  0.00  0.00     0.037 H 
BRANCH  19  22
ATOM     22  CG  LEU d   1      27.093  29.732 -11.380  0.00  0.00    -0.059 C 
ATOM     23  H7  LEU d   1      27.030  29.278 -10.380  0.00  0.00     0.038 H 
BRANCH  22  24
ATOM     24  CD1 LEU d   1      26.987  31.249 -11.244  0.00  0.00    -0.073 C 
ATOM     25  H8  LEU d   1      26.030  31.509 -10.769  0.00  0.00     0.028 H 
ATOM     26  H9  LEU d   1      27.038  31.711 -12.241  0.00  0.00     0.028 H 
ATOM     27  H10 LEU d   1      27.817  31.620 -10.624  0.00  0.00     0.028 H 
ENDBRANCH  22  24
BRANCH  22  28
ATOM     28  CD2 LEU d   1      25.947  29.218 -12.249  0.00  0.00    -0.073 C 
ATOM     29  H11 LEU d   1      26.023  28.125 -12.347  0.00  0.00     0.028 H 
ATOM     30  H12 LEU d   1      26.006  29.681 -13.245  0.00  0.00     0.028 H 
ATOM     31  H13 LEU d   1      24.986  29.478 -11.780  0.00  0.00     0.028 H 
ENDBRANCH  22  28
ENDBRANCH  19  22
ENDBRANCH  13  19
ENDBRANCH  10  13
ENDBRANCH   7   9
BRANCH   7  32
ATOM     32  CB  ALA d   1      29.556  31.899  -8.048  0.00  0.00    -0.049 C 
ATOM     33  H16 ALA d   1      29.984  32.749  -7.496  0.00  0.00     0.030 H 
ATOM     34  H17 ALA d   1      28.734  31.459  -7.464  0.00  0.00     0.030 H 
ATOM     35  H18 ALA d   1      29.171  32.248  -9.018  0.00  0.00     0.030 H 
ENDBRANCH   7  32
ENDBRANCH   4   7
ENDBRANCH   1   3
BRANCH   1  36
ATOM     36  C   ILE d   1      33.346  31.648  -4.321  0.00  0.00     0.241 C 
ATOM     37  O   ILE d   1      32.319  31.511  -3.669  0.00  0.00    -0.271 OA
ATOM     38  N   TYR d   1      34.570  31.598  -3.805  0.00  0.00    -0.346 N 
ATOM     39  H30 TYR d   1      35.324  31.679  -4.457  0.00  0.00     0.163 HD
BRANCH  38  40
ATOM     40  CA  TYR d   1      34.950  31.439  -2.404  0.00  0.00     0.093 C 
ATOM     41  H31 TYR d   1      34.100  31.354  -1.711  0.00  0.00     0.088 H 
BRANCH  40  42
ATOM     42  C   TYR d   1      35.712  32.758  -2.332  0.00  0.00     0.241 C 
ATOM     43  O   TYR d   1      35.118  33.815  -2.311  0.00  0.00    -0.271 OA
ATOM     44  N   SER d   1      37.036  32.709  -2.366  0.00  0.00    -0.351 N 
ATOM     45  H39 SER d   1      37.508  31.828  -2.395  0.00  0.00     0.163 HD
BRANCH  44  46
ATOM     46  CA  SER d   1      37.800  33.956  -2.361  0.00  0.00     0.052 C 
ATOM     47  H40 SER d   1      37.213  34.684  -2.940  0.00  0.00     0.079 H 
BRANCH  46  48
ATOM     48  C   SER d   1      39.179  33.870  -3.035  0.00  0.00     0.037 C 
ATOM     49  H41 SER d   1      39.396  32.810  -3.235  0.00  0.00     0.077 H 
ATOM     50  H42 SER d   1      39.927  34.271  -2.335  0.00  0.00     0.077 H 
BRANCH  48  51
ATOM     51  O   SER d   1      39.280  34.498  -4.114  0.00  0.00    -0.399 OA
ATOM     52  H43 SER d   1      39.108  35.420  -3.960  0.00  0.00     0.209 HD
ENDBRANCH  48  51
ENDBRANCH  46  48
BRANCH  46  53
ATOM     53  CB  SER d   1      37.937  34.513  -0.927  0.00  0.00     0.037 C 
ATOM     54  H44 SER d   1      36.962  34.912  -0.609  0.00  0.00     0.077 H 
ATOM     55  H45 SER d   1      38.681  35.323  -0.933  0.00  0.00     0.077 H 
BRANCH  53  56
ATOM     56  OG  SER d   1      38.349  33.525   0.004  0.00  0.00    -0.399 OA
ATOM     57  H46 SER d   1      37.709  32.823   0.023  0.00  0.00     0.209 HD
ENDBRANCH  53  56
ENDBRANCH  46  53
ENDBRANCH  44  46
ENDBRANCH  40  42
BRANCH  40  58
ATOM     58  CB  TYR d   1      35.955  30.282  -2.216  0.00  0.00    -0.014 C 
ATOM     59  H32 TYR d   1      35.897  29.942  -1.171  0.00  0.00     0.043 H 
ATOM     60  H33 TYR d   1      36.965  30.666  -2.421  0.00  0.00     0.043 H 
BRANCH  58  61
ATOM     61  CG  TYR d   1      35.709  29.089  -3.118  0.00  0.00    -0.056 A 
ATOM     62  CD1 TYR d   1      35.340  29.287  -4.444  0.00  0.00    -0.074 A 
ATOM     63  CE1 TYR d   1      35.099  28.250  -5.307  0.00  0.00    -0.051 A 
ATOM     64  H34 TYR d   1      35.239  30.302  -4.810  0.00  0.00     0.084 H 
ATOM     65  CZ  TYR d   1      35.225  26.960  -4.876  0.00  0.00     0.065 A 
ATOM     66  H36 TYR d   1      34.809  28.453  -6.331  0.00  0.00     0.087 H 
ATOM     67  CE2 TYR d   1      35.599  26.696  -3.547  0.00  0.00    -0.051 A 
ATOM     68  CD2 TYR d   1      35.840  27.773  -2.665  0.00  0.00    -0.074 A 
ATOM     69  H37 TYR d   1      35.702  25.674  -3.201  0.00  0.00     0.087 H 
ATOM     70  H35 TYR d   1      36.126  27.579  -1.638  0.00  0.00     0.084 H 
BRANCH  65  71
ATOM     71  OH  TYR d   1      34.989  25.964  -5.796  0.00  0.00    -0.361 OA
ATOM     72  H38 TYR d   1      34.750  26.354  -6.629  0.00  0.00     0.217 HD
ENDBRANCH  65  71
ENDBRANCH  58  61
ENDBRANCH  40  58
ENDBRANCH  38  40
ENDBRANCH   1  36
BRANCH   1  73
ATOM     73  CB  ILE d   1      33.772  33.410  -5.981  0.00  0.00    -0.030 C 
ATOM     74  H21 ILE d   1      32.979  34.038  -5.549  0.00  0.00     0.043 H 
BRANCH  73  75
ATOM     75  CG1 ILE d   1      33.945  33.766  -7.456  0.00  0.00    -0.063 C 
ATOM     76  H22 ILE d   1      34.163  32.843  -8.014  0.00  0.00     0.033 H 
ATOM     77  H23 ILE d   1      34.793  34.460  -7.550  0.00  0.00     0.033 H 
BRANCH  75  78
ATOM     78  CD1 ILE d   1      32.705  34.427  -8.074  0.00  0.00    -0.076 C 
ATOM     79  H27 ILE d   1      32.900  34.655  -9.132  0.00  0.00     0.027 H 
ATOM     80  H28 ILE d   1      32.478  35.358  -7.534  0.00  0.00     0.027 H 
ATOM     81  H29 ILE d   1      31.848  33.742  -7.998  0.00  0.00     0.027 H 
ENDBRANCH  75  78
ENDBRANCH  73  75
BRANCH  73  82
ATOM     82  CG2 ILE d   1      35.043  33.673  -5.264  0.00  0.00    -0.071 C 
ATOM     83  H24 ILE d   1      34.924  33.418  -4.201  0.00  0.00     0.028 H 
ATOM     84  H25 ILE d   1      35.304  34.737  -5.359  0.00  0.00     0.028 H 
ATOM     85  H26 ILE d   1      35.844  33.059  -5.701  0.00  0.00     0.028 H 
ENDBRANCH  73  82
ENDBRANCH   1  73
TORSDOF 25
