REMARK  9 active torsions:
REMARK  status: ('A' for Active; 'I' for Inactive)
REMARK    1  A    between atoms: O3A_8  and  PB_1 
REMARK    2  A    between atoms: PA_5  and  O3A_8 
REMARK    3  A    between atoms: PA_5  and  O5_9 
REMARK    4  A    between atoms: O5_9  and  C5_10 
REMARK    5  A    between atoms: C5_10  and  C4_11 
REMARK    6  A    between atoms: C3_13  and  O3_14 
REMARK    7  A    between atoms: C2_15  and  O2_16 
REMARK    8  A    between atoms: C1_17  and  N9_18 
REMARK    9  A    between atoms: C6_22  and  N6_23 
ROOT
ATOM      1  C4  ADP d   1      93.439  86.300 -47.581  0.00  0.00     0.089 C 
ATOM      2  O4  ADP d   1      94.017  85.321 -46.715  0.00  0.00    -0.353 OA
ATOM      3  C3  ADP d   1      94.575  87.188 -48.058  0.00  0.00     0.091 C 
ATOM      4  C2  ADP d   1      95.815  86.320 -47.815  0.00  0.00     0.105 C 
ATOM      5  C1  ADP d   1      95.413  85.486 -46.593  0.00  0.00     0.139 C 
ATOM      6  H3  ADP d   1      92.725  86.917 -47.016  0.00  0.00     0.090 H 
ATOM      7  H4  ADP d   1      94.477  87.481 -49.114  0.00  0.00     0.091 H 
ATOM      8  H6  ADP d   1      95.973  85.666 -48.685  0.00  0.00     0.093 H 
ATOM      9  H8  ADP d   1      95.677  86.013 -45.664  0.00  0.00     0.122 H 
ENDROOT
BRANCH   5  10
ATOM     10  N9  ADP d   1      96.024  84.147 -46.601  0.00  0.00    -0.294 N 
ATOM     11  C8  ADP d   1      95.802  83.139 -47.516  0.00  0.00     0.071 A 
ATOM     12  N7  ADP d   1      96.501  82.061 -47.248  0.00  0.00    -0.236 NA
ATOM     13  H9  ADP d   1      95.124  83.228 -48.364  0.00  0.00     0.144 H 
ATOM     14  C5  ADP d   1      97.230  82.382 -46.087  0.00  0.00     0.149 A 
ATOM     15  C6  ADP d   1      98.151  81.653 -45.327  0.00  0.00     0.155 A 
ATOM     16  C4  ADP d   1      96.959  83.662 -45.654  0.00  0.00     0.167 A 
ATOM     17  N1  ADP d   1      98.626  82.332 -44.258  0.00  0.00    -0.222 NA
ATOM     18  C2  ADP d   1      98.287  83.588 -43.921  0.00  0.00     0.091 A 
ATOM     19  N3  ADP d   1      97.421  84.341 -44.614  0.00  0.00    -0.222 NA
ATOM     20  H12 ADP d   1      98.741  84.018 -43.036  0.00  0.00     0.146 H 
BRANCH  15  21
ATOM     21  N6  ADP d   1      98.523  80.448 -45.609  0.00  0.00    -0.382 N 
ATOM     22  H10 ADP d   1      99.206  79.966 -45.008  0.00  0.00     0.157 HD
ATOM     23  H11 ADP d   1      98.136  79.970 -46.435  0.00  0.00     0.157 HD
ENDBRANCH  15  21
ENDBRANCH   5  10
BRANCH   4  24
ATOM     24  O2  ADP d   1      97.007  87.005 -47.581  0.00  0.00    -0.388 OA
ATOM     25  H7  ADP d   1      97.210  87.550 -48.332  0.00  0.00     0.210 HD
ENDBRANCH   4  24
BRANCH   1  26
ATOM     26  C5  ADP d   1      92.676  85.601 -48.705  0.00  0.00     0.058 C 
ATOM     27  H1  ADP d   1      91.804  85.079 -48.284  0.00  0.00     0.079 H 
ATOM     28  H2  ADP d   1      92.337  86.350 -49.436  0.00  0.00     0.079 H 
BRANCH  26  29
ATOM     29  O5  ADP d   1      93.534  84.644 -49.364  0.00  0.00    -0.287 OA
BRANCH  29  30
ATOM     30  PA  ADP d   1      93.336  84.291 -50.896  0.00  0.00     0.418 P 
ATOM     31  O1A ADP d   1      94.228  83.197 -51.279  0.00  0.00    -0.624 OA
ATOM     32  O2A ADP d   1      91.865  84.203 -51.128  0.00  0.00    -0.624 OA
BRANCH  30  33
ATOM     33  O3A ADP d   1      93.788  85.682 -51.583  0.00  0.00    -0.173 OA
BRANCH  33  34
ATOM     34  PB  ADP d   1      93.769  86.142 -53.146  0.00  0.00     0.431 P 
ATOM     35  O1B ADP d   1      93.605  87.604 -53.056  0.00  0.00    -0.616 OA
ATOM     36  O2B ADP d   1      92.739  85.415 -53.916  0.00  0.00    -0.616 OA
ATOM     37  O3B ADP d   1      95.157  85.725 -53.733  0.00  0.00    -0.616 OA
ENDBRANCH  33  34
ENDBRANCH  30  33
ENDBRANCH  29  30
ENDBRANCH  26  29
ENDBRANCH   1  26
BRANCH   3  38
ATOM     38  O3  ADP d   1      94.576  88.320 -47.207  0.00  0.00    -0.390 OA
ATOM     39  H5  ADP d   1      95.274  88.910 -47.467  0.00  0.00     0.210 HD
ENDBRANCH   3  38
TORSDOF 9
