REMARK  9 active torsions:
REMARK  status: ('A' for Active; 'I' for Inactive)
REMARK    1  A    between atoms: C5_3  and  C7_7 
REMARK    2  A    between atoms: C9_11  and  N13_13 
REMARK    3  A    between atoms: N13_13  and  C14_14 
REMARK    4  A    between atoms: C19_15  and  C20_37 
REMARK    5  A    between atoms: C16_18  and  N21_20 
REMARK       I    between atoms: N21_20  and  C22_21 
REMARK    6  A    between atoms: C22_21  and  C23_22 
REMARK    7  A    between atoms: C27_25  and  C46_28 
REMARK    8  A    between atoms: C46_28  and  N48_29 
REMARK    9  A    between atoms: N51_32  and  C54_33 
ROOT
ATOM      1  N21 STI d   1      24.061  26.050  40.097  0.00  0.00    -0.323 N 
ATOM      2  C22 STI d   1      24.982  25.624  39.238  0.00  0.00     0.256 C 
ATOM      3  O29 STI d   1      26.067  25.215  39.591  0.00  0.00    -0.267 OA
ATOM      4  H11 STI d   1      23.203  26.396  39.717  0.00  0.00     0.169 HD
ENDROOT
BRANCH   1   5
ATOM      5  C16 STI d   1      24.195  26.054  41.495  0.00  0.00     0.037 A 
ATOM      6  C17 STI d   1      23.149  26.603  42.233  0.00  0.00    -0.057 A 
ATOM      7  C18 STI d   1      23.207  26.610  43.628  0.00  0.00    -0.073 A 
ATOM      8  H9  STI d   1      22.290  27.025  41.724  0.00  0.00     0.086 H 
ATOM      9  C19 STI d   1      24.299  26.065  44.294  0.00  0.00    -0.035 A 
ATOM     10  H8  STI d   1      22.393  27.044  44.197  0.00  0.00     0.084 H 
ATOM     11  C14 STI d   1      25.347  25.511  43.560  0.00  0.00     0.057 A 
ATOM     12  C15 STI d   1      25.283  25.490  42.165  0.00  0.00    -0.030 A 
ATOM     13  H10 STI d   1      26.085  25.032  41.597  0.00  0.00     0.090 H 
BRANCH   9  14
ATOM     14  C20 STI d   1      24.325  26.084  45.806  0.00  0.00    -0.049 C 
ATOM     15  H31 STI d   1      25.254  25.616  46.163  0.00  0.00     0.033 H 
ATOM     16  H32 STI d   1      23.461  25.526  46.195  0.00  0.00     0.033 H 
ATOM     17  H33 STI d   1      24.279  27.124  46.160  0.00  0.00     0.033 H 
ENDBRANCH   9  14
BRANCH  11  18
ATOM     18  N13 STI d   1      26.404  24.954  44.201  0.00  0.00    -0.188 N 
ATOM     19  H7  STI d   1      26.312  23.985  44.539  0.00  0.00     0.184 HD
BRANCH  18  20
ATOM     20  C9  STI d   1      27.566  25.594  44.421  0.00  0.00     0.727 A 
ATOM     21  N10 STI d   1      27.854  26.789  43.849  0.00  0.00    -0.075 NA
ATOM     22  C11 STI d   1      29.034  27.388  44.093  0.00  0.00     0.023 A 
ATOM     23  C12 STI d   1      29.972  26.783  44.926  0.00  0.00    -0.036 A 
ATOM     24  H6  STI d   1      29.256  28.347  43.639  0.00  0.00     0.115 H 
ATOM     25  C7  STI d   1      29.657  25.542  45.479  0.00  0.00     0.089 A 
ATOM     26  H5  STI d   1      30.920  27.263  45.139  0.00  0.00     0.089 H 
ATOM     27  N8  STI d   1      28.465  24.975  45.216  0.00  0.00    -0.062 NA
BRANCH  25  28
ATOM     28  C5  STI d   1      30.607  24.822  46.355  0.00  0.00     0.011 A 
ATOM     29  C6  STI d   1      31.818  25.409  46.719  0.00  0.00    -0.068 A 
ATOM     30  C1  STI d   1      32.696  24.700  47.541  0.00  0.00    -0.065 A 
ATOM     31  H2  STI d   1      32.074  26.402  46.369  0.00  0.00     0.085 H 
ATOM     32  C2  STI d   1      32.330  23.424  47.955  0.00  0.00     0.002 A 
ATOM     33  H1  STI d   1      33.640  25.134  47.849  0.00  0.00     0.085 H 
ATOM     34  N3  STI d   1      31.156  22.877  47.575  0.00  0.00    -0.272 NA
ATOM     35  H4  STI d   1      32.999  22.859  48.594  0.00  0.00     0.114 H 
ATOM     36  C4  STI d   1      30.289  23.540  46.793  0.00  0.00     0.014 A 
ATOM     37  H3  STI d   1      29.350  23.081  46.505  0.00  0.00     0.116 H 
ENDBRANCH  25  28
ENDBRANCH  18  20
ENDBRANCH  11  18
ENDBRANCH   1   5
BRANCH   2  38
ATOM     38  C23 STI d   1      24.652  25.631  37.779  0.00  0.00     0.032 A 
ATOM     39  C25 STI d   1      25.443  24.895  36.896  0.00  0.00    -0.067 A 
ATOM     40  C26 STI d   1      25.135  24.897  35.539  0.00  0.00    -0.074 A 
ATOM     41  H12 STI d   1      26.290  24.327  37.264  0.00  0.00     0.085 H 
ATOM     42  C27 STI d   1      24.040  25.629  35.081  0.00  0.00    -0.033 A 
ATOM     43  H13 STI d   1      25.743  24.332  34.842  0.00  0.00     0.084 H 
ATOM     44  C28 STI d   1      23.242  26.357  35.961  0.00  0.00    -0.074 A 
ATOM     45  C29 STI d   1      23.553  26.349  37.318  0.00  0.00    -0.067 A 
ATOM     46  H14 STI d   1      22.392  26.921  35.595  0.00  0.00     0.084 H 
ATOM     47  H15 STI d   1      22.938  26.904  38.017  0.00  0.00     0.085 H 
BRANCH  42  48
ATOM     48  C46 STI d   1      23.708  25.615  33.610  0.00  0.00     0.107 C 
ATOM     49  H16 STI d   1      22.743  25.105  33.475  0.00  0.00     0.083 H 
ATOM     50  H17 STI d   1      24.495  25.058  33.080  0.00  0.00     0.083 H 
BRANCH  48  51
ATOM     51  N48 STI d   1      23.612  26.946  33.027  0.00  0.00    -0.064 N 
ATOM     52  C53 STI d   1      24.778  27.809  33.187  0.00  0.00     0.106 C 
ATOM     53  C52 STI d   1      24.407  29.225  32.769  0.00  0.00     0.105 C 
ATOM     54  H19 STI d   1      25.599  27.441  32.554  0.00  0.00     0.078 H 
ATOM     55  H20 STI d   1      25.097  27.807  34.240  0.00  0.00     0.078 H 
ATOM     56  N51 STI d   1      23.858  29.153  31.422  0.00  0.00    -0.072 N 
ATOM     57  H21 STI d   1      25.301  29.866  32.776  0.00  0.00     0.078 H 
ATOM     58  H22 STI d   1      23.656  29.636  33.459  0.00  0.00     0.078 H 
ATOM     59  C50 STI d   1      22.696  28.302  31.191  0.00  0.00     0.105 C 
ATOM     60  H23 STI d   1      24.580  28.652  30.928  0.00  0.00     0.279 HD
ATOM     61  C49 STI d   1      22.966  26.900  31.718  0.00  0.00     0.106 C 
ATOM     62  H27 STI d   1      22.489  28.252  30.112  0.00  0.00     0.078 H 
ATOM     63  H28 STI d   1      21.825  28.726  31.712  0.00  0.00     0.078 H 
ATOM     64  H29 STI d   1      22.012  26.360  31.807  0.00  0.00     0.078 H 
ATOM     65  H30 STI d   1      23.623  26.371  31.012  0.00  0.00     0.078 H 
ATOM     66  H18 STI d   1      22.927  27.407  33.605  0.00  0.00     0.280 HD
BRANCH  56  67
ATOM     67  C54 STI d   1      23.830  30.437  30.729  0.00  0.00     0.066 C 
ATOM     68  H24 STI d   1      23.405  30.302  29.724  0.00  0.00     0.068 H 
ATOM     69  H25 STI d   1      24.854  30.830  30.644  0.00  0.00     0.068 H 
ATOM     70  H26 STI d   1      23.210  31.147  31.297  0.00  0.00     0.068 H 
ENDBRANCH  56  67
ENDBRANCH  48  51
ENDBRANCH  42  48
ENDBRANCH   2  38
TORSDOF 9
