REMARK  9 active torsions:
REMARK  status: ('A' for Active; 'I' for Inactive)
REMARK    1  A    between atoms: C14_3  and  O20_4 
REMARK    2  A    between atoms: C11_9  and  C03_10 
REMARK    3  A    between atoms: C03_10  and  C9_12 
REMARK    4  A    between atoms: C8_13  and  C17_14 
REMARK    5  A    between atoms: C17_14  and  C18_15 
REMARK    6  A    between atoms: C2_21  and  S01_23 
REMARK    7  A    between atoms: S01_23  and  N01_26 
REMARK    8  A    between atoms: N01_26  and  C01_27 
REMARK    9  A    between atoms: N01_26  and  C02_28 
ROOT
ATOM      1  C9  BB3 d   1      54.187  30.649  22.510  0.00  0.00     0.058 A 
ATOM      2  C8  BB3 d   1      54.661  29.434  22.846  0.00  0.00     0.068 A 
ATOM      3  C5  BB3 d   1      55.195  31.231  21.574  0.00  0.00     0.015 A 
ATOM      4  C6  BB3 d   1      55.247  32.434  20.894  0.00  0.00    -0.068 A 
ATOM      5  C4  BB3 d   1      56.269  30.256  21.475  0.00  0.00     0.088 A 
ATOM      6  O7  BB3 d   1      55.960  29.166  22.239  0.00  0.00    -0.313 OA
ATOM      7  C3  BB3 d   1      57.386  30.487  20.703  0.00  0.00    -0.027 A 
ATOM      8  C2  BB3 d   1      57.429  31.701  20.019  0.00  0.00     0.082 A 
ATOM      9  C1  BB3 d   1      56.389  32.643  20.123  0.00  0.00    -0.059 A 
ATOM     10  H9  BB3 d   1      54.451  33.167  20.957  0.00  0.00     0.085 H 
ATOM     11  H10 BB3 d   1      58.190  29.763  20.631  0.00  0.00     0.090 H 
ATOM     12  H11 BB3 d   1      56.480  33.575  19.578  0.00  0.00     0.085 H 
ENDROOT
BRANCH   1  13
ATOM     13  C03 BB3 d   1      53.065  31.263  22.906  0.00  0.00     0.195 C 
ATOM     14  O19 BB3 d   1      52.554  32.093  22.159  0.00  0.00    -0.287 OA
BRANCH  13  15
ATOM     15  C11 BB3 d   1      52.422  30.982  24.232  0.00  0.00     0.018 A 
ATOM     16  C16 BB3 d   1      53.222  30.531  25.282  0.00  0.00    -0.050 A 
ATOM     17  C15 BB3 d   1      52.664  30.257  26.523  0.00  0.00     0.046 A 
ATOM     18  H2  BB3 d   1      54.286  30.394  25.128  0.00  0.00     0.087 H 
ATOM     19  C14 BB3 d   1      51.235  30.456  26.765  0.00  0.00     0.100 A 
ATOM     20 BR21 BB3 d   1      53.682  29.642  27.968  0.00  0.00    -0.048 Br
ATOM     21  C13 BB3 d   1      50.440  30.934  25.634  0.00  0.00     0.046 A 
ATOM     22 BR22 BB3 d   1      48.606  31.155  25.951  0.00  0.00    -0.048 Br
ATOM     23  C12 BB3 d   1      51.045  31.190  24.402  0.00  0.00    -0.050 A 
ATOM     24  H3  BB3 d   1      50.448  31.551  23.573  0.00  0.00     0.087 H 
BRANCH  19  25
ATOM     25  O20 BB3 d   1      50.729  30.222  27.889  0.00  0.00    -0.358 OA
ATOM     26  H1  BB3 d   1      50.063  29.550  27.802  0.00  0.00     0.217 HD
ENDBRANCH  19  25
ENDBRANCH  13  15
ENDBRANCH   1  13
BRANCH   2  27
ATOM     27  C17 BB3 d   1      54.016  28.422  23.755  0.00  0.00    -0.023 C 
ATOM     28  H4  BB3 d   1      53.536  27.631  23.160  0.00  0.00     0.042 H 
ATOM     29  H5  BB3 d   1      53.263  28.911  24.390  0.00  0.00     0.042 H 
BRANCH  27  30
ATOM     30  C18 BB3 d   1      55.123  27.828  24.619  0.00  0.00    -0.071 C 
ATOM     31  H6  BB3 d   1      54.694  27.080  25.302  0.00  0.00     0.028 H 
ATOM     32  H7  BB3 d   1      55.600  28.628  25.205  0.00  0.00     0.028 H 
ATOM     33  H8  BB3 d   1      55.874  27.348  23.974  0.00  0.00     0.028 H 
ENDBRANCH  27  30
ENDBRANCH   2  27
BRANCH   8  34
ATOM     34  S01 BB3 d   1      58.802  32.039  19.021  0.00  0.00     0.260 S 
ATOM     35  O01 BB3 d   1      59.193  30.875  18.278  0.00  0.00    -0.200 OA
ATOM     36  O02 BB3 d   1      58.449  33.134  18.087  0.00  0.00    -0.200 OA
BRANCH  34  37
ATOM     37  N01 BB3 d   1      60.121  32.523  20.011  0.00  0.00    -0.315 N 
BRANCH  37  38
ATOM     38  C01 BB3 d   1      59.857  33.287  21.217  0.00  0.00    -0.009 C 
ATOM     39  H12 BB3 d   1      60.807  33.510  21.725  0.00  0.00     0.057 H 
ATOM     40  H13 BB3 d   1      59.211  32.702  21.888  0.00  0.00     0.057 H 
ATOM     41  H14 BB3 d   1      59.353  34.228  20.952  0.00  0.00     0.057 H 
ENDBRANCH  37  38
BRANCH  37  42
ATOM     42  C02 BB3 d   1      61.486  32.172  19.650  0.00  0.00    -0.009 C 
ATOM     43  H15 BB3 d   1      62.179  32.571  20.405  0.00  0.00     0.057 H 
ATOM     44  H16 BB3 d   1      61.728  32.602  18.667  0.00  0.00     0.057 H 
ATOM     45  H17 BB3 d   1      61.583  31.077  19.605  0.00  0.00     0.057 H 
ENDBRANCH  37  42
ENDBRANCH  34  37
ENDBRANCH   8  34
TORSDOF 9
