REMARK  10 active torsions:
REMARK  status: ('A' for Active; 'I' for Inactive)
REMARK    1  A    between atoms: C14_3  and  O20_4 
REMARK    2  A    between atoms: C11_9  and  C03_10 
REMARK    3  A    between atoms: C03_10  and  C9_12 
REMARK    4  A    between atoms: C8_13  and  C17_14 
REMARK    5  A    between atoms: C17_14  and  C18_15 
REMARK    6  A    between atoms: C2_21  and  S01_23 
REMARK    7  A    between atoms: S01_23  and  N01_26 
REMARK    8  A    between atoms: N01_26  and  C02_27 
REMARK    9  A    between atoms: C06_31  and  S02_33 
REMARK   10  A    between atoms: S02_33  and  N02_36 
ROOT
ATOM      1  C9  892 d   1      53.901  30.397  22.072  0.00  0.00     0.058 A 
ATOM      2  C8  892 d   1      54.399  29.200  22.446  0.00  0.00     0.068 A 
ATOM      3  C5  892 d   1      54.884  30.941  21.084  0.00  0.00     0.015 A 
ATOM      4  C6  892 d   1      54.929  32.114  20.349  0.00  0.00    -0.068 A 
ATOM      5  C4  892 d   1      55.948  29.951  20.968  0.00  0.00     0.088 A 
ATOM      6  O7  892 d   1      55.666  28.897  21.782  0.00  0.00    -0.313 OA
ATOM      7  C3  892 d   1      57.029  30.138  20.128  0.00  0.00    -0.027 A 
ATOM      8  C2  892 d   1      57.064  31.322  19.399  0.00  0.00     0.082 A 
ATOM      9  C1  892 d   1      56.039  32.278  19.510  0.00  0.00    -0.059 A 
ATOM     10  H9  892 d   1      54.149  32.863  20.419  0.00  0.00     0.085 H 
ATOM     11  H10 892 d   1      57.814  29.396  20.041  0.00  0.00     0.090 H 
ATOM     12  H11 892 d   1      56.111  33.184  18.919  0.00  0.00     0.085 H 
ENDROOT
BRANCH   8  13
ATOM     13  S01 892 d   1      58.395  31.572  18.329  0.00  0.00     0.263 S 
ATOM     14  O01 892 d   1      58.354  30.567  17.268  0.00  0.00    -0.200 OA
ATOM     15  O02 892 d   1      58.271  32.910  17.743  0.00  0.00    -0.200 OA
BRANCH  13  16
ATOM     16  N01 892 d   1      59.890  31.395  19.173  0.00  0.00    -0.281 N 
ATOM     17  H12 892 d   1      60.576  30.764  18.811  0.00  0.00     0.179 HD
BRANCH  16  18
ATOM     18  C02 892 d   1      60.167  32.078  20.306  0.00  0.00     0.042 A 
ATOM     19  C01 892 d   1      61.029  31.514  21.240  0.00  0.00    -0.055 A 
ATOM     20  C05 892 d   1      61.339  32.195  22.412  0.00  0.00    -0.058 A 
ATOM     21  H13 892 d   1      61.462  30.538  21.053  0.00  0.00     0.087 H 
ATOM     22  C06 892 d   1      60.785  33.446  22.653  0.00  0.00     0.079 A 
ATOM     23  H16 892 d   1      62.012  31.750  23.136  0.00  0.00     0.086 H 
ATOM     24  C07 892 d   1      59.920  34.018  21.721  0.00  0.00    -0.058 A 
ATOM     25  C04 892 d   1      59.612  33.334  20.546  0.00  0.00    -0.055 A 
ATOM     26  H15 892 d   1      59.487  34.994  21.910  0.00  0.00     0.086 H 
ATOM     27  H14 892 d   1      58.941  33.779  19.820  0.00  0.00     0.087 H 
BRANCH  22  28
ATOM     28  S02 892 d   1      61.187  34.307  24.158  0.00  0.00     0.256 S 
ATOM     29  O05 892 d   1      61.382  33.342  25.225  0.00  0.00    -0.201 OA
ATOM     30  O03 892 d   1      62.407  35.071  23.964  0.00  0.00    -0.201 OA
BRANCH  28  31
ATOM     31  N02 892 d   1      59.912  35.326  24.551  0.00  0.00    -0.324 N 
ATOM     32  H17 892 d   1      59.961  35.894  25.372  0.00  0.00     0.169 HD
ATOM     33  H18 892 d   1      59.104  35.365  23.964  0.00  0.00     0.169 HD
ENDBRANCH  28  31
ENDBRANCH  22  28
ENDBRANCH  16  18
ENDBRANCH  13  16
ENDBRANCH   8  13
BRANCH   1  34
ATOM     34  C03 892 d   1      52.759  31.009  22.453  0.00  0.00     0.195 C 
ATOM     35  O19 892 d   1      52.205  31.787  21.682  0.00  0.00    -0.287 OA
BRANCH  34  36
ATOM     36  C11 892 d   1      52.102  30.777  23.790  0.00  0.00     0.018 A 
ATOM     37  C16 892 d   1      52.854  30.346  24.888  0.00  0.00    -0.050 A 
ATOM     38  C15 892 d   1      52.268  30.119  26.129  0.00  0.00     0.046 A 
ATOM     39  H2  892 d   1      53.919  30.185  24.769  0.00  0.00     0.087 H 
ATOM     40  C14 892 d   1      50.827  30.351  26.289  0.00  0.00     0.100 A 
ATOM     41 BR21 892 d   1      53.255  29.530  27.626  0.00  0.00    -0.048 Br
ATOM     42  C13 892 d   1      50.073  30.809  25.117  0.00  0.00     0.046 A 
ATOM     43 BR22 892 d   1      48.231  31.085  25.352  0.00  0.00    -0.048 Br
ATOM     44  C12 892 d   1      50.728  31.009  23.905  0.00  0.00    -0.050 A 
ATOM     45  H3  892 d   1      50.167  31.348  23.042  0.00  0.00     0.087 H 
BRANCH  40  46
ATOM     46  O20 892 d   1      50.203  30.147  27.477  0.00  0.00    -0.358 OA
ATOM     47  H1  892 d   1      49.530  29.485  27.370  0.00  0.00     0.217 HD
ENDBRANCH  40  46
ENDBRANCH  34  36
ENDBRANCH   1  34
BRANCH   2  48
ATOM     48  C17 892 d   1      53.799  28.224  23.427  0.00  0.00    -0.023 C 
ATOM     49  H4  892 d   1      53.352  27.380  22.881  0.00  0.00     0.042 H 
ATOM     50  H5  892 d   1      53.023  28.728  24.021  0.00  0.00     0.042 H 
BRANCH  48  51
ATOM     51  C18 892 d   1      54.893  27.714  24.346  0.00  0.00    -0.071 C 
ATOM     52  H6  892 d   1      54.465  27.001  25.066  0.00  0.00     0.028 H 
ATOM     53  H7  892 d   1      55.339  28.560  24.890  0.00  0.00     0.028 H 
ATOM     54  H8  892 d   1      55.669  27.211  23.749  0.00  0.00     0.028 H 
ENDBRANCH  48  51
ENDBRANCH   2  48
TORSDOF 10
