REMARK  4 active torsions:
REMARK  status: ('A' for Active; 'I' for Inactive)
REMARK    1  A    between atoms: C4_5  and  C7_8 
REMARK    2  A    between atoms: C7_8  and  C8_9 
REMARK    3  A    between atoms: C7_8  and  N1_12 
REMARK    4  A    between atoms: C17_25  and  C18_26 
ROOT
ATOM      1  N1  DIZ d   1      43.871  13.399  29.794  0.00  0.00    -0.311 N 
ATOM      2  C9  DIZ d   1      44.037  12.771  31.037  0.00  0.00     0.258 C 
ATOM      3  O3  DIZ d   1      44.998  13.033  31.782  0.00  0.00    -0.267 OA
ATOM      4  C10 DIZ d   1      43.086  11.753  31.524  0.00  0.00     0.060 A 
ATOM      5  C11 DIZ d   1      43.671  10.672  32.209  0.00  0.00    -0.050 A 
ATOM      6  C12 DIZ d   1      42.884   9.636  32.703  0.00  0.00     0.007 A 
ATOM      7  I1  DIZ d   1      43.831   8.120  33.679  0.00  0.00    -0.045 I 
ATOM      8  C13 DIZ d   1      41.486   9.633  32.527  0.00  0.00    -0.065 A 
ATOM      9  C14 DIZ d   1      40.878  10.720  31.834  0.00  0.00    -0.055 A 
ATOM     10  C15 DIZ d   1      41.675  11.792  31.325  0.00  0.00     0.050 A 
ATOM     11  N2  DIZ d   1      40.986  12.802  30.650  0.00  0.00    -0.324 N 
ATOM     12  C16 DIZ d   1      41.375  13.473  29.512  0.00  0.00     0.249 C 
ATOM     13  O4  DIZ d   1      40.624  14.335  29.051  0.00  0.00    -0.270 OA
ATOM     14  C17 DIZ d   1      42.739  13.151  28.806  0.00  0.00     0.119 C 
ATOM     15  H6  DIZ d   1      44.745  10.646  32.353  0.00  0.00     0.087 H 
ATOM     16  H7  DIZ d   1      40.883   8.818  32.912  0.00  0.00     0.085 H 
ATOM     17  H8  DIZ d   1      39.803  10.734  31.692  0.00  0.00     0.087 H 
ATOM     18  H9  DIZ d   1      40.105  13.070  31.040  0.00  0.00     0.169 HD
ATOM     19  H10 DIZ d   1      42.868  13.916  28.026  0.00  0.00     0.095 H 
ENDROOT
BRANCH   1  20
ATOM     20  C7  DIZ d   1      44.960  14.431  29.387  0.00  0.00     0.125 C 
ATOM     21  H5  DIZ d   1      45.787  14.338  30.106  0.00  0.00     0.098 H 
BRANCH  20  22
ATOM     22  C4  DIZ d   1      45.507  14.004  28.010  0.00  0.00    -0.025 A 
ATOM     23  C3  DIZ d   1      44.995  14.553  26.771  0.00  0.00    -0.073 A 
ATOM     24  C2  DIZ d   1      45.473  14.089  25.525  0.00  0.00    -0.061 A 
ATOM     25  H2  DIZ d   1      44.237  15.328  26.800  0.00  0.00     0.084 H 
ATOM     26  C1  DIZ d   1      46.459  13.078  25.479  0.00  0.00     0.034 A 
ATOM     27  H1  DIZ d   1      45.083  14.508  24.605  0.00  0.00     0.086 H 
ATOM     28 CL1  DIZ d   1      46.990  12.507  23.963  0.00  0.00    -0.084 Cl
ATOM     29  C6  DIZ d   1      46.993  12.532  26.669  0.00  0.00    -0.061 A 
ATOM     30  C5  DIZ d   1      46.522  12.992  27.934  0.00  0.00    -0.073 A 
ATOM     31  H4  DIZ d   1      47.758  11.766  26.620  0.00  0.00     0.086 H 
ATOM     32  H3  DIZ d   1      46.934  12.574  28.846  0.00  0.00     0.084 H 
ENDBRANCH  20  22
BRANCH  20  33
ATOM     33  C8  DIZ d   1      44.482  15.900  29.479  0.00  0.00     0.201 C 
ATOM     34  O1  DIZ d   1      45.128  16.883  29.170  0.00  0.00    -0.646 OA
ATOM     35  O2  DIZ d   1      43.224  16.042  29.950  0.00  0.00    -0.646 OA
ENDBRANCH  20  33
ENDBRANCH   1  20
BRANCH  14  36
ATOM     36  C18 DIZ d   1      42.714  11.792  28.013  0.00  0.00    -0.026 A 
ATOM     37  C19 DIZ d   1      43.911  11.091  27.724  0.00  0.00    -0.073 A 
ATOM     38  C20 DIZ d   1      43.944   9.900  26.994  0.00  0.00    -0.061 A 
ATOM     39  H11 DIZ d   1      44.847  11.499  28.087  0.00  0.00     0.084 H 
ATOM     40  C21 DIZ d   1      42.766   9.364  26.518  0.00  0.00     0.034 A 
ATOM     41  H12 DIZ d   1      44.888   9.402  26.803  0.00  0.00     0.086 H 
ATOM     42 CL2  DIZ d   1      42.851   7.955  25.617  0.00  0.00    -0.084 Cl
ATOM     43  C22 DIZ d   1      41.529   9.989  26.772  0.00  0.00    -0.061 A 
ATOM     44  C23 DIZ d   1      41.502  11.204  27.521  0.00  0.00    -0.073 A 
ATOM     45  H13 DIZ d   1      40.608   9.552  26.403  0.00  0.00     0.086 H 
ATOM     46  H14 DIZ d   1      40.553  11.688  27.721  0.00  0.00     0.084 H 
ENDBRANCH  14  36
TORSDOF 4
