REMARK  11 active torsions:
REMARK  status: ('A' for Active; 'I' for Inactive)
REMARK    1  A    between atoms: S33_2  and  N34_4 
REMARK    2  A    between atoms: S33_2  and  C30_10 
REMARK    3  A    between atoms: N34_4  and  C37_5 
REMARK    4  A    between atoms: C27_15  and  N16_16 
REMARK    5  A    between atoms: N16_16  and  S15_17 
REMARK    6  A    between atoms: S15_17  and  C2_20 
REMARK    7  A    between atoms: C9_27  and  C10_31 
REMARK    8  A    between atoms: C8_28  and  C13_29 
REMARK    9  A    between atoms: C13_29  and  C14_30 
REMARK   10  A    between atoms: C10_31  and  C11_33 
REMARK   11  A    between atoms: C21_37  and  O25_38 
ROOT
ATOM      1  C2  FRJ d   1      57.285  31.141  19.512  0.00  0.00     0.082 A 
ATOM      2  C1  FRJ d   1      56.252  32.096  19.632  0.00  0.00    -0.059 A 
ATOM      3  C3  FRJ d   1      57.315  29.990  20.293  0.00  0.00    -0.027 A 
ATOM      4  C6  FRJ d   1      56.284  29.826  21.190  0.00  0.00     0.088 A 
ATOM      5  O7  FRJ d   1      56.086  28.798  22.049  0.00  0.00    -0.313 OA
ATOM      6  C5  FRJ d   1      55.207  30.810  21.324  0.00  0.00     0.015 A 
ATOM      7  C4  FRJ d   1      55.193  31.954  20.544  0.00  0.00    -0.068 A 
ATOM      8  C9  FRJ d   1      54.358  30.333  22.457  0.00  0.00     0.058 A 
ATOM      9  C8  FRJ d   1      54.868  29.116  22.781  0.00  0.00     0.068 A 
ATOM     10  H9  FRJ d   1      56.277  32.973  18.995  0.00  0.00     0.085 H 
ATOM     11  H10 FRJ d   1      58.110  29.259  20.200  0.00  0.00     0.090 H 
ATOM     12  H11 FRJ d   1      54.409  32.698  20.632  0.00  0.00     0.085 H 
ENDROOT
BRANCH   1  13
ATOM     13  S15 FRJ d   1      58.575  31.319  18.395  0.00  0.00     0.263 S 
ATOM     14  O17 FRJ d   1      58.417  30.338  17.303  0.00  0.00    -0.200 OA
ATOM     15  O18 FRJ d   1      58.593  32.689  17.838  0.00  0.00    -0.200 OA
BRANCH  13  16
ATOM     16  N16 FRJ d   1      60.052  30.939  19.187  0.00  0.00    -0.281 N 
ATOM     17  H8  FRJ d   1      60.620  30.211  18.803  0.00  0.00     0.179 HD
BRANCH  16  18
ATOM     18  C27 FRJ d   1      60.489  31.573  20.305  0.00  0.00     0.042 A 
ATOM     19  C32 FRJ d   1      60.084  32.875  20.614  0.00  0.00    -0.055 A 
ATOM     20  C31 FRJ d   1      60.558  33.494  21.769  0.00  0.00    -0.058 A 
ATOM     21  H5  FRJ d   1      59.402  33.402  19.956  0.00  0.00     0.087 H 
ATOM     22  C30 FRJ d   1      61.441  32.815  22.618  0.00  0.00     0.080 A 
ATOM     23  H4  FRJ d   1      60.243  34.503  22.011  0.00  0.00     0.086 H 
ATOM     24  C29 FRJ d   1      61.853  31.518  22.301  0.00  0.00    -0.058 A 
ATOM     25  C28 FRJ d   1      61.377  30.900  21.146  0.00  0.00    -0.055 A 
ATOM     26  H6  FRJ d   1      62.542  30.993  22.953  0.00  0.00     0.086 H 
ATOM     27  H7  FRJ d   1      61.697  29.894  20.900  0.00  0.00     0.087 H 
BRANCH  22  28
ATOM     28  S33 FRJ d   1      62.038  33.591  24.042  0.00  0.00     0.264 S 
ATOM     29  O36 FRJ d   1      63.257  34.337  23.660  0.00  0.00    -0.200 OA
ATOM     30  O35 FRJ d   1      62.391  32.604  25.087  0.00  0.00    -0.200 OA
BRANCH  28  31
ATOM     31  N34 FRJ d   1      60.852  34.675  24.658  0.00  0.00    -0.258 N 
ATOM     32  H1  FRJ d   1      60.780  35.608  24.305  0.00  0.00     0.181 HD
BRANCH  31  33
ATOM     33  C37 FRJ d   1      59.969  34.211  25.689  0.00  0.00     0.179 A 
ATOM     34  N38 FRJ d   1      60.022  32.975  26.190  0.00  0.00    -0.236 NA
ATOM     35  C39 FRJ d   1      59.061  32.834  27.142  0.00  0.00     0.011 A 
ATOM     36  C40 FRJ d   1      58.301  33.979  27.329  0.00  0.00    -0.025 A 
ATOM     37  H2  FRJ d   1      58.904  31.913  27.702  0.00  0.00     0.115 H 
ATOM     38  S41 FRJ d   1      58.805  35.231  26.301  0.00  0.00    -0.062 SA
ATOM     39  H3  FRJ d   1      57.485  34.064  28.045  0.00  0.00     0.097 H 
ENDBRANCH  31  33
ENDBRANCH  28  31
ENDBRANCH  22  28
ENDBRANCH  16  18
ENDBRANCH  13  16
ENDBRANCH   1  13
BRANCH   8  40
ATOM     40  C10 FRJ d   1      53.124  30.669  22.765  0.00  0.00     0.195 C 
ATOM     41  O12 FRJ d   1      52.458  30.986  21.792  0.00  0.00    -0.287 OA
BRANCH  40  42
ATOM     42  C11 FRJ d   1      52.267  30.468  23.952  0.00  0.00     0.018 A 
ATOM     43  C19 FRJ d   1      52.993  30.074  25.067  0.00  0.00    -0.050 A 
ATOM     44  C20 FRJ d   1      52.429  29.897  26.306  0.00  0.00     0.046 A 
ATOM     45  H17 FRJ d   1      54.057  29.898  24.954  0.00  0.00     0.087 H 
ATOM     46 BR26 FRJ d   1      53.478  29.324  27.742  0.00  0.00    -0.048 Br
ATOM     47  C21 FRJ d   1      51.005  30.178  26.484  0.00  0.00     0.100 A 
ATOM     48  C22 FRJ d   1      50.275  30.631  25.290  0.00  0.00     0.046 A 
ATOM     49  C23 FRJ d   1      50.909  30.788  24.056  0.00  0.00    -0.050 A 
ATOM     50 BR24 FRJ d   1      48.461  30.966  25.552  0.00  0.00    -0.048 Br
ATOM     51  H19 FRJ d   1      50.359  31.151  23.195  0.00  0.00     0.087 H 
BRANCH  47  52
ATOM     52  O25 FRJ d   1      50.447  30.043  27.592  0.00  0.00    -0.358 OA
ATOM     53  H18 FRJ d   1      49.528  30.270  27.512  0.00  0.00     0.217 HD
ENDBRANCH  47  52
ENDBRANCH  40  42
ENDBRANCH   8  40
BRANCH   9  54
ATOM     54  C13 FRJ d   1      54.341  28.164  23.837  0.00  0.00    -0.023 C 
ATOM     55  H12 FRJ d   1      53.403  27.715  23.479  0.00  0.00     0.042 H 
ATOM     56  H13 FRJ d   1      54.148  28.727  24.762  0.00  0.00     0.042 H 
BRANCH  54  57
ATOM     57  C14 FRJ d   1      55.344  27.052  24.131  0.00  0.00    -0.071 C 
ATOM     58  H14 FRJ d   1      54.932  26.381  24.899  0.00  0.00     0.028 H 
ATOM     59  H15 FRJ d   1      56.284  27.493  24.495  0.00  0.00     0.028 H 
ATOM     60  H16 FRJ d   1      55.539  26.481  23.211  0.00  0.00     0.028 H 
ENDBRANCH  54  57
ENDBRANCH   9  54
TORSDOF 11
