REMARK  5 active torsions:
REMARK  status: ('A' for Active; 'I' for Inactive)
REMARK    1  A    between atoms: N_1  and  CA_2 
REMARK    2  A    between atoms: CA_2  and  C_3 
REMARK    3  A    between atoms: CA_2  and  CB_5 
REMARK    4  A    between atoms: CB_5  and  CG1_6 
REMARK    5  A    between atoms: CB_5  and  CG2_7 
ROOT
ATOM      1  CB  VAL d   1      -1.218  44.377  -9.709  0.00  0.00    -0.024 C 
ATOM      2  H5  VAL d   1      -1.625  44.854  -8.806  0.00  0.00     0.042 H 
ENDROOT
BRANCH   1   3
ATOM      3  CA  VAL d   1       0.334  44.736  -9.766  0.00  0.00     0.185 C 
ATOM      4  H4  VAL d   1       0.837  43.759  -9.825  0.00  0.00     0.101 H 
BRANCH   3   5
ATOM      5  N   VAL d   1       0.732  45.347  -8.519  0.00  0.00    -0.065 N 
ATOM      6  H1  VAL d   1       1.713  45.574  -8.554  0.00  0.00     0.275 HD
ATOM      7  H2  VAL d   1       0.563  44.704  -7.761  0.00  0.00     0.275 HD
ATOM      8  H3  VAL d   1       0.197  46.189  -8.371  0.00  0.00     0.275 HD
ENDBRANCH   3   5
BRANCH   3   9
ATOM      9  C   VAL d   1       0.967  45.581 -10.940  0.00  0.00     0.204 C 
ATOM     10  O   VAL d   1       0.094  46.125 -11.821  0.00  0.00    -0.646 OA
ATOM     11  OXT VAL d   1       2.167  45.796 -11.061  0.00  0.00    -0.646 OA
ENDBRANCH   3   9
ENDBRANCH   1   3
BRANCH   1  12
ATOM     12  CG1 VAL d   1      -2.069  44.863 -10.898  0.00  0.00    -0.071 C 
ATOM     13  H6  VAL d   1      -3.115  44.559 -10.748  0.00  0.00     0.028 H 
ATOM     14  H7  VAL d   1      -1.687  44.418 -11.829  0.00  0.00     0.028 H 
ATOM     15  H8  VAL d   1      -2.012  45.959 -10.966  0.00  0.00     0.028 H 
ENDBRANCH   1  12
BRANCH   1  16
ATOM     16  CG2 VAL d   1      -1.374  42.876  -9.569  0.00  0.00    -0.071 C 
ATOM     17  H9  VAL d   1      -0.769  42.522  -8.722  0.00  0.00     0.028 H 
ATOM     18  H10 VAL d   1      -1.035  42.384 -10.493  0.00  0.00     0.028 H 
ATOM     19  H11 VAL d   1      -2.432  42.632  -9.391  0.00  0.00     0.028 H 
ENDBRANCH   1  16
TORSDOF 5
