REMARK  1 active torsions:
REMARK  status: ('A' for Active; 'I' for Inactive)
REMARK    1  A    between atoms: C1_1  and  C2_2 
ROOT
ATOM      1  C1  NON d   1      70.935   0.514  71.725  0.00  0.00     0.279 C 
ATOM      2  O1  NON d   1      70.655   0.888  70.578  0.00  0.00    -0.639 OA
ATOM      3  O3  NON d   1      70.789  -0.667  72.170  0.00  0.00    -0.639 OA
ENDROOT
BRANCH   1   4
ATOM      4  C2  NON d   1      71.506   1.651  72.637  0.00  0.00     0.279 C 
ATOM      5  O2  NON d   1      71.825   1.375  73.839  0.00  0.00    -0.639 OA
ATOM      6  O4  NON d   1      71.600   2.776  72.080  0.00  0.00    -0.639 OA
ENDBRANCH   1   4
TORSDOF 1
