REMARK  9 active torsions:
REMARK  status: ('A' for Active; 'I' for Inactive)
REMARK    1  A    between atoms: N1_3  and  O1_1 
REMARK       I    between atoms: N1_3  and  C1_4 
REMARK    2  A    between atoms: C1_4  and  C2_5 
REMARK    3  A    between atoms: C2_5  and  C3_6 
REMARK    4  A    between atoms: C3_6  and  C4_7 
REMARK    5  A    between atoms: C4_7  and  C5_8 
REMARK    6  A    between atoms: C5_8  and  C6_9 
REMARK    7  A    between atoms: C6_9  and  C7_10 
REMARK    8  A    between atoms: C7_10  and  C8_11 
REMARK       I    between atoms: C8_11  and  N2_13 
REMARK    9  A    between atoms: N2_13  and  C9_14 
ROOT
ATOM      1  C6  SHH d   1      29.448  -5.172 -13.505  0.00  0.00    -0.057 C 
ATOM      2  H11 SHH d   1      28.905  -6.090 -13.773  0.00  0.00     0.033 H 
ATOM      3  H12 SHH d   1      30.529  -5.374 -13.499  0.00  0.00     0.033 H 
ENDROOT
BRANCH   1   4
ATOM      4  C5  SHH d   1      29.016  -4.724 -12.115  0.00  0.00    -0.065 C 
ATOM      5  H9  SHH d   1      28.512  -3.750 -12.201  0.00  0.00     0.033 H 
ATOM      6  H10 SHH d   1      28.313  -5.466 -11.710  0.00  0.00     0.033 H 
BRANCH   4   7
ATOM      7  C4  SHH d   1      30.186  -4.583 -11.148  0.00  0.00    -0.065 C 
ATOM      8  H7  SHH d   1      30.057  -5.284 -10.310  0.00  0.00     0.033 H 
ATOM      9  H8  SHH d   1      31.126  -4.809 -11.673  0.00  0.00     0.033 H 
BRANCH   7  10
ATOM     10  C3  SHH d   1      30.229  -3.156 -10.617  0.00  0.00    -0.057 C 
ATOM     11  H5  SHH d   1      31.012  -2.605 -11.158  0.00  0.00     0.033 H 
ATOM     12  H6  SHH d   1      29.253  -2.684 -10.804  0.00  0.00     0.033 H 
BRANCH  10  13
ATOM     13  C2  SHH d   1      30.526  -3.079  -9.124  0.00  0.00     0.011 C 
ATOM     14  H3  SHH d   1      30.495  -4.092  -8.696  0.00  0.00     0.047 H 
ATOM     15  H4  SHH d   1      31.527  -2.648  -8.976  0.00  0.00     0.047 H 
BRANCH  13  16
ATOM     16  C1  SHH d   1      29.499  -2.209  -8.423  0.00  0.00     0.240 C 
ATOM     17  O2  SHH d   1      28.907  -1.285  -8.966  0.00  0.00    -0.271 OA
ATOM     18  N1  SHH d   1      29.262  -2.508  -7.160  0.00  0.00    -0.237 N 
ATOM     19  H2  SHH d   1      30.001  -2.832  -6.569  0.00  0.00     0.197 HD
BRANCH  18  20
ATOM     20  O1  SHH d   1      28.117  -2.383  -6.717  0.00  0.00    -0.287 OA
ATOM     21  H1  SHH d   1      27.843  -1.477  -6.802  0.00  0.00     0.244 HD
ENDBRANCH  18  20
ENDBRANCH  13  16
ENDBRANCH  10  13
ENDBRANCH   7  10
ENDBRANCH   4   7
ENDBRANCH   1   4
BRANCH   1  22
ATOM     22  C7  SHH d   1      29.148  -4.095 -14.538  0.00  0.00     0.010 C 
ATOM     23  H13 SHH d   1      29.290  -3.102 -14.086  0.00  0.00     0.047 H 
ATOM     24  H14 SHH d   1      28.108  -4.196 -14.883  0.00  0.00     0.047 H 
BRANCH  22  25
ATOM     25  C8  SHH d   1      30.086  -4.253 -15.711  0.00  0.00     0.222 C 
ATOM     26  O3  SHH d   1      31.107  -4.924 -15.622  0.00  0.00    -0.273 OA
ATOM     27  N2  SHH d   1      29.683  -3.643 -16.831  0.00  0.00    -0.327 N 
ATOM     28  H15 SHH d   1      28.698  -3.628 -17.001  0.00  0.00     0.169 HD
BRANCH  27  29
ATOM     29  C9  SHH d   1      30.466  -3.043 -17.761  0.00  0.00     0.034 A 
ATOM     30  C10 SHH d   1      29.957  -1.904 -18.404  0.00  0.00    -0.057 A 
ATOM     31  C11 SHH d   1      30.712  -1.244 -19.373  0.00  0.00    -0.081 A 
ATOM     32  H16 SHH d   1      28.971  -1.535 -18.146  0.00  0.00     0.086 H 
ATOM     33  C12 SHH d   1      31.977  -1.731 -19.703  0.00  0.00    -0.083 A 
ATOM     34  H17 SHH d   1      30.320  -0.361 -19.865  0.00  0.00     0.083 H 
ATOM     35  C13 SHH d   1      32.483  -2.878 -19.069  0.00  0.00    -0.081 A 
ATOM     36  H18 SHH d   1      32.572  -1.222 -20.452  0.00  0.00     0.083 H 
ATOM     37  C14 SHH d   1      31.729  -3.542 -18.101  0.00  0.00    -0.057 A 
ATOM     38  H19 SHH d   1      33.466  -3.250 -19.334  0.00  0.00     0.083 H 
ATOM     39  H20 SHH d   1      32.116  -4.432 -17.619  0.00  0.00     0.086 H 
ENDBRANCH  27  29
ENDBRANCH  22  25
ENDBRANCH   1  22
TORSDOF 9
