REMARK WARNING: 32 MAX_TORS EXCEEDED!!!
REMARK  35 active torsions:
REMARK  status: ('A' for Active; 'I' for Inactive)
REMARK    1  A    between atoms: CA_2  and  N_1 
REMARK    2  A    between atoms: CA_2  and  CB_5 
REMARK    3  A    between atoms: C_3  and  CA_2 
REMARK       I    between atoms: N_7  and  C_3 
REMARK    4  A    between atoms: CB_5  and  OG_6 
REMARK    5  A    between atoms: CA_8  and  N_7 
REMARK    6  A    between atoms: CA_8  and  CB_11 
REMARK    7  A    between atoms: C_9  and  CA_8 
REMARK       I    between atoms: N_16  and  C_9 
REMARK    8  A    between atoms: CB_11  and  CG_12 
REMARK    9  A    between atoms: CG_12  and  CD_13 
REMARK   10  A    between atoms: CD_13  and  CE_14 
REMARK   11  A    between atoms: CE_14  and  NZ_15 
REMARK   12  A    between atoms: CA_17  and  N_16 
REMARK   13  A    between atoms: CA_17  and  CB_20 
REMARK   14  A    between atoms: C_18  and  CA_17 
REMARK       I    between atoms: N_27  and  C_18 
REMARK   15  A    between atoms: CB_20  and  CG_21 
REMARK   16  A    between atoms: CA_28  and  N_27 
REMARK   17  A    between atoms: CA_28  and  CB_31 
REMARK   18  A    between atoms: C_29  and  CA_28 
REMARK       I    between atoms: N_32  and  C_29 
REMARK   19  A    between atoms: CA_33  and  N_32 
REMARK   20  A    between atoms: CA_33  and  CB_36 
REMARK   21  A    between atoms: C_34  and  CA_33 
REMARK       I    between atoms: N_37  and  C_34 
REMARK   22  A    between atoms: CA_38  and  N_37 
REMARK   23  A    between atoms: CA_38  and  CB_41 
REMARK   24  A    between atoms: C_39  and  CA_38 
REMARK       I    between atoms: N_45  and  C_39 
REMARK   25  A    between atoms: CB_41  and  CG_42 
REMARK   26  A    between atoms: CG_42  and  CD1_43 
REMARK   27  A    between atoms: CG_42  and  CD2_44 
REMARK   28  A    between atoms: CA_46  and  N_45 
REMARK   29  A    between atoms: CA_46  and  CB_49 
REMARK   30  A    between atoms: C_47  and  CA_46 
REMARK       I    between atoms: C_47  and  N_59 
REMARK   31  A    between atoms: CB_49  and  CG_50 
REMARK   32  A    between atoms: N_59  and  CA_60 
REMARK   33  A    between atoms: CA_60  and  CB_63 
REMARK   34  A    between atoms: CA_60  and  C_61 
REMARK   35  A    between atoms: CB_63  and  CG_64 
ROOT
ATOM      1  C   NON d   1      11.270   9.480  54.602  0.00  0.00     0.240 C 
ATOM      2  O   NON d   1      10.899  10.276  55.470  0.00  0.00    -0.271 OA
ATOM      3  N   NON d   1      12.182   9.792  53.684  0.00  0.00    -0.346 N 
ATOM      4  H35 NON d   1      12.433   9.114  52.993  0.00  0.00     0.163 HD
ENDROOT
BRANCH   3   5
ATOM      5  CA  NON d   1      12.823  11.103  53.666  0.00  0.00     0.086 C 
ATOM      6  H36 NON d   1      13.286  11.264  54.651  0.00  0.00     0.086 H 
BRANCH   5   7
ATOM      7  CB  NON d   1      13.927  11.138  52.604  0.00  0.00    -0.049 C 
ATOM      8  H37 NON d   1      14.401  12.130  52.601  0.00  0.00     0.030 H 
ATOM      9  H38 NON d   1      13.491  10.937  51.614  0.00  0.00     0.030 H 
ATOM     10  H39 NON d   1      14.682  10.372  52.834  0.00  0.00     0.030 H 
ENDBRANCH   5   7
BRANCH   5  11
ATOM     11  C   NON d   1      11.832  12.236  53.425  0.00  0.00     0.240 C 
ATOM     12  O   NON d   1      12.123  13.402  53.707  0.00  0.00    -0.271 OA
ATOM     13  N   NON d   1      10.659  11.896  52.904  0.00  0.00    -0.346 N 
ATOM     14  H40 NON d   1      10.476  10.937  52.690  0.00  0.00     0.163 HD
BRANCH  13  15
ATOM     15  CA  NON d   1       9.635  12.897  52.639  0.00  0.00     0.089 C 
ATOM     16  H41 NON d   1      10.090  13.709  52.052  0.00  0.00     0.087 H 
BRANCH  15  17
ATOM     17  CB  NON d   1       8.492  12.284  51.821  0.00  0.00    -0.035 C 
ATOM     18  H42 NON d   1       7.684  13.027  51.755  0.00  0.00     0.037 H 
ATOM     19  H43 NON d   1       8.129  11.395  52.357  0.00  0.00     0.037 H 
BRANCH  17  20
ATOM     20  CG  NON d   1       8.862  11.860  50.396  0.00  0.00    -0.059 C 
ATOM     21  H44 NON d   1       9.696  11.144  50.440  0.00  0.00     0.038 H 
BRANCH  20  22
ATOM     22  CD1 NON d   1       7.672  11.189  49.727  0.00  0.00    -0.073 C 
ATOM     23  H45 NON d   1       7.947  10.888  48.705  0.00  0.00     0.028 H 
ATOM     24  H46 NON d   1       6.828  11.894  49.687  0.00  0.00     0.028 H 
ATOM     25  H47 NON d   1       7.380  10.300  50.305  0.00  0.00     0.028 H 
ENDBRANCH  20  22
BRANCH  20  26
ATOM     26  CD2 NON d   1       9.300  13.079  49.597  0.00  0.00    -0.073 C 
ATOM     27  H48 NON d   1      10.160  13.553  50.093  0.00  0.00     0.028 H 
ATOM     28  H49 NON d   1       8.469  13.797  49.539  0.00  0.00     0.028 H 
ATOM     29  H50 NON d   1       9.588  12.768  48.582  0.00  0.00     0.028 H 
ENDBRANCH  20  26
ENDBRANCH  17  20
ENDBRANCH  15  17
BRANCH  15  30
ATOM     30  C   NON d   1       9.088  13.490  53.934  0.00  0.00     0.241 C 
ATOM     31  O   NON d   1       8.346  14.471  53.907  0.00  0.00    -0.271 OA
ATOM     32  N   NON d   1       9.468  12.894  55.062  0.00  0.00    -0.346 N 
ATOM     33  H51 NON d   1      10.075  12.101  55.005  0.00  0.00     0.163 HD
BRANCH  32  34
ATOM     34  CA  NON d   1       9.034  13.351  56.380  0.00  0.00     0.093 C 
ATOM     35  H52 NON d   1       8.198  14.052  56.238  0.00  0.00     0.088 H 
BRANCH  34  36
ATOM     36  CB  NON d   1       8.539  12.161  57.211  0.00  0.00    -0.012 C 
ATOM     37  H53 NON d   1       8.689  12.394  58.276  0.00  0.00     0.044 H 
ATOM     38  H54 NON d   1       9.135  11.277  56.941  0.00  0.00     0.044 H 
BRANCH  36  39
ATOM     39  CG  NON d   1       7.085  11.837  56.996  0.00  0.00    -0.028 A 
ATOM     40  CD1 NON d   1       6.025  12.265  57.750  0.00  0.00    -0.015 A 
ATOM     41  NE1 NON d   1       4.842  11.799  57.218  0.00  0.00    -0.365 N 
ATOM     42  H55 NON d   1       6.105  12.885  58.642  0.00  0.00     0.112 H 
ATOM     43  CE2 NON d   1       5.123  11.054  56.102  0.00  0.00     0.042 A 
ATOM     44  H56 NON d   1       3.901  11.981  57.597  0.00  0.00     0.165 HD
ATOM     45  CD2 NON d   1       6.529  11.055  55.932  0.00  0.00    -0.002 A 
ATOM     46  CZ2 NON d   1       4.262  10.379  55.228  0.00  0.00    -0.056 A 
ATOM     47  CE3 NON d   1       7.080  10.357  54.848  0.00  0.00    -0.070 A 
ATOM     48  CZ3 NON d   1       6.222   9.687  53.977  0.00  0.00    -0.082 A 
ATOM     49  H57 NON d   1       8.152  10.339  54.690  0.00  0.00     0.084 H 
ATOM     50  CH2 NON d   1       4.826   9.704  54.176  0.00  0.00    -0.081 A 
ATOM     51  H59 NON d   1       6.634   9.145  53.134  0.00  0.00     0.083 H 
ATOM     52  H60 NON d   1       4.185   9.172  53.482  0.00  0.00     0.083 H 
ATOM     53  H58 NON d   1       3.188  10.390  55.378  0.00  0.00     0.086 H 
ENDBRANCH  36  39
ENDBRANCH  34  36
BRANCH  34  54
ATOM     54  C   NON d   1      10.141  14.081  57.147  0.00  0.00     0.241 C 
ATOM     55  O   NON d   1       9.875  14.745  58.152  0.00  0.00    -0.271 OA
ATOM     56  N   NON d   1      11.380  13.956  56.682  0.00  0.00    -0.344 N 
ATOM     57  H61 NON d   1      11.551  13.407  55.864  0.00  0.00     0.163 HD
BRANCH  56  58
ATOM     58  CA  NON d   1      12.492  14.615  57.358  0.00  0.00     0.105 C 
ATOM     59  H62 NON d   1      12.502  14.285  58.407  0.00  0.00     0.090 H 
BRANCH  58  60
ATOM     60  CB  NON d   1      13.821  14.228  56.710  0.00  0.00     0.044 C 
ATOM     61  H63 NON d   1      14.634  14.755  57.232  0.00  0.00     0.053 H 
ATOM     62  H64 NON d   1      13.802  14.537  55.655  0.00  0.00     0.053 H 
BRANCH  60  63
ATOM     63  CG  NON d   1      14.088  12.741  56.774  0.00  0.00     0.175 C 
ATOM     64  OD2 NON d   1      14.476  12.162  55.741  0.00  0.00    -0.648 OA
ATOM     65  OD1 NON d   1      13.920  12.147  57.858  0.00  0.00    -0.648 OA
ENDBRANCH  60  63
ENDBRANCH  58  60
BRANCH  58  66
ATOM     66  C   NON d   1      12.343  16.131  57.328  0.00  0.00     0.197 C 
ATOM     67  O   NON d   1      11.742  16.648  56.361  0.00  0.00    -0.646 OA
ATOM     68  O1  NON d   1      12.813  16.845  58.254  0.00  0.00    -0.646 OA
ENDBRANCH  58  66
ENDBRANCH  56  58
ENDBRANCH  34  54
ENDBRANCH  32  34
ENDBRANCH  15  30
ENDBRANCH  13  15
ENDBRANCH   5  11
ENDBRANCH   3   5
BRANCH   1  69
ATOM     69  CA  NON d   1      10.677   8.070  54.529  0.00  0.00     0.086 C 
ATOM     70  H31 NON d   1       9.649   8.108  54.919  0.00  0.00     0.086 H 
BRANCH  69  71
ATOM     71  N   NON d   1      10.630   7.579  53.158  0.00  0.00    -0.346 N 
ATOM     72  C   NON d   1       9.987   8.234  52.198  0.00  0.00     0.241 C 
ATOM     73  O   NON d   1       9.395   9.298  52.393  0.00  0.00    -0.271 OA
ATOM     74  H30 NON d   1      11.096   6.723  52.933  0.00  0.00     0.163 HD
BRANCH  72  75
ATOM     75  CA  NON d   1      10.037   7.596  50.807  0.00  0.00     0.093 C 
ATOM     76  H22 NON d   1       9.630   8.306  50.072  0.00  0.00     0.088 H 
BRANCH  75  77
ATOM     77  N   NON d   1      11.427   7.283  50.455  0.00  0.00    -0.346 N 
ATOM     78  C   NON d   1      12.322   8.242  50.235  0.00  0.00     0.241 C 
ATOM     79  O   NON d   1      12.044   9.439  50.306  0.00  0.00    -0.271 OA
ATOM     80  H21 NON d   1      11.708   6.326  50.379  0.00  0.00     0.163 HD
BRANCH  78  81
ATOM     81  CA  NON d   1      13.740   7.792  49.867  0.00  0.00     0.089 C 
ATOM     82  H9  NON d   1      14.432   8.620  50.079  0.00  0.00     0.087 H 
BRANCH  81  83
ATOM     83  N   NON d   1      14.160   6.630  50.641  0.00  0.00    -0.346 N 
ATOM     84  C   NON d   1      14.242   6.634  51.967  0.00  0.00     0.251 C 
ATOM     85  O   NON d   1      13.965   7.614  52.662  0.00  0.00    -0.271 OA
ATOM     86  H8  NON d   1      14.397   5.791  50.151  0.00  0.00     0.163 HD
BRANCH  84  87
ATOM     87  CA  NON d   1      14.705   5.326  52.598  0.00  0.00     0.195 C 
ATOM     88  H4  NON d   1      15.639   5.008  52.111  0.00  0.00     0.102 H 
BRANCH  87  89
ATOM     89  N   NON d   1      14.963   5.503  54.052  0.00  0.00    -0.064 N 
ATOM     90  H1  NON d   1      15.267   4.628  54.448  0.00  0.00     0.275 HD
ATOM     91  H2  NON d   1      14.116   5.802  54.510  0.00  0.00     0.275 HD
ATOM     92  H3  NON d   1      15.680   6.199  54.184  0.00  0.00     0.275 HD
ENDBRANCH  87  89
BRANCH  87  93
ATOM     93  CB  NON d   1      13.637   4.252  52.375  0.00  0.00     0.051 C 
ATOM     94  H5  NON d   1      13.931   3.337  52.909  0.00  0.00     0.077 H 
ATOM     95  H6  NON d   1      13.560   4.040  51.298  0.00  0.00     0.077 H 
BRANCH  93  96
ATOM     96  OG  NON d   1      12.373   4.680  52.853  0.00  0.00    -0.398 OA
ATOM     97  H7  NON d   1      11.731   3.996  52.702  0.00  0.00     0.209 HD
ENDBRANCH  93  96
ENDBRANCH  87  93
ENDBRANCH  84  87
ENDBRANCH  81  83
BRANCH  81  98
ATOM     98  CB  NON d   1      13.808   7.461  48.373  0.00  0.00    -0.038 C 
ATOM     99  H10 NON d   1      13.040   6.704  48.157  0.00  0.00     0.036 H 
ATOM    100  H11 NON d   1      14.804   7.043  48.162  0.00  0.00     0.036 H 
BRANCH  98 101
ATOM    101  CG  NON d   1      13.584   8.640  47.434  0.00  0.00    -0.061 C 
ATOM    102  H12 NON d   1      14.384   9.379  47.585  0.00  0.00     0.033 H 
ATOM    103  H13 NON d   1      12.611   9.102  47.660  0.00  0.00     0.033 H 
BRANCH 101 104
ATOM    104  CD  NON d   1      13.595   8.178  45.973  0.00  0.00    -0.043 C 
ATOM    105  H14 NON d   1      12.815   7.415  45.838  0.00  0.00     0.035 H 
ATOM    106  H15 NON d   1      14.579   7.740  45.748  0.00  0.00     0.035 H 
BRANCH 104 107
ATOM    107  CE  NON d   1      13.334   9.323  45.000  0.00  0.00     0.080 C 
ATOM    108  H16 NON d   1      14.195  10.007  45.016  0.00  0.00     0.075 H 
ATOM    109  H17 NON d   1      12.431   9.863  45.321  0.00  0.00     0.075 H 
BRANCH 107 110
ATOM    110  NZ  NON d   1      13.132   8.830  43.596  0.00  0.00    -0.079 N 
ATOM    111  H18 NON d   1      12.963   9.614  42.986  0.00  0.00     0.274 HD
ATOM    112  H19 NON d   1      12.340   8.207  43.569  0.00  0.00     0.274 HD
ATOM    113  H20 NON d   1      13.957   8.338  43.291  0.00  0.00     0.274 HD
ENDBRANCH 107 110
ENDBRANCH 104 107
ENDBRANCH 101 104
ENDBRANCH  98 101
ENDBRANCH  81  98
ENDBRANCH  78  81
ENDBRANCH  75  77
BRANCH  75 114
ATOM    114  CB  NON d   1       9.197   6.316  50.781  0.00  0.00    -0.014 C 
ATOM    115  H23 NON d   1       9.635   5.601  51.493  0.00  0.00     0.043 H 
ATOM    116  H24 NON d   1       9.240   5.895  49.766  0.00  0.00     0.043 H 
BRANCH 114 117
ATOM    117  CG  NON d   1       7.751   6.522  51.146  0.00  0.00    -0.056 A 
ATOM    118  CD1 NON d   1       6.874   7.133  50.258  0.00  0.00    -0.077 A 
ATOM    119  CE1 NON d   1       5.524   7.303  50.588  0.00  0.00    -0.082 A 
ATOM    120  H25 NON d   1       7.239   7.482  49.299  0.00  0.00     0.084 H 
ATOM    121  CZ  NON d   1       5.050   6.860  51.817  0.00  0.00    -0.083 A 
ATOM    122  H27 NON d   1       4.849   7.779  49.886  0.00  0.00     0.083 H 
ATOM    123  CE2 NON d   1       5.921   6.249  52.716  0.00  0.00    -0.082 A 
ATOM    124  H29 NON d   1       4.005   6.990  52.075  0.00  0.00     0.083 H 
ATOM    125  CD2 NON d   1       7.265   6.085  52.374  0.00  0.00    -0.077 A 
ATOM    126  H28 NON d   1       5.557   5.902  53.677  0.00  0.00     0.083 H 
ATOM    127  H26 NON d   1       7.940   5.610  53.076  0.00  0.00     0.084 H 
ENDBRANCH 114 117
ENDBRANCH  75 114
ENDBRANCH  72  75
ENDBRANCH  69  71
BRANCH  69 128
ATOM    128  CB  NON d   1      11.492   7.110  55.395  0.00  0.00    -0.049 C 
ATOM    129  H32 NON d   1      11.524   7.486  56.428  0.00  0.00     0.030 H 
ATOM    130  H33 NON d   1      12.516   7.038  54.999  0.00  0.00     0.030 H 
ATOM    131  H34 NON d   1      11.023   6.115  55.381  0.00  0.00     0.030 H 
ENDBRANCH  69 128
ENDBRANCH   1  69
TORSDOF 35
