REMARK WARNING: 32 MAX_TORS EXCEEDED!!!
REMARK  39 active torsions:
REMARK  status: ('A' for Active; 'I' for Inactive)
REMARK    1  A    between atoms: CA_2  and  N_1 
REMARK    2  A    between atoms: C_3  and  CA_2 
REMARK       I    between atoms: N_5  and  C_3 
REMARK    3  A    between atoms: CA_6  and  N_5 
REMARK    4  A    between atoms: CA_6  and  CB_9 
REMARK    5  A    between atoms: C_7  and  CA_6 
REMARK       I    between atoms: N_13  and  C_7 
REMARK    6  A    between atoms: CB_9  and  CG_10 
REMARK    7  A    between atoms: CG_10  and  CD1_11 
REMARK    8  A    between atoms: CG_10  and  CD2_12 
REMARK    9  A    between atoms: CA_14  and  N_13 
REMARK   10  A    between atoms: CA_14  and  CB_17 
REMARK   11  A    between atoms: C_15  and  CA_14 
REMARK       I    between atoms: N_21  and  C_15 
REMARK   12  A    between atoms: CB_17  and  CG_18 
REMARK   13  A    between atoms: CG_18  and  CD1_19 
REMARK   14  A    between atoms: CG_18  and  CD2_20 
REMARK   15  A    between atoms: CA_22  and  N_21 
REMARK   16  A    between atoms: CA_22  and  CB_25 
REMARK   17  A    between atoms: C_23  and  CA_22 
REMARK       I    between atoms: N_35  and  C_23 
REMARK   18  A    between atoms: CB_25  and  CG_26 
REMARK   19  A    between atoms: CA_36  and  N_35 
REMARK   20  A    between atoms: CA_36  and  CB_39 
REMARK   21  A    between atoms: C_37  and  CA_36 
REMARK       I    between atoms: N_43  and  C_37 
REMARK   22  A    between atoms: CB_39  and  CG_40 
REMARK   23  A    between atoms: CA_44  and  N_43 
REMARK   24  A    between atoms: CA_44  and  CB_47 
REMARK   25  A    between atoms: C_45  and  CA_44 
REMARK       I    between atoms: N_51  and  C_45 
REMARK   26  A    between atoms: CB_47  and  CG_48 
REMARK   27  A    between atoms: CG_48  and  CD1_49 
REMARK   28  A    between atoms: CG_48  and  CD2_50 
REMARK   29  A    between atoms: CA_52  and  N_51 
REMARK   30  A    between atoms: CA_52  and  CB_55 
REMARK   31  A    between atoms: C_53  and  CA_52 
REMARK       I    between atoms: C_53  and  N_59 
REMARK   32  A    between atoms: CB_55  and  CG_56 
REMARK   33  A    between atoms: CG_56  and  CD1_57 
REMARK   34  A    between atoms: CG_56  and  CD2_58 
REMARK   35  A    between atoms: N_59  and  CA_60 
REMARK   36  A    between atoms: CA_60  and  CB_63 
REMARK   37  A    between atoms: CA_60  and  C_61 
REMARK   38  A    between atoms: CB_63  and  CG2_65 
REMARK   39  A    between atoms: CB_63  and  OG1_64 
ROOT
ATOM      1  CA  NON d   1      10.393   8.748  55.468  0.00  0.00     0.093 C 
ATOM      2  H29 NON d   1       9.383   8.759  55.904  0.00  0.00     0.088 H 
ENDROOT
BRANCH   1   3
ATOM      3  N   NON d   1      10.305   8.266  54.096  0.00  0.00    -0.346 N 
ATOM      4  C   NON d   1       9.570   8.891  53.180  0.00  0.00     0.241 C 
ATOM      5  O   NON d   1       8.913   9.903  53.420  0.00  0.00    -0.271 OA
ATOM      6  H28 NON d   1      10.811   7.443  53.836  0.00  0.00     0.163 HD
BRANCH   4   7
ATOM      7  CA  NON d   1       9.585   8.279  51.785  0.00  0.00     0.089 C 
ATOM      8  H18 NON d   1       9.166   8.996  51.064  0.00  0.00     0.087 H 
BRANCH   7   9
ATOM      9  N   NON d   1      10.965   7.980  51.424  0.00  0.00    -0.346 N 
ATOM     10  C   NON d   1      11.845   8.948  51.182  0.00  0.00     0.241 C 
ATOM     11  O   NON d   1      11.558  10.145  51.231  0.00  0.00    -0.271 OA
ATOM     12  H17 NON d   1      11.257   7.026  51.357  0.00  0.00     0.163 HD
BRANCH  10  13
ATOM     13  CA  NON d   1      13.257   8.501  50.825  0.00  0.00     0.089 C 
ATOM     14  H7  NON d   1      13.974   9.242  51.208  0.00  0.00     0.087 H 
BRANCH  13  15
ATOM     15  N   NON d   1      13.548   7.209  51.435  0.00  0.00    -0.346 N 
ATOM     16  C   NON d   1      13.584   7.053  52.756  0.00  0.00     0.243 C 
ATOM     17  O   NON d   1      13.382   7.977  53.546  0.00  0.00    -0.272 OA
ATOM     18  H6  NON d   1      13.725   6.420  50.846  0.00  0.00     0.163 HD
BRANCH  16  19
ATOM     19  CA  NON d   1      13.894   5.656  53.262  0.00  0.00     0.152 C 
ATOM     20  H4  NON d   1      13.062   4.991  52.986  0.00  0.00     0.090 H 
ATOM     21  H5  NON d   1      14.818   5.306  52.779  0.00  0.00     0.090 H 
BRANCH  19  22
ATOM     22  N   NON d   1      14.079   5.597  54.741  0.00  0.00    -0.071 N 
ATOM     23  H1  NON d   1      14.281   4.649  55.017  0.00  0.00     0.274 HD
ATOM     24  H2  NON d   1      13.236   5.907  55.198  0.00  0.00     0.274 HD
ATOM     25  H3  NON d   1      14.845   6.195  55.008  0.00  0.00     0.274 HD
ENDBRANCH  19  22
ENDBRANCH  16  19
ENDBRANCH  13  15
BRANCH  13  26
ATOM     26  CB  NON d   1      13.395   8.419  49.302  0.00  0.00    -0.035 C 
ATOM     27  H8  NON d   1      13.090   9.393  48.892  0.00  0.00     0.037 H 
ATOM     28  H9  NON d   1      12.702   7.640  48.951  0.00  0.00     0.037 H 
BRANCH  26  29
ATOM     29  CG  NON d   1      14.776   8.094  48.727  0.00  0.00    -0.059 C 
ATOM     30  H10 NON d   1      15.103   7.115  49.109  0.00  0.00     0.038 H 
BRANCH  29  31
ATOM     31  CD1 NON d   1      14.684   8.027  47.210  0.00  0.00    -0.073 C 
ATOM     32  H11 NON d   1      15.675   7.794  46.793  0.00  0.00     0.028 H 
ATOM     33  H12 NON d   1      14.341   8.997  46.820  0.00  0.00     0.028 H 
ATOM     34  H13 NON d   1      13.970   7.242  46.920  0.00  0.00     0.028 H 
ENDBRANCH  29  31
BRANCH  29  35
ATOM     35  CD2 NON d   1      15.787   9.150  49.156  0.00  0.00    -0.073 C 
ATOM     36  H14 NON d   1      15.839   9.183  50.254  0.00  0.00     0.028 H 
ATOM     37  H15 NON d   1      15.475  10.133  48.774  0.00  0.00     0.028 H 
ATOM     38  H16 NON d   1      16.777   8.896  48.750  0.00  0.00     0.028 H 
ENDBRANCH  29  35
ENDBRANCH  26  29
ENDBRANCH  13  26
ENDBRANCH  10  13
ENDBRANCH   7   9
BRANCH   7  39
ATOM     39  CB  NON d   1       8.740   7.002  51.775  0.00  0.00    -0.035 C 
ATOM     40  H19 NON d   1       9.154   6.320  52.532  0.00  0.00     0.037 H 
ATOM     41  H20 NON d   1       8.834   6.545  50.779  0.00  0.00     0.037 H 
BRANCH  39  42
ATOM     42  CG  NON d   1       7.246   7.177  52.070  0.00  0.00    -0.059 C 
ATOM     43  H21 NON d   1       7.128   7.694  53.034  0.00  0.00     0.038 H 
BRANCH  42  44
ATOM     44  CD1 NON d   1       6.613   8.019  50.976  0.00  0.00    -0.073 C 
ATOM     45  H22 NON d   1       5.541   8.146  51.185  0.00  0.00     0.028 H 
ATOM     46  H23 NON d   1       6.740   7.516  50.006  0.00  0.00     0.028 H 
ATOM     47  H24 NON d   1       7.100   9.005  50.944  0.00  0.00     0.028 H 
ENDBRANCH  42  44
BRANCH  42  48
ATOM     48  CD2 NON d   1       6.565   5.820  52.154  0.00  0.00    -0.073 C 
ATOM     49  H25 NON d   1       7.034   5.223  52.950  0.00  0.00     0.028 H 
ATOM     50  H26 NON d   1       6.671   5.297  51.192  0.00  0.00     0.028 H 
ATOM     51  H27 NON d   1       5.498   5.959  52.381  0.00  0.00     0.028 H 
ENDBRANCH  42  48
ENDBRANCH  39  42
ENDBRANCH   7  39
ENDBRANCH   4   7
ENDBRANCH   1   3
BRANCH   1  52
ATOM     52  CB  NON d   1      11.277   7.812  56.298  0.00  0.00    -0.012 C 
ATOM     53  H30 NON d   1      12.225   7.663  55.760  0.00  0.00     0.044 H 
ATOM     54  H31 NON d   1      10.758   6.848  56.402  0.00  0.00     0.044 H 
BRANCH  52  55
ATOM     55  CG  NON d   1      11.590   8.329  57.669  0.00  0.00    -0.028 A 
ATOM     56  CD1 NON d   1      12.658   9.097  58.033  0.00  0.00    -0.015 A 
ATOM     57  NE1 NON d   1      12.592   9.399  59.371  0.00  0.00    -0.365 N 
ATOM     58  H32 NON d   1      13.449   9.423  57.359  0.00  0.00     0.112 H 
ATOM     59  CE2 NON d   1      11.464   8.826  59.901  0.00  0.00     0.042 A 
ATOM     60  H33 NON d   1      13.278   9.964  59.892  0.00  0.00     0.165 HD
ATOM     61  CD2 NON d   1      10.809   8.141  58.854  0.00  0.00    -0.002 A 
ATOM     62  CZ2 NON d   1      10.969   8.851  61.209  0.00  0.00    -0.056 A 
ATOM     63  CE3 NON d   1       9.614   7.462  59.134  0.00  0.00    -0.070 A 
ATOM     64  CZ3 NON d   1       9.120   7.486  60.436  0.00  0.00    -0.082 A 
ATOM     65  H34 NON d   1       9.085   6.929  58.352  0.00  0.00     0.084 H 
ATOM     66  CH2 NON d   1       9.799   8.178  61.456  0.00  0.00    -0.081 A 
ATOM     67  H36 NON d   1       8.199   6.964  60.667  0.00  0.00     0.083 H 
ATOM     68  H37 NON d   1       9.389   8.179  62.459  0.00  0.00     0.083 H 
ATOM     69  H35 NON d   1      11.490   9.382  61.998  0.00  0.00     0.086 H 
ENDBRANCH  52  55
ENDBRANCH   1  52
BRANCH   1  70
ATOM     70  C   NON d   1      10.954  10.165  55.498  0.00  0.00     0.241 C 
ATOM     71  O   NON d   1      10.467  11.018  56.240  0.00  0.00    -0.271 OA
ATOM     72  N   NON d   1      11.980  10.409  54.688  0.00  0.00    -0.345 N 
ATOM     73  H38 NON d   1      12.338   9.669  54.119  0.00  0.00     0.163 HD
BRANCH  72  74
ATOM     74  CA  NON d   1      12.596  11.728  54.609  0.00  0.00     0.098 C 
ATOM     75  H39 NON d   1      12.909  12.042  55.616  0.00  0.00     0.088 H 
BRANCH  74  76
ATOM     76  CB  NON d   1      13.821  11.686  53.693  0.00  0.00     0.043 C 
ATOM     77  H40 NON d   1      14.142  12.718  53.487  0.00  0.00     0.052 H 
ATOM     78  H41 NON d   1      13.539  11.194  52.750  0.00  0.00     0.052 H 
BRANCH  76  79
ATOM     79  CG  NON d   1      14.982  10.930  54.307  0.00  0.00     0.175 C 
ATOM     80  OD2 NON d   1      16.100  11.488  54.341  0.00  0.00    -0.648 OA
ATOM     81  OD1 NON d   1      14.782   9.779  54.750  0.00  0.00    -0.648 OA
ENDBRANCH  76  79
ENDBRANCH  74  76
BRANCH  74  82
ATOM     82  C   NON d   1      11.585  12.727  54.061  0.00  0.00     0.241 C 
ATOM     83  O   NON d   1      11.511  13.871  54.510  0.00  0.00    -0.271 OA
ATOM     84  N   NON d   1      10.811  12.276  53.081  0.00  0.00    -0.346 N 
ATOM     85  H42 NON d   1      10.930  11.334  52.768  0.00  0.00     0.163 HD
BRANCH  84  86
ATOM     86  CA  NON d   1       9.796  13.103  52.445  0.00  0.00     0.089 C 
ATOM     87  H43 NON d   1      10.260  14.022  52.057  0.00  0.00     0.087 H 
BRANCH  86  88
ATOM     88  CB  NON d   1       9.161  12.326  51.289  0.00  0.00    -0.035 C 
ATOM     89  H44 NON d   1       8.312  11.767  51.710  0.00  0.00     0.037 H 
ATOM     90  H45 NON d   1       9.921  11.619  50.925  0.00  0.00     0.037 H 
BRANCH  88  91
ATOM     91  CG  NON d   1       8.633  13.077  50.064  0.00  0.00    -0.059 C 
ATOM     92  H46 NON d   1       9.461  13.632  49.599  0.00  0.00     0.038 H 
BRANCH  91  93
ATOM     93  CD1 NON d   1       8.098  12.058  49.067  0.00  0.00    -0.073 C 
ATOM     94  H47 NON d   1       7.714  12.581  48.179  0.00  0.00     0.028 H 
ATOM     95  H48 NON d   1       7.286  11.481  49.533  0.00  0.00     0.028 H 
ATOM     96  H49 NON d   1       8.908  11.376  48.769  0.00  0.00     0.028 H 
ENDBRANCH  91  93
BRANCH  91  97
ATOM     97  CD2 NON d   1       7.549  14.068  50.461  0.00  0.00    -0.073 C 
ATOM     98  H50 NON d   1       7.960  14.792  51.180  0.00  0.00     0.028 H 
ATOM     99  H51 NON d   1       6.710  13.528  50.923  0.00  0.00     0.028 H 
ATOM    100  H52 NON d   1       7.194  14.601  49.567  0.00  0.00     0.028 H 
ENDBRANCH  91  97
ENDBRANCH  88  91
ENDBRANCH  86  88
BRANCH  86 101
ATOM    101  C   NON d   1       8.731  13.468  53.475  0.00  0.00     0.241 C 
ATOM    102  O   NON d   1       8.306  14.620  53.571  0.00  0.00    -0.271 OA
ATOM    103  N   NON d   1       8.314  12.472  54.250  0.00  0.00    -0.346 N 
ATOM    104  H53 NON d   1       8.715  11.565  54.123  0.00  0.00     0.163 HD
BRANCH 103 105
ATOM    105  CA  NON d   1       7.295  12.649  55.279  0.00  0.00     0.089 C 
ATOM    106  H54 NON d   1       6.410  13.103  54.809  0.00  0.00     0.087 H 
BRANCH 105 107
ATOM    107  CB  NON d   1       6.900  11.282  55.851  0.00  0.00    -0.035 C 
ATOM    108  H55 NON d   1       7.814  10.818  56.250  0.00  0.00     0.037 H 
ATOM    109  H56 NON d   1       6.516  10.677  55.017  0.00  0.00     0.037 H 
BRANCH 107 110
ATOM    110  CG  NON d   1       5.848  11.245  56.963  0.00  0.00    -0.059 C 
ATOM    111  H57 NON d   1       6.226  11.798  57.835  0.00  0.00     0.038 H 
BRANCH 110 112
ATOM    112  CD1 NON d   1       4.562  11.906  56.480  0.00  0.00    -0.073 C 
ATOM    113  H58 NON d   1       3.811  11.876  57.283  0.00  0.00     0.028 H 
ATOM    114  H59 NON d   1       4.180  11.367  55.600  0.00  0.00     0.028 H 
ATOM    115  H60 NON d   1       4.767  12.952  56.208  0.00  0.00     0.028 H 
ENDBRANCH 110 112
BRANCH 110 116
ATOM    116  CD2 NON d   1       5.593   9.800  57.367  0.00  0.00    -0.073 C 
ATOM    117  H61 NON d   1       6.533   9.344  57.711  0.00  0.00     0.028 H 
ATOM    118  H62 NON d   1       5.209   9.240  56.502  0.00  0.00     0.028 H 
ATOM    119  H63 NON d   1       4.853   9.772  58.180  0.00  0.00     0.028 H 
ENDBRANCH 110 116
ENDBRANCH 107 110
ENDBRANCH 105 107
BRANCH 105 120
ATOM    120  C   NON d   1       7.754  13.567  56.409  0.00  0.00     0.241 C 
ATOM    121  O   NON d   1       6.976  14.378  56.917  0.00  0.00    -0.271 OA
ATOM    122  N   NON d   1       9.018  13.440  56.799  0.00  0.00    -0.343 N 
ATOM    123  H64 NON d   1       9.605  12.769  56.346  0.00  0.00     0.163 HD
BRANCH 122 124
ATOM    124  CA  NON d   1       9.566  14.260  57.874  0.00  0.00     0.120 C 
ATOM    125  H65 NON d   1       8.743  14.539  58.549  0.00  0.00     0.093 H 
BRANCH 124 126
ATOM    126  CB  NON d   1      10.626  13.478  58.676  0.00  0.00     0.061 C 
ATOM    127  H66 NON d   1      11.023  14.123  59.474  0.00  0.00     0.086 H 
BRANCH 126 128
ATOM    128  CG2 NON d   1      10.005  12.235  59.298  0.00  0.00    -0.050 C 
ATOM    129  H68 NON d   1      10.771  11.688  59.866  0.00  0.00     0.031 H 
ATOM    130  H69 NON d   1       9.606  11.588  58.503  0.00  0.00     0.031 H 
ATOM    131  H70 NON d   1       9.189  12.532  59.974  0.00  0.00     0.031 H 
ENDBRANCH 126 128
BRANCH 126 132
ATOM    132  OG1 NON d   1      11.696  13.085  57.805  0.00  0.00    -0.393 OA
ATOM    133  H67 NON d   1      11.355  12.522  57.120  0.00  0.00     0.210 HD
ENDBRANCH 126 132
ENDBRANCH 124 126
BRANCH 124 134
ATOM    134  C   NON d   1      10.209  15.534  57.332  0.00  0.00     0.199 C 
ATOM    135  O   NON d   1      10.948  16.187  58.094  0.00  0.00    -0.646 OA
ATOM    136  O1  NON d   1       9.999  15.914  56.149  0.00  0.00    -0.646 OA
ENDBRANCH 124 134
ENDBRANCH 122 124
ENDBRANCH 105 120
ENDBRANCH 103 105
ENDBRANCH  86 101
ENDBRANCH  84  86
ENDBRANCH  74  82
ENDBRANCH  72  74
ENDBRANCH   1  70
TORSDOF 39
