REMARK WARNING: 32 MAX_TORS EXCEEDED!!!
REMARK  42 active torsions:
REMARK  status: ('A' for Active; 'I' for Inactive)
REMARK    1  A    between atoms: N_1  and  CA_2 
REMARK    2  A    between atoms: CA_2  and  C_3 
REMARK    3  A    between atoms: CA_2  and  CB_5 
REMARK       I    between atoms: C_3  and  N_7 
REMARK    4  A    between atoms: CB_5  and  OG_6 
REMARK    5  A    between atoms: N_7  and  CA_8 
REMARK    6  A    between atoms: CA_8  and  C_9 
REMARK    7  A    between atoms: CA_8  and  CB_11 
REMARK       I    between atoms: C_9  and  N_13 
REMARK    8  A    between atoms: CB_11  and  OG_12 
REMARK    9  A    between atoms: N_13  and  CA_14 
REMARK   10  A    between atoms: CA_14  and  C_15 
REMARK   11  A    between atoms: CA_14  and  CB_17 
REMARK       I    between atoms: C_15  and  N_24 
REMARK   12  A    between atoms: CB_17  and  CG_18 
REMARK   13  A    between atoms: CG_18  and  CD_19 
REMARK   14  A    between atoms: CD_19  and  NE_20 
REMARK       I    between atoms: NE_20  and  CZ_21 
REMARK       I    between atoms: CZ_21  and  NH1_22 
REMARK   15  A    between atoms: N_24  and  CA_25 
REMARK   16  A    between atoms: CA_25  and  C_26 
REMARK   17  A    between atoms: CA_25  and  CB_28 
REMARK       I    between atoms: C_26  and  N_35 
REMARK   18  A    between atoms: CB_28  and  CG_29 
REMARK   19  A    between atoms: N_35  and  CA_36 
REMARK   20  A    between atoms: CA_36  and  C_37 
REMARK   21  A    between atoms: CA_36  and  CB_39 
REMARK       I    between atoms: C_37  and  N_44 
REMARK   22  A    between atoms: CB_39  and  CG_40 
REMARK   23  A    between atoms: CG_40  and  CD_41 
REMARK   24  A    between atoms: N_44  and  CA_45 
REMARK   25  A    between atoms: CA_45  and  C_46 
REMARK   26  A    between atoms: CA_45  and  CB_48 
REMARK       I    between atoms: C_46  and  N_50 
REMARK   27  A    between atoms: CB_48  and  OG_49 
REMARK   28  A    between atoms: N_50  and  CA_51 
REMARK   29  A    between atoms: CA_51  and  C_52 
REMARK   30  A    between atoms: CA_51  and  CB_54 
REMARK       I    between atoms: C_52  and  N_58 
REMARK   31  A    between atoms: CB_54  and  CG_55 
REMARK   32  A    between atoms: CG_55  and  CD1_56 
REMARK   33  A    between atoms: CG_55  and  CD2_57 
REMARK   34  A    between atoms: N_58  and  CA_59 
REMARK   35  A    between atoms: CA_59  and  C_60 
REMARK   36  A    between atoms: CA_59  and  CB_62 
REMARK       I    between atoms: C_60  and  N_69 
REMARK   37  A    between atoms: CB_62  and  CG_63 
REMARK   38  A    between atoms: N_69  and  CA_70 
REMARK   39  A    between atoms: CA_70  and  C_71 
REMARK   40  A    between atoms: CA_70  and  CB_73 
REMARK       I    between atoms: C_71  and  N_74 
REMARK   41  A    between atoms: N_74  and  CA_75 
REMARK   42  A    between atoms: CA_75  and  C_76 
ROOT
ATOM      1  CA  SER d   1     -10.699  25.414  55.016  0.00  0.00     0.090 C 
ATOM      2  H36 SER d   1      -9.698  25.166  55.399  0.00  0.00     0.087 H 
ENDROOT
BRANCH   1   3
ATOM      3  N   SER d   1     -10.541  26.182  53.786  0.00  0.00    -0.346 N 
ATOM      4  C   SER d   1      -9.917  25.672  52.729  0.00  0.00     0.241 C 
ATOM      5  O   SER d   1      -9.428  24.542  52.725  0.00  0.00    -0.271 OA
ATOM      6  H35 SER d   1     -10.909  27.110  53.737  0.00  0.00     0.163 HD
BRANCH   4   7
ATOM      7  CA  SER d   1      -9.814  26.573  51.501  0.00  0.00     0.093 C 
ATOM      8  H27 SER d   1      -9.604  25.953  50.617  0.00  0.00     0.088 H 
BRANCH   7   9
ATOM      9  N   SER d   1     -11.066  27.279  51.286  0.00  0.00    -0.346 N 
ATOM     10  C   SER d   1     -12.160  26.606  50.955  0.00  0.00     0.241 C 
ATOM     11  O   SER d   1     -12.164  25.382  50.800  0.00  0.00    -0.271 OA
ATOM     12  H26 SER d   1     -11.103  28.273  51.388  0.00  0.00     0.163 HD
BRANCH  10  13
ATOM     13  CA  SER d   1     -13.436  27.421  50.768  0.00  0.00     0.089 C 
ATOM     14  H14 SER d   1     -14.285  26.722  50.755  0.00  0.00     0.087 H 
BRANCH  13  15
ATOM     15  N   SER d   1     -13.653  28.369  51.862  0.00  0.00    -0.346 N 
ATOM     16  C   SER d   1     -13.821  27.931  53.108  0.00  0.00     0.243 C 
ATOM     17  O   SER d   1     -13.803  26.736  53.390  0.00  0.00    -0.271 OA
ATOM     18  H13 SER d   1     -13.675  29.351  51.672  0.00  0.00     0.163 HD
BRANCH  16  19
ATOM     19  CA  SER d   1     -14.055  28.975  54.203  0.00  0.00     0.109 C 
ATOM     20  H9  SER d   1     -14.136  28.423  55.151  0.00  0.00     0.090 H 
BRANCH  19  21
ATOM     21  N   SER d   1     -12.995  29.961  54.387  0.00  0.00    -0.344 N 
ATOM     22  C   SER d   1     -11.708  29.631  54.370  0.00  0.00     0.251 C 
ATOM     23  O   SER d   1     -11.315  28.490  54.159  0.00  0.00    -0.271 OA
ATOM     24  H8  SER d   1     -13.246  30.918  54.531  0.00  0.00     0.163 HD
BRANCH  22  25
ATOM     25  CA  SER d   1     -10.711  30.758  54.611  0.00  0.00     0.195 C 
ATOM     26  H4  SER d   1     -10.821  31.111  55.647  0.00  0.00     0.102 H 
BRANCH  25  27
ATOM     27  N   SER d   1      -9.316  30.268  54.418  0.00  0.00    -0.064 N 
ATOM     28  H1  SER d   1      -8.669  31.024  54.581  0.00  0.00     0.275 HD
ATOM     29  H2  SER d   1      -9.206  29.929  53.475  0.00  0.00     0.275 HD
ATOM     30  H3  SER d   1      -9.130  29.520  55.068  0.00  0.00     0.275 HD
ENDBRANCH  25  27
BRANCH  25  31
ATOM     31  CB  SER d   1     -10.998  31.921  53.661  0.00  0.00     0.051 C 
ATOM     32  H5  SER d   1     -12.002  32.318  53.869  0.00  0.00     0.077 H 
ATOM     33  H6  SER d   1     -10.955  31.558  52.623  0.00  0.00     0.077 H 
BRANCH  31  34
ATOM     34  OG  SER d   1     -10.045  32.955  53.832  0.00  0.00    -0.398 OA
ATOM     35  H7  SER d   1      -9.176  32.617  53.650  0.00  0.00     0.209 HD
ENDBRANCH  31  34
ENDBRANCH  25  31
ENDBRANCH  22  25
ENDBRANCH  19  21
BRANCH  19  36
ATOM     36  CB  SER d   1     -15.390  29.680  53.957  0.00  0.00     0.044 C 
ATOM     37  H10 SER d   1     -15.383  30.127  52.952  0.00  0.00     0.077 H 
ATOM     38  H11 SER d   1     -15.525  30.471  54.709  0.00  0.00     0.077 H 
BRANCH  36  39
ATOM     39  OG  SER d   1     -16.464  28.759  54.050  0.00  0.00    -0.398 OA
ATOM     40  H12 SER d   1     -17.284  29.213  53.895  0.00  0.00     0.209 HD
ENDBRANCH  36  39
ENDBRANCH  19  36
ENDBRANCH  16  19
ENDBRANCH  13  15
BRANCH  13  41
ATOM     41  CB  SER d   1     -13.396  28.151  49.424  0.00  0.00    -0.036 C 
ATOM     42  H15 SER d   1     -13.107  27.431  48.644  0.00  0.00     0.036 H 
ATOM     43  H16 SER d   1     -12.643  28.951  49.483  0.00  0.00     0.036 H 
BRANCH  41  44
ATOM     44  CG  SER d   1     -14.730  28.771  49.040  0.00  0.00    -0.048 C 
ATOM     45  H17 SER d   1     -15.002  29.524  49.794  0.00  0.00     0.035 H 
ATOM     46  H18 SER d   1     -15.495  27.981  49.018  0.00  0.00     0.035 H 
BRANCH  44  47
ATOM     47  CD  SER d   1     -14.676  29.440  47.677  0.00  0.00     0.009 C 
ATOM     48  H19 SER d   1     -14.412  28.687  46.919  0.00  0.00     0.064 H 
ATOM     49  H20 SER d   1     -13.908  30.227  47.695  0.00  0.00     0.064 H 
BRANCH  47  50
ATOM     50  NE  SER d   1     -15.960  30.039  47.324  0.00  0.00    -0.227 N 
ATOM     51  CZ  SER d   1     -16.539  31.023  48.006  0.00  0.00     0.665 C 
ATOM     52  NH1 SER d   1     -15.947  31.526  49.083  0.00  0.00    -0.235 N 
ATOM     53  NH2 SER d   1     -17.711  31.502  47.615  0.00  0.00    -0.235 N 
ATOM     54  H22 SER d   1     -16.397  32.288  49.610  0.00  0.00     0.174 HD
ATOM     55  H23 SER d   1     -15.037  31.154  49.392  0.00  0.00     0.174 HD
ATOM     56  H24 SER d   1     -18.173  31.114  46.780  0.00  0.00     0.174 HD
ATOM     57  H25 SER d   1     -18.160  32.262  48.146  0.00  0.00     0.174 HD
ATOM     58  H21 SER d   1     -16.449  29.676  46.493  0.00  0.00     0.177 HD
ENDBRANCH  47  50
ENDBRANCH  44  47
ENDBRANCH  41  44
ENDBRANCH  13  41
ENDBRANCH  10  13
ENDBRANCH   7   9
BRANCH   7  59
ATOM     59  CB  SER d   1      -8.659  27.553  51.703  0.00  0.00    -0.014 C 
ATOM     60  H28 SER d   1      -8.899  28.206  52.555  0.00  0.00     0.043 H 
ATOM     61  H29 SER d   1      -8.552  28.161  50.793  0.00  0.00     0.043 H 
BRANCH  59  62
ATOM     62  CG  SER d   1      -7.355  26.873  51.977  0.00  0.00    -0.056 A 
ATOM     63  CD1 SER d   1      -6.633  26.291  50.943  0.00  0.00    -0.077 A 
ATOM     64  CE1 SER d   1      -5.466  25.584  51.202  0.00  0.00    -0.082 A 
ATOM     65  H30 SER d   1      -6.984  26.390  49.922  0.00  0.00     0.084 H 
ATOM     66  CZ  SER d   1      -5.012  25.454  52.511  0.00  0.00    -0.083 A 
ATOM     67  H32 SER d   1      -4.910  25.135  50.387  0.00  0.00     0.083 H 
ATOM     68  CE2 SER d   1      -5.723  26.035  53.553  0.00  0.00    -0.082 A 
ATOM     69  H34 SER d   1      -4.104  24.899  52.717  0.00  0.00     0.083 H 
ATOM     70  CD2 SER d   1      -6.888  26.742  53.279  0.00  0.00    -0.077 A 
ATOM     71  H33 SER d   1      -5.372  25.938  54.574  0.00  0.00     0.083 H 
ATOM     72  H31 SER d   1      -7.440  27.198  54.093  0.00  0.00     0.084 H 
ENDBRANCH  59  62
ENDBRANCH   7  59
ENDBRANCH   4   7
ENDBRANCH   1   3
BRANCH   1  73
ATOM     73  C   SER d   1     -11.454  24.115  54.762  0.00  0.00     0.241 C 
ATOM     74  O   SER d   1     -11.114  23.076  55.321  0.00  0.00    -0.271 OA
ATOM     75  N   SER d   1     -12.479  24.181  53.919  0.00  0.00    -0.344 N 
ATOM     76  H41 SER d   1     -12.713  25.058  53.500  0.00  0.00     0.163 HD
BRANCH  75  77
ATOM     77  CA  SER d   1     -13.270  23.000  53.593  0.00  0.00     0.109 C 
ATOM     78  H42 SER d   1     -13.620  22.536  54.527  0.00  0.00     0.090 H 
BRANCH  77  79
ATOM     79  C   SER d   1     -12.409  21.998  52.835  0.00  0.00     0.243 C 
ATOM     80  O   SER d   1     -12.507  20.790  53.055  0.00  0.00    -0.271 OA
ATOM     81  N   SER d   1     -11.571  22.505  51.937  0.00  0.00    -0.346 N 
ATOM     82  H46 SER d   1     -11.555  23.494  51.787  0.00  0.00     0.163 HD
BRANCH  81  83
ATOM     83  CA  SER d   1     -10.674  21.652  51.165  0.00  0.00     0.089 C 
ATOM     84  H47 SER d   1     -11.255  20.885  50.632  0.00  0.00     0.087 H 
BRANCH  83  85
ATOM     85  C   SER d   1      -9.711  20.989  52.144  0.00  0.00     0.241 C 
ATOM     86  O   SER d   1      -9.536  19.772  52.140  0.00  0.00    -0.271 OA
ATOM     87  N   SER d   1      -9.083  21.810  52.979  0.00  0.00    -0.346 N 
ATOM     88  H57 SER d   1      -9.275  22.790  52.928  0.00  0.00     0.163 HD
BRANCH  87  89
ATOM     89  CA  SER d   1      -8.124  21.331  53.967  0.00  0.00     0.093 C 
ATOM     90  H58 SER d   1      -7.263  20.899  53.436  0.00  0.00     0.088 H 
BRANCH  89  91
ATOM     91  C   SER d   1      -8.731  20.256  54.865  0.00  0.00     0.241 C 
ATOM     92  O   SER d   1      -8.074  19.273  55.202  0.00  0.00    -0.271 OA
ATOM     93  N   SER d   1      -9.987  20.449  55.250  0.00  0.00    -0.346 N 
ATOM     94  H66 SER d   1     -10.474  21.265  54.938  0.00  0.00     0.163 HD
BRANCH  93  95
ATOM     95  CA  SER d   1     -10.673  19.498  56.118  0.00  0.00     0.086 C 
ATOM     96  H67 SER d   1     -10.003  19.259  56.957  0.00  0.00     0.086 H 
BRANCH  95  97
ATOM     97  C   SER d   1     -11.010  18.194  55.397  0.00  0.00     0.240 C 
ATOM     98  O   SER d   1     -11.335  17.191  56.033  0.00  0.00    -0.271 OA
ATOM     99  N   SER d   1     -10.931  18.214  54.070  0.00  0.00    -0.349 N 
ATOM    100  H71 SER d   1     -10.666  19.058  53.603  0.00  0.00     0.163 HD
BRANCH  99 101
ATOM    101  CA  SER d   1     -11.226  17.024  53.291  0.00  0.00     0.075 C 
ATOM    102  H72 SER d   1     -11.255  16.159  53.970  0.00  0.00     0.080 H 
ATOM    103  H73 SER d   1     -10.425  16.882  52.551  0.00  0.00     0.080 H 
BRANCH 101 104
ATOM    104  C   SER d   1     -12.552  17.108  52.558  0.00  0.00     0.191 C 
ATOM    105  O   SER d   1     -13.294  18.089  52.777  0.00  0.00    -0.647 OA
ATOM    106  OXT SER d   1     -12.853  16.193  51.762  0.00  0.00    -0.647 OA
ENDBRANCH 101 104
ENDBRANCH  99 101
ENDBRANCH  95  97
BRANCH  95 107
ATOM    107  CB  SER d   1     -11.943  20.129  56.679  0.00  0.00    -0.049 C 
ATOM    108  H68 SER d   1     -12.454  19.406  57.332  0.00  0.00     0.030 H 
ATOM    109  H69 SER d   1     -12.610  20.410  55.850  0.00  0.00     0.030 H 
ATOM    110  H70 SER d   1     -11.681  21.026  57.259  0.00  0.00     0.030 H 
ENDBRANCH  95 107
ENDBRANCH  93  95
ENDBRANCH  89  91
BRANCH  89 111
ATOM    111  CB  SER d   1      -7.640  22.501  54.830  0.00  0.00    -0.014 C 
ATOM    112  H59 SER d   1      -8.491  22.870  55.422  0.00  0.00     0.043 H 
ATOM    113  H60 SER d   1      -7.283  23.299  54.163  0.00  0.00     0.043 H 
BRANCH 111 114
ATOM    114  CG  SER d   1      -6.529  22.141  55.773  0.00  0.00    -0.056 A 
ATOM    115  CD1 SER d   1      -5.205  22.152  55.342  0.00  0.00    -0.077 A 
ATOM    116  CE1 SER d   1      -4.170  21.804  56.205  0.00  0.00    -0.082 A 
ATOM    117  H61 SER d   1      -4.977  22.435  54.321  0.00  0.00     0.084 H 
ATOM    118  CZ  SER d   1      -4.452  21.438  57.516  0.00  0.00    -0.083 A 
ATOM    119  H63 SER d   1      -3.144  21.818  55.855  0.00  0.00     0.083 H 
ATOM    120  CE2 SER d   1      -5.775  21.422  57.960  0.00  0.00    -0.082 A 
ATOM    121  H65 SER d   1      -3.648  21.166  58.190  0.00  0.00     0.083 H 
ATOM    122  CD2 SER d   1      -6.804  21.774  57.085  0.00  0.00    -0.077 A 
ATOM    123  H64 SER d   1      -6.003  21.137  58.981  0.00  0.00     0.083 H 
ATOM    124  H62 SER d   1      -7.830  21.761  57.433  0.00  0.00     0.084 H 
ENDBRANCH 111 114
ENDBRANCH  89 111
ENDBRANCH  87  89
ENDBRANCH  83  85
BRANCH  83 125
ATOM    125  CB  SER d   1      -9.882  22.490  50.149  0.00  0.00    -0.035 C 
ATOM    126  H48 SER d   1      -9.368  23.280  50.716  0.00  0.00     0.037 H 
ATOM    127  H49 SER d   1     -10.616  22.946  49.468  0.00  0.00     0.037 H 
BRANCH 125 128
ATOM    128  CG  SER d   1      -8.821  21.805  49.272  0.00  0.00    -0.059 C 
ATOM    129  H50 SER d   1      -9.298  20.992  48.704  0.00  0.00     0.038 H 
BRANCH 128 130
ATOM    130  CD1 SER d   1      -8.240  22.818  48.303  0.00  0.00    -0.073 C 
ATOM    131  H51 SER d   1      -7.481  22.330  47.674  0.00  0.00     0.028 H 
ATOM    132  H52 SER d   1      -7.776  23.641  48.867  0.00  0.00     0.028 H 
ATOM    133  H53 SER d   1      -9.042  23.218  47.665  0.00  0.00     0.028 H 
ENDBRANCH 128 130
BRANCH 128 134
ATOM    134  CD2 SER d   1      -7.707  21.223  50.122  0.00  0.00    -0.073 C 
ATOM    135  H54 SER d   1      -8.127  20.489  50.825  0.00  0.00     0.028 H 
ATOM    136  H55 SER d   1      -7.216  22.030  50.685  0.00  0.00     0.028 H 
ATOM    137  H56 SER d   1      -6.970  20.728  49.472  0.00  0.00     0.028 H 
ENDBRANCH 128 134
ENDBRANCH 125 128
ENDBRANCH  83 125
ENDBRANCH  81  83
ENDBRANCH  77  79
BRANCH  77 138
ATOM    138  CB  SER d   1     -14.484  23.390  52.750  0.00  0.00     0.044 C 
ATOM    139  H43 SER d   1     -15.028  22.480  52.458  0.00  0.00     0.077 H 
ATOM    140  H44 SER d   1     -14.142  23.919  51.848  0.00  0.00     0.077 H 
BRANCH 138 141
ATOM    141  OG  SER d   1     -15.353  24.236  53.484  0.00  0.00    -0.398 OA
ATOM    142  H45 SER d   1     -14.887  25.025  53.736  0.00  0.00     0.209 HD
ENDBRANCH 138 141
ENDBRANCH  77 138
ENDBRANCH  75  77
ENDBRANCH   1  73
BRANCH   1 143
ATOM    143  CB  SER d   1     -11.436  26.239  56.076  0.00  0.00    -0.029 C 
ATOM    144  H37 SER d   1     -11.739  25.562  56.888  0.00  0.00     0.037 H 
ATOM    145  H38 SER d   1     -12.332  26.675  55.609  0.00  0.00     0.037 H 
BRANCH 143 146
ATOM    146  CG  SER d   1     -10.620  27.370  56.682  0.00  0.00     0.018 C 
ATOM    147  H39 SER d   1     -10.285  28.037  55.874  0.00  0.00     0.049 H 
ATOM    148  H40 SER d   1      -9.744  26.941  57.191  0.00  0.00     0.049 H 
BRANCH 146 149
ATOM    149  CD  SER d   1     -11.417  28.182  57.685  0.00  0.00     0.172 C 
ATOM    150  OE1 SER d   1     -12.414  28.819  57.283  0.00  0.00    -0.648 OA
ATOM    151  OE2 SER d   1     -11.051  28.181  58.879  0.00  0.00    -0.648 OA
ENDBRANCH 146 149
ENDBRANCH 143 146
ENDBRANCH   1 143
TORSDOF 42
