REMARK  8 active torsions:
REMARK  status: ('A' for Active; 'I' for Inactive)
REMARK    1  A    between atoms: N0_1  and  CA0_2 
REMARK    2  A    between atoms: CA0_2  and  CB0_3 
REMARK    3  A    between atoms: CA0_2  and  C0_16 
REMARK    4  A    between atoms: CB0_3  and  CG1_4 
REMARK    5  A    between atoms: CB0_3  and  CG2_10 
REMARK       I    between atoms: C0_16  and  N_18 
REMARK    6  A    between atoms: CA_20  and  C_23 
REMARK       I    between atoms: C_23  and  N'_25 
REMARK    7  A    between atoms: N'_25  and  CA'_26 
REMARK    8  A    between atoms: CA'_26  and  CB'_27 
ROOT
ATOM      1  C0  176 d   1      16.870 -14.737  22.867  0.00  0.00     0.252 C 
ATOM      2  O0  176 d   1      15.914 -14.063  23.291  0.00  0.00    -0.271 OA
ATOM      3  N   176 d   1      17.684 -14.269  21.903  0.00  0.00    -0.337 N 
ATOM      4  CD  176 d   1      18.843 -14.948  21.324  0.00  0.00    -0.001 C 
ATOM      5  CA  176 d   1      17.452 -13.016  21.199  0.00  0.00     0.091 C 
ATOM      6  CB  176 d   1      18.529 -13.028  20.111  0.00  0.00    -0.036 C 
ATOM      7  CG  176 d   1      19.638 -13.803  20.746  0.00  0.00    -0.048 C 
ATOM      8  H16 176 d   1      18.538 -15.656  20.539  0.00  0.00     0.064 H 
ATOM      9  H17 176 d   1      19.418 -15.481  22.096  0.00  0.00     0.064 H 
ATOM     10  H18 176 d   1      17.645 -12.180  21.888  0.00  0.00     0.087 H 
ATOM     11  H19 176 d   1      18.852 -12.006  19.863  0.00  0.00     0.036 H 
ATOM     12  H20 176 d   1      18.167 -13.529  19.201  0.00  0.00     0.036 H 
ATOM     13  H21 176 d   1      20.374 -14.148  20.005  0.00  0.00     0.035 H 
ATOM     14  H22 176 d   1      20.149 -13.222  21.528  0.00  0.00     0.035 H 
ENDROOT
BRANCH   1  15
ATOM     15  CA0 176 d   1      17.155 -16.101  23.455  0.00  0.00     0.187 C 
ATOM     16  H4  176 d   1      17.848 -16.662  22.811  0.00  0.00     0.100 H 
BRANCH  15  17
ATOM     17  N0  176 d   1      15.866 -16.758  23.503  0.00  0.00    -0.065 N 
ATOM     18  H1  176 d   1      15.975 -17.683  23.888  0.00  0.00     0.275 HD
ATOM     19  H2  176 d   1      15.488 -16.824  22.571  0.00  0.00     0.275 HD
ATOM     20  H3  176 d   1      15.238 -16.224  24.084  0.00  0.00     0.275 HD
ENDBRANCH  15  17
BRANCH  15  21
ATOM     21  CB0 176 d   1      17.776 -15.963  24.883  0.00  0.00     0.033 C 
ATOM     22  H5  176 d   1      17.148 -15.203  25.369  0.00  0.00     0.058 H 
BRANCH  21  23
ATOM     23  CG1 176 d   1      19.212 -15.426  24.996  0.00  0.00    -0.047 A 
ATOM     24  CD1 176 d   1      20.202 -15.825  24.133  0.00  0.00    -0.076 A 
ATOM     25  CE1 176 d   1      21.495 -15.376  24.301  0.00  0.00    -0.082 A 
ATOM     26  H6  176 d   1      19.966 -16.496  23.315  0.00  0.00     0.084 H 
ATOM     27  CZ1 176 d   1      21.812 -14.524  25.331  0.00  0.00    -0.083 A 
ATOM     28  H7  176 d   1      22.269 -15.698  23.614  0.00  0.00     0.083 H 
ATOM     29  CE2 176 d   1      20.824 -14.113  26.190  0.00  0.00    -0.082 A 
ATOM     30  H8  176 d   1      22.831 -14.180  25.464  0.00  0.00     0.083 H 
ATOM     31  CD2 176 d   1      19.534 -14.562  26.022  0.00  0.00    -0.076 A 
ATOM     32  H9  176 d   1      21.060 -13.434  27.002  0.00  0.00     0.083 H 
ATOM     33  H10 176 d   1      18.760 -14.232  26.706  0.00  0.00     0.084 H 
ENDBRANCH  21  23
BRANCH  21  34
ATOM     34  CG2 176 d   1      17.664 -17.206  25.753  0.00  0.00    -0.047 A 
ATOM     35  CD3 176 d   1      17.835 -18.474  25.213  0.00  0.00    -0.076 A 
ATOM     36  CE3 176 d   1      17.741 -19.579  26.035  0.00  0.00    -0.082 A 
ATOM     37  H11 176 d   1      18.040 -18.595  24.155  0.00  0.00     0.084 H 
ATOM     38  CZ2 176 d   1      17.482 -19.419  27.382  0.00  0.00    -0.083 A 
ATOM     39  H12 176 d   1      17.871 -20.573  25.623  0.00  0.00     0.083 H 
ATOM     40  CE4 176 d   1      17.315 -18.150  27.911  0.00  0.00    -0.082 A 
ATOM     41  H13 176 d   1      17.409 -20.288  28.026  0.00  0.00     0.083 H 
ATOM     42  CD4 176 d   1      17.402 -17.037  27.104  0.00  0.00    -0.076 A 
ATOM     43  H14 176 d   1      17.114 -18.032  28.970  0.00  0.00     0.083 H 
ATOM     44  H15 176 d   1      17.268 -16.044  27.519  0.00  0.00     0.084 H 
ENDBRANCH  21  34
ENDBRANCH  15  21
ENDBRANCH   1  15
BRANCH   5  45
ATOM     45  C   176 d   1      16.026 -12.826  20.659  0.00  0.00     0.240 C 
ATOM     46  O   176 d   1      15.673 -13.481  19.673  0.00  0.00    -0.271 OA
ATOM     47  N'  176 d   1      15.243 -11.897  21.241  0.00  0.00    -0.355 N 
ATOM     48  H23 176 d   1      15.614 -11.383  22.014  0.00  0.00     0.162 HD
BRANCH  47  49
ATOM     49  CA' 176 d   1      13.892 -11.601  20.808  0.00  0.00     0.021 C 
ATOM     50  H24 176 d   1      13.567 -12.379  20.102  0.00  0.00     0.071 H 
ATOM     51  H25 176 d   1      13.887 -10.623  20.304  0.00  0.00     0.071 H 
BRANCH  49  52
ATOM     52  CB' 176 d   1      12.915 -11.557  21.977  0.00  0.00    -0.017 A 
ATOM     53  CG' 176 d   1      12.046 -12.569  22.279  0.00  0.00     0.042 A 
ATOM     54  CD' 176 d   1      11.137 -12.598  23.322  0.00  0.00    -0.060 A 
ATOM     55 CL1  176 d   1      12.089 -13.895  21.207  0.00  0.00    -0.084 Cl
ATOM     56  CE' 176 d   1      11.081 -11.502  24.163  0.00  0.00    -0.060 A 
ATOM     57  H26 176 d   1      10.489 -13.453  23.475  0.00  0.00     0.086 H 
ATOM     58  C31 176 d   1      11.944 -10.462  23.882  0.00  0.00     0.034 A 
ATOM     59  H27 176 d   1      10.394 -11.461  25.001  0.00  0.00     0.086 H 
ATOM     60  C32 176 d   1      12.830 -10.494  22.824  0.00  0.00    -0.053 A 
ATOM     61 CL2  176 d   1      11.928  -9.060  24.855  0.00  0.00    -0.084 Cl
ATOM     62  H28 176 d   1      13.481  -9.643  22.662  0.00  0.00     0.087 H 
ENDBRANCH  49  52
ENDBRANCH  47  49
ENDBRANCH   5  45
TORSDOF 8
