REMARK  13 active torsions:
REMARK  status: ('A' for Active; 'I' for Inactive)
REMARK    1  A    between atoms: CA_2  and  N_1 
REMARK    2  A    between atoms: C_3  and  CA_2 
REMARK    3  A    between atoms: CA_2  and  CB_5 
REMARK       I    between atoms: N_12  and  C_3 
REMARK    4  A    between atoms: CB_5  and  CG_6 
REMARK    5  A    between atoms: C_14  and  CA_13 
REMARK       I    between atoms: N_19  and  C_14 
REMARK    6  A    between atoms: CA_20  and  N_19 
REMARK    7  A    between atoms: C_21  and  CA_20 
REMARK    8  A    between atoms: CA_20  and  CB_23 
REMARK    9  A    between atoms: C_21  and  O_22 
REMARK   10  A    between atoms: C8_30  and  C_21 
REMARK   11  A    between atoms: CB_23  and  CG_24 
REMARK   12  A    between atoms: CG_24  and  CD_25 
REMARK   13  A    between atoms: CD_25  and  NE_26 
REMARK       I    between atoms: NE_26  and  CZ_27 
REMARK       I    between atoms: CZ_27  and  NH1_28 
REMARK       I    between atoms: CZ_27  and  NH2_29 
ROOT
ATOM      1  C   00Q d   1      16.363 -12.959  20.459  0.00  0.00     0.241 C 
ATOM      2  O   00Q d   1      15.811 -14.026  20.100  0.00  0.00    -0.271 OA
ATOM      3  N   00Q d   1      15.687 -11.802  20.469  0.00  0.00    -0.352 N 
ATOM      4  H19 00Q d   1      16.161 -11.019  20.871  0.00  0.00     0.163 HD
ENDROOT
BRANCH   3   5
ATOM      5  CA  00Q d   1      14.347 -11.550  19.965  0.00  0.00     0.043 C 
ATOM      6  H20 00Q d   1      13.941 -12.527  19.663  0.00  0.00     0.077 H 
BRANCH   5   7
ATOM      7  C   00Q d   1      14.313 -10.613  18.737  0.00  0.00     0.103 C 
ATOM      8  H21 00Q d   1      14.542  -9.608  19.120  0.00  0.00     0.097 H 
BRANCH   7   9
ATOM      9  O   00Q d   1      13.254 -10.519  18.077  0.00  0.00    -0.387 OA
ATOM     10  H22 00Q d   1      13.383  -9.912  17.358  0.00  0.00     0.210 HD
ENDBRANCH   7   9
BRANCH   7  11
ATOM     11  C8  00Q d   1      15.631 -11.090  17.490  0.00  0.00     0.107 C 
ATOM     12  N1  00Q d   1      16.841 -10.809  17.195  0.00  0.00    -0.242 NA
ATOM     13  C9  00Q d   1      17.256 -11.545  16.111  0.00  0.00     0.075 C 
ATOM     14  C10 00Q d   1      16.237 -12.276  15.461  0.00  0.00     0.035 C 
ATOM     15  C14 00Q d   1      18.418 -11.246  15.359  0.00  0.00    -0.054 C 
ATOM     16  S1  00Q d   1      14.913 -12.501  16.611  0.00  0.00    -0.070 SA
ATOM     17  C11 00Q d   1      16.548 -13.115  14.368  0.00  0.00    -0.064 C 
ATOM     18  C12 00Q d   1      17.834 -13.061  13.824  0.00  0.00    -0.082 C 
ATOM     19  H34 00Q d   1      15.803 -13.788  13.959  0.00  0.00     0.085 H 
ATOM     20  C13 00Q d   1      18.701 -11.985  14.228  0.00  0.00    -0.081 C 
ATOM     21  H35 00Q d   1      18.170 -13.810  13.116  0.00  0.00     0.083 H 
ATOM     22  H36 00Q d   1      19.582 -11.754  13.640  0.00  0.00     0.083 H 
ATOM     23  H37 00Q d   1      19.079 -10.444  15.668  0.00  0.00     0.087 H 
ENDBRANCH   7  11
ENDBRANCH   5   7
BRANCH   5  24
ATOM     24  CB  00Q d   1      13.377 -10.930  20.983  0.00  0.00    -0.042 C 
ATOM     25  H23 00Q d   1      12.489 -10.569  20.444  0.00  0.00     0.036 H 
ATOM     26  H24 00Q d   1      13.879 -10.082  21.473  0.00  0.00     0.036 H 
BRANCH  24  27
ATOM     27  CG  00Q d   1      12.931 -11.898  22.043  0.00  0.00    -0.048 C 
ATOM     28  H25 00Q d   1      13.799 -12.190  22.652  0.00  0.00     0.035 H 
ATOM     29  H26 00Q d   1      12.505 -12.790  21.561  0.00  0.00     0.035 H 
BRANCH  27  30
ATOM     30  CD  00Q d   1      11.912 -11.287  22.915  0.00  0.00     0.009 C 
ATOM     31  H27 00Q d   1      11.148 -10.805  22.288  0.00  0.00     0.064 H 
ATOM     32  H28 00Q d   1      12.394 -10.531  23.552  0.00  0.00     0.064 H 
BRANCH  30  33
ATOM     33  NE  00Q d   1      11.282 -12.258  23.747  0.00  0.00    -0.227 N 
ATOM     34  CZ  00Q d   1      10.445 -12.077  24.737  0.00  0.00     0.665 C 
ATOM     35  NH1 00Q d   1      10.185 -10.781  25.048  0.00  0.00    -0.235 N 
ATOM     36  NH2 00Q d   1       9.708 -13.096  25.175  0.00  0.00    -0.235 N 
ATOM     37  H30 00Q d   1       9.536 -10.556  25.816  0.00  0.00     0.174 HD
ATOM     38  H31 00Q d   1      10.637 -10.023  24.516  0.00  0.00     0.174 HD
ATOM     39  H32 00Q d   1       9.952 -14.060  24.907  0.00  0.00     0.174 HD
ATOM     40  H33 00Q d   1       8.894 -12.920  25.782  0.00  0.00     0.174 HD
ATOM     41  H29 00Q d   1      11.518 -13.239  23.540  0.00  0.00     0.177 HD
ENDBRANCH  30  33
ENDBRANCH  27  30
ENDBRANCH  24  27
ENDBRANCH   5  24
ENDBRANCH   3   5
BRANCH   1  42
ATOM     42  CA  00Q d   1      17.750 -12.970  21.091  0.00  0.00     0.091 A 
ATOM     43  N   00Q d   1      17.966 -14.263  21.822  0.00  0.00    -0.337 N 
ATOM     44  C   00Q d   1      17.116 -14.667  22.734  0.00  0.00     0.251 C 
ATOM     45  CD  00Q d   1      19.187 -14.944  21.374  0.00  0.00    -0.001 A 
ATOM     46  O   00Q d   1      16.098 -14.064  23.102  0.00  0.00    -0.271 OA
ATOM     47  CG  00Q d   1      19.836 -14.040  20.351  0.00  0.00    -0.048 A 
ATOM     48  H17 00Q d   1      18.936 -15.913  20.919  0.00  0.00     0.064 H 
ATOM     49  H18 00Q d   1      19.866 -15.104  22.224  0.00  0.00     0.064 H 
ATOM     50  CB  00Q d   1      18.919 -12.854  20.140  0.00  0.00    -0.036 A 
ATOM     51  H15 00Q d   1      20.814 -13.697  20.720  0.00  0.00     0.035 H 
ATOM     52  H16 00Q d   1      19.972 -14.582  19.404  0.00  0.00     0.035 H 
ATOM     53  H13 00Q d   1      19.468 -11.922  20.340  0.00  0.00     0.036 H 
ATOM     54  H14 00Q d   1      18.553 -12.849  19.103  0.00  0.00     0.036 H 
ATOM     55  H12 00Q d   1      17.796 -12.131  21.801  0.00  0.00     0.087 H 
BRANCH  44  56
ATOM     56  CA  00Q d   1      17.318 -16.035  23.376  0.00  0.00     0.179 C 
ATOM     57  H4  00Q d   1      18.058 -16.613  22.803  0.00  0.00     0.099 H 
BRANCH  56  58
ATOM     58  N   00Q d   1      15.971 -16.703  23.342  0.00  0.00    -0.066 N 
ATOM     59  H1  00Q d   1      16.040 -17.619  23.756  0.00  0.00     0.275 HD
ATOM     60  H2  00Q d   1      15.662 -16.789  22.386  0.00  0.00     0.275 HD
ATOM     61  H3  00Q d   1      15.308 -16.149  23.861  0.00  0.00     0.275 HD
ENDBRANCH  56  58
BRANCH  56  62
ATOM     62  CB  00Q d   1      17.762 -15.946  24.842  0.00  0.00    -0.006 C 
ATOM     63  H5  00Q d   1      17.674 -16.942  25.299  0.00  0.00     0.043 H 
ATOM     64  H6  00Q d   1      17.102 -15.241  25.369  0.00  0.00     0.043 H 
BRANCH  62  65
ATOM     65  CG  00Q d   1      19.183 -15.474  24.979  0.00  0.00    -0.056 A 
ATOM     66  CD1 00Q d   1      20.204 -16.221  24.368  0.00  0.00    -0.077 A 
ATOM     67  CE1 00Q d   1      21.553 -15.803  24.476  0.00  0.00    -0.082 A 
ATOM     68  H7  00Q d   1      19.959 -17.119  23.813  0.00  0.00     0.084 H 
ATOM     69  CZ  00Q d   1      21.887 -14.686  25.277  0.00  0.00    -0.083 A 
ATOM     70  H9  00Q d   1      22.330 -16.340  23.944  0.00  0.00     0.083 H 
ATOM     71  CE2 00Q d   1      20.861 -13.964  25.914  0.00  0.00    -0.082 A 
ATOM     72  H11 00Q d   1      22.922 -14.389  25.399  0.00  0.00     0.083 H 
ATOM     73  CD2 00Q d   1      19.491 -14.350  25.750  0.00  0.00    -0.077 A 
ATOM     74  H10 00Q d   1      21.109 -13.110  26.533  0.00  0.00     0.083 H 
ATOM     75  H8  00Q d   1      18.701 -13.775  26.220  0.00  0.00     0.084 H 
ENDBRANCH  62  65
ENDBRANCH  56  62
ENDBRANCH  44  56
ENDBRANCH   1  42
TORSDOF 13
