REMARK  0 active torsions:
REMARK  status: ('A' for Active; 'I' for Inactive)
ROOT
ATOM      1  N1  FMB d   1      -2.256 -11.937  20.106  0.00  0.00    -0.327 N 
ATOM      2  C2  FMB d   1      -3.359 -11.454  20.728  0.00  0.00     0.066 A 
ATOM      3  N3  FMB d   1      -4.442 -10.930  20.149  0.00  0.00    -0.240 NA
ATOM      4  C4  FMB d   1      -4.335 -10.922  18.749  0.00  0.00     0.109 A 
ATOM      5  C5  FMB d   1      -3.215 -11.405  18.055  0.00  0.00     0.134 A 
ATOM      6  C6  FMB d   1      -2.136 -11.939  18.764  0.00  0.00     0.210 A 
ATOM      7  O6  FMB d   1      -1.078 -12.401  18.151  0.00  0.00    -0.170 OA
ATOM      8  N7  FMB d   1      -3.438 -11.247  16.719  0.00  0.00    -0.272 N 
ATOM      9  N8  FMB d   1      -4.665 -10.673  16.509  0.00  0.00    -0.184 NA
ATOM     10  C9  FMB d   1      -5.236 -10.463  17.715  0.00  0.00     0.052 A 
ATOM     11  H1  FMB d   1      -1.508 -12.303  20.660  0.00  0.00     0.168 HD
ATOM     12  H2  FMB d   1      -3.362 -11.498  21.816  0.00  0.00     0.143 H 
ATOM     13  H3  FMB d   1      -2.780 -11.520  15.975  0.00  0.00     0.189 HD
ATOM     14  H4  FMB d   1      -6.217 -10.020  17.882  0.00  0.00     0.121 H 
ENDROOT
TORSDOF 0
