REMARK  20 active torsions:
REMARK  status: ('A' for Active; 'I' for Inactive)
REMARK    1  A    between atoms: C1_1  and  O1_36 
REMARK    2  A    between atoms: C1_1  and  C4_4 
REMARK    3  A    between atoms: C1_1  and  C3_3 
REMARK    4  A    between atoms: C1_1  and  C2_2 
REMARK    5  A    between atoms: O1_36  and  C5_5 
REMARK       I    between atoms: C5_5  and  N1_32 
REMARK    6  A    between atoms: N1_32  and  C6_6 
REMARK    7  A    between atoms: C6_6  and  C14_14 
REMARK    8  A    between atoms: C6_6  and  C7_7 
REMARK    9  A    between atoms: C7_7  and  C8_8 
REMARK   10  A    between atoms: C14_14  and  O3_38 
REMARK   11  A    between atoms: C14_14  and  C15_15 
REMARK   12  A    between atoms: C15_15  and  C16_16 
REMARK   13  A    between atoms: C16_16  and  C24_24 
REMARK   14  A    between atoms: C16_16  and  C17_17 
REMARK   15  A    between atoms: C17_17  and  C18_18 
REMARK       I    between atoms: C24_24  and  N2_33 
REMARK   16  A    between atoms: N2_33  and  C25_25 
REMARK   17  A    between atoms: C25_25  and  C29_29 
REMARK   18  A    between atoms: C25_25  and  C26_26 
REMARK   19  A    between atoms: C26_26  and  C28_28 
REMARK   20  A    between atoms: C26_26  and  C27_27 
ROOT
ATOM      1  C15 IM1 d   1      62.462  19.703  23.664  0.00  0.00    -0.028 C 
ATOM      2  H19 IM1 d   1      63.562  19.689  23.690  0.00  0.00     0.038 H 
ATOM      3  H20 IM1 d   1      62.122  20.439  22.921  0.00  0.00     0.038 H 
ENDROOT
BRANCH   1   4
ATOM      4  C14 IM1 d   1      61.883  19.997  25.035  0.00  0.00     0.056 C 
ATOM      5  H18 IM1 d   1      62.322  19.242  25.704  0.00  0.00     0.086 H 
BRANCH   4   6
ATOM      6  C6  IM1 d   1      62.083  21.325  25.724  0.00  0.00     0.043 C 
ATOM      7  H10 IM1 d   1      61.272  21.467  26.453  0.00  0.00     0.077 H 
BRANCH   6   8
ATOM      8  N1  IM1 d   1      63.341  21.352  26.448  0.00  0.00    -0.329 N 
ATOM      9  C5  IM1 d   1      63.451  21.284  27.798  0.00  0.00     0.361 C 
ATOM     10  O2  IM1 d   1      62.517  21.178  28.605  0.00  0.00    -0.238 OA
ATOM     11  H39 IM1 d   1      64.184  21.426  25.915  0.00  0.00     0.165 HD
BRANCH   9  12
ATOM     12  O1  IM1 d   1      64.725  21.318  28.379  0.00  0.00    -0.294 OA
BRANCH  12  13
ATOM     13  C1  IM1 d   1      65.637  22.389  28.264  0.00  0.00     0.061 C 
BRANCH  13  14
ATOM     14  C4  IM1 d   1      66.569  22.251  27.045  0.00  0.00    -0.048 C 
ATOM     15  H7  IM1 d   1      67.254  23.111  27.008  0.00  0.00     0.031 H 
ATOM     16  H8  IM1 d   1      65.967  22.222  26.125  0.00  0.00     0.031 H 
ATOM     17  H9  IM1 d   1      67.151  21.322  27.132  0.00  0.00     0.031 H 
ENDBRANCH  13  14
BRANCH  13  18
ATOM     18  C3  IM1 d   1      64.944  23.747  28.178  0.00  0.00    -0.048 C 
ATOM     19  H4  IM1 d   1      65.701  24.540  28.090  0.00  0.00     0.031 H 
ATOM     20  H5  IM1 d   1      64.345  23.911  29.086  0.00  0.00     0.031 H 
ATOM     21  H6  IM1 d   1      64.287  23.768  27.296  0.00  0.00     0.031 H 
ENDBRANCH  13  18
BRANCH  13  22
ATOM     22  C2  IM1 d   1      66.469  22.390  29.551  0.00  0.00    -0.048 C 
ATOM     23  H1  IM1 d   1      67.201  23.210  29.514  0.00  0.00     0.031 H 
ATOM     24  H2  IM1 d   1      66.999  21.431  29.646  0.00  0.00     0.031 H 
ATOM     25  H3  IM1 d   1      65.805  22.530  30.417  0.00  0.00     0.031 H 
ENDBRANCH  13  22
ENDBRANCH  12  13
ENDBRANCH   9  12
ENDBRANCH   6   8
BRANCH   6  26
ATOM     26  C7  IM1 d   1      61.988  22.448  24.667  0.00  0.00    -0.020 C 
ATOM     27  H11 IM1 d   1      62.191  22.023  23.673  0.00  0.00     0.043 H 
ATOM     28  H12 IM1 d   1      62.738  23.220  24.896  0.00  0.00     0.043 H 
BRANCH  26  29
ATOM     29  C8  IM1 d   1      60.602  23.089  24.659  0.00  0.00    -0.056 A 
ATOM     30  C13 IM1 d   1      59.866  23.183  23.472  0.00  0.00    -0.077 A 
ATOM     31  C12 IM1 d   1      58.579  23.735  23.486  0.00  0.00    -0.082 A 
ATOM     32  H17 IM1 d   1      60.293  22.828  22.541  0.00  0.00     0.084 H 
ATOM     33  C11 IM1 d   1      58.015  24.199  24.677  0.00  0.00    -0.083 A 
ATOM     34  H16 IM1 d   1      58.014  23.803  22.563  0.00  0.00     0.083 H 
ATOM     35  C10 IM1 d   1      58.737  24.114  25.867  0.00  0.00    -0.082 A 
ATOM     36  H15 IM1 d   1      57.018  24.624  24.676  0.00  0.00     0.083 H 
ATOM     37  C9  IM1 d   1      60.029  23.562  25.861  0.00  0.00    -0.077 A 
ATOM     38  H14 IM1 d   1      58.303  24.473  26.793  0.00  0.00     0.083 H 
ATOM     39  H13 IM1 d   1      60.591  23.498  26.786  0.00  0.00     0.084 H 
ENDBRANCH  26  29
ENDBRANCH   6  26
ENDBRANCH   4   6
BRANCH   4  40
ATOM     40  O3  IM1 d   1      60.476  19.798  24.985  0.00  0.00    -0.393 OA
ATOM     41  H42 IM1 d   1      60.289  18.970  24.558  0.00  0.00     0.210 HD
ENDBRANCH   4  40
ENDBRANCH   1   4
BRANCH   1  42
ATOM     42  C16 IM1 d   1      61.902  18.327  23.370  0.00  0.00     0.030 C 
ATOM     43  H21 IM1 d   1      61.048  18.230  24.057  0.00  0.00     0.055 H 
BRANCH  42  44
ATOM     44  C24 IM1 d   1      62.746  17.114  23.593  0.00  0.00     0.222 C 
ATOM     45  O4  IM1 d   1      63.944  16.947  23.327  0.00  0.00    -0.273 OA
ATOM     46  N2  IM1 d   1      61.974  16.225  24.197  0.00  0.00    -0.349 N 
ATOM     47  H40 IM1 d   1      61.012  16.416  24.392  0.00  0.00     0.163 HD
BRANCH  46  48
ATOM     48  C25 IM1 d   1      62.580  14.971  24.561  0.00  0.00     0.072 C 
ATOM     49  H29 IM1 d   1      63.600  14.924  24.153  0.00  0.00     0.085 H 
BRANCH  48  50
ATOM     50  C29 IM1 d   1      61.794  13.838  23.951  0.00  0.00     0.126 A 
ATOM     51  N4  IM1 d   1      60.587  13.428  24.219  0.00  0.00    -0.244 NA
ATOM     52  C31 IM1 d   1      60.408  12.423  23.280  0.00  0.00     0.019 A 
ATOM     53  C30 IM1 d   1      61.551  12.291  22.479  0.00  0.00    -0.005 A 
ATOM     54  H38 IM1 d   1      59.506  11.821  23.179  0.00  0.00     0.117 H 
ATOM     55  N3  IM1 d   1      62.430  13.236  22.946  0.00  0.00    -0.351 N 
ATOM     56  H37 IM1 d   1      61.708  11.589  21.661  0.00  0.00     0.113 H 
ATOM     57  H41 IM1 d   1      63.377  13.437  22.595  0.00  0.00     0.166 HD
ENDBRANCH  48  50
BRANCH  48  58
ATOM     58  C26 IM1 d   1      62.679  14.971  26.120  0.00  0.00    -0.035 C 
ATOM     59  H30 IM1 d   1      61.680  14.838  26.561  0.00  0.00     0.042 H 
BRANCH  58  60
ATOM     60  C28 IM1 d   1      63.369  16.219  26.670  0.00  0.00    -0.071 C 
ATOM     61  H34 IM1 d   1      62.764  17.107  26.433  0.00  0.00     0.028 H 
ATOM     62  H35 IM1 d   1      64.364  16.320  26.212  0.00  0.00     0.028 H 
ATOM     63  H36 IM1 d   1      63.475  16.128  27.761  0.00  0.00     0.028 H 
ENDBRANCH  58  60
BRANCH  58  64
ATOM     64  C27 IM1 d   1      63.628  13.895  26.531  0.00  0.00    -0.071 C 
ATOM     65  H31 IM1 d   1      63.711  13.879  27.628  0.00  0.00     0.028 H 
ATOM     66  H32 IM1 d   1      64.617  14.091  26.091  0.00  0.00     0.028 H 
ATOM     67  H33 IM1 d   1      63.255  12.922  26.177  0.00  0.00     0.028 H 
ENDBRANCH  58  64
ENDBRANCH  48  58
ENDBRANCH  46  48
ENDBRANCH  42  44
BRANCH  42  68
ATOM     68  C17 IM1 d   1      61.372  18.175  21.986  0.00  0.00    -0.029 C 
ATOM     69  H22 IM1 d   1      60.431  18.743  21.950  0.00  0.00     0.041 H 
ATOM     70  H23 IM1 d   1      61.159  17.104  21.851  0.00  0.00     0.041 H 
BRANCH  68  71
ATOM     71  C18 IM1 d   1      62.154  18.593  20.815  0.00  0.00    -0.057 A 
ATOM     72  C23 IM1 d   1      61.893  19.849  20.264  0.00  0.00    -0.077 A 
ATOM     73  C22 IM1 d   1      62.531  20.206  19.085  0.00  0.00    -0.082 A 
ATOM     74  H28 IM1 d   1      61.205  20.532  20.748  0.00  0.00     0.084 H 
ATOM     75  C21 IM1 d   1      63.418  19.303  18.486  0.00  0.00    -0.083 A 
ATOM     76  H27 IM1 d   1      62.345  21.173  18.632  0.00  0.00     0.083 H 
ATOM     77  C20 IM1 d   1      63.666  18.054  19.069  0.00  0.00    -0.082 A 
ATOM     78  H26 IM1 d   1      63.917  19.573  17.562  0.00  0.00     0.083 H 
ATOM     79  C19 IM1 d   1      63.028  17.686  20.252  0.00  0.00    -0.077 A 
ATOM     80  H25 IM1 d   1      64.360  17.368  18.596  0.00  0.00     0.083 H 
ATOM     81  H24 IM1 d   1      63.212  16.722  20.713  0.00  0.00     0.084 H 
ENDBRANCH  68  71
ENDBRANCH  42  68
ENDBRANCH   1  42
TORSDOF 20
