REMARK WARNING: 32 MAX_TORS EXCEEDED!!!
REMARK  54 active torsions:
REMARK  status: ('A' for Active; 'I' for Inactive)
REMARK    1  A    between atoms: N_1  and  CA_2 
REMARK    2  A    between atoms: CA_2  and  C_3 
REMARK    3  A    between atoms: CA_2  and  CB_5 
REMARK       I    between atoms: C_3  and  N_8 
REMARK    4  A    between atoms: CB_5  and  CG1_6 
REMARK    5  A    between atoms: CB_5  and  CG2_7 
REMARK    6  A    between atoms: CA_9  and  C_10 
REMARK       I    between atoms: C_10  and  N_15 
REMARK    7  A    between atoms: N_15  and  CA_16 
REMARK    8  A    between atoms: CA_16  and  C_17 
REMARK       I    between atoms: C_17  and  N_19 
REMARK    9  A    between atoms: N_19  and  CA_20 
REMARK   10  A    between atoms: CA_20  and  C_21 
REMARK   11  A    between atoms: CA_20  and  CB_23 
REMARK       I    between atoms: C_21  and  N_25 
REMARK   12  A    between atoms: CB_23  and  OG_24 
REMARK   13  A    between atoms: N_25  and  CA_26 
REMARK   14  A    between atoms: CA_26  and  C_27 
REMARK   15  A    between atoms: CA_26  and  CB_29 
REMARK       I    between atoms: C_27  and  N_34 
REMARK   16  A    between atoms: CB_29  and  CG_30 
REMARK   17  A    between atoms: CG_30  and  CD_31 
REMARK       I    between atoms: CD_31  and  NE2_33 
REMARK   18  A    between atoms: N_34  and  CA_35 
REMARK   19  A    between atoms: CA_35  and  C_36 
REMARK   20  A    between atoms: CA_35  and  CB_38 
REMARK       I    between atoms: C_36  and  N_44 
REMARK   21  A    between atoms: CB_38  and  CG_39 
REMARK   22  A    between atoms: N_44  and  CA_45 
REMARK   23  A    between atoms: CA_45  and  C_46 
REMARK   24  A    between atoms: CA_45  and  CB_48 
REMARK       I    between atoms: C_46  and  N_52 
REMARK   25  A    between atoms: CB_48  and  CG1_49 
REMARK   26  A    between atoms: CB_48  and  CG2_50 
REMARK   27  A    between atoms: CG1_49  and  CD1_51 
REMARK   28  A    between atoms: N_52  and  CA_53 
REMARK   29  A    between atoms: CA_53  and  C_54 
REMARK   30  A    between atoms: CA_53  and  CB_56 
REMARK       I    between atoms: C_54  and  N_60 
REMARK   31  A    between atoms: CB_56  and  CG_57 
REMARK   32  A    between atoms: N_60  and  CA_61 
REMARK   33  A    between atoms: CA_61  and  C_62 
REMARK   34  A    between atoms: CA_61  and  CB_64 
REMARK       I    between atoms: C_62  and  N_66 
REMARK   35  A    between atoms: CB_64  and  OG_65 
REMARK   36  A    between atoms: N_66  and  CA_67 
REMARK   37  A    between atoms: CA_67  and  C_68 
REMARK   38  A    between atoms: CA_67  and  CB_70 
REMARK       I    between atoms: C_68  and  N_75 
REMARK   39  A    between atoms: CB_70  and  CG_71 
REMARK   40  A    between atoms: CG_71  and  CD_72 
REMARK       I    between atoms: CD_72  and  NE2_74 
REMARK   41  A    between atoms: N_75  and  CA_76 
REMARK   42  A    between atoms: CA_76  and  C_77 
REMARK   43  A    between atoms: CA_76  and  CB_79 
REMARK       I    between atoms: C_77  and  N_84 
REMARK   44  A    between atoms: CB_79  and  CG_80 
REMARK   45  A    between atoms: CG_80  and  CD_81 
REMARK   46  A    between atoms: CD_81  and  CE_82 
REMARK   47  A    between atoms: CE_82  and  NZ_83 
REMARK   48  A    between atoms: N_84  and  CA_85 
REMARK   49  A    between atoms: CA_85  and  C_86 
REMARK   50  A    between atoms: CA_85  and  CB_88 
REMARK   51  A    between atoms: CB_88  and  CG_89 
REMARK   52  A    between atoms: CG_89  and  CD_90 
REMARK   53  A    between atoms: CD_90  and  CE_91 
REMARK   54  A    between atoms: CE_91  and  NZ_92 
ROOT
ATOM      1  CA  ILE d   1      48.036  52.508  91.873  0.00  0.00     0.092 C 
ATOM      2  H43 ILE d   1      48.751  52.916  91.144  0.00  0.00     0.088 H 
ENDROOT
BRANCH   1   3
ATOM      3  N   ILE d   1      46.665  52.833  91.548  0.00  0.00    -0.346 N 
ATOM      4  C   HIS d   1      46.225  53.381  90.429  0.00  0.00     0.241 C 
ATOM      5  O   HIS d   1      46.926  53.680  89.460  0.00  0.00    -0.271 OA
ATOM      6  H42 ILE d   1      45.978  52.621  92.243  0.00  0.00     0.163 HD
BRANCH   4   7
ATOM      7  CA  HIS d   1      44.740  53.706  90.497  0.00  0.00     0.094 C 
ATOM      8  H36 HIS d   1      44.532  54.191  91.462  0.00  0.00     0.088 H 
BRANCH   7   9
ATOM      9  N   HIS d   1      44.419  54.632  89.418  0.00  0.00    -0.346 N 
ATOM     10  C   GLN d   1      44.237  55.926  89.693  0.00  0.00     0.241 C 
ATOM     11  O   GLN d   1      44.155  56.255  90.877  0.00  0.00    -0.271 OA
ATOM     12  H35 HIS d   1      44.336  54.300  88.478  0.00  0.00     0.163 HD
BRANCH  10  13
ATOM     13  CA  GLN d   1      44.075  56.956  88.572  0.00  0.00     0.090 C 
ATOM     14  H28 GLN d   1      44.930  57.647  88.617  0.00  0.00     0.087 H 
BRANCH  13  15
ATOM     15  N   GLN d   1      44.076  56.366  87.214  0.00  0.00    -0.346 N 
ATOM     16  C   SER d   1      43.205  55.475  86.811  0.00  0.00     0.243 C 
ATOM     17  O   SER d   1      42.216  55.231  87.544  0.00  0.00    -0.271 OA
ATOM     18  H27 GLN d   1      44.780  56.664  86.570  0.00  0.00     0.163 HD
BRANCH  16  19
ATOM     19  CA  SER d   1      43.351  54.702  85.500  0.00  0.00     0.109 C 
ATOM     20  H23 SER d   1      42.313  54.676  85.137  0.00  0.00     0.090 H 
BRANCH  19  21
ATOM     21  N   SER d   1      44.102  55.000  84.274  0.00  0.00    -0.344 N 
ATOM     22  C   GLY d   1      43.574  54.632  83.101  0.00  0.00     0.236 C 
ATOM     23  O   GLY d   1      42.401  54.301  83.084  0.00  0.00    -0.272 OA
ATOM     24  H22 SER d   1      44.986  55.466  84.315  0.00  0.00     0.163 HD
BRANCH  22  25
ATOM     25  CA  GLY d   1      44.253  54.652  81.758  0.00  0.00     0.069 C 
ATOM     26  H20 GLY d   1      43.736  53.935  81.103  0.00  0.00     0.078 H 
ATOM     27  H21 GLY d   1      44.156  55.665  81.341  0.00  0.00     0.078 H 
BRANCH  25  28
ATOM     28  N   GLY d   1      45.669  54.305  81.780  0.00  0.00    -0.351 N 
ATOM     29  C   PRO d   1      46.061  53.071  82.125  0.00  0.00     0.241 C 
ATOM     30  O   PRO d   1      45.248  52.233  82.505  0.00  0.00    -0.271 OA
ATOM     31  H19 GLY d   1      46.352  54.993  81.536  0.00  0.00     0.163 HD
BRANCH  29  32
ATOM     32  CA  PRO d   1      47.530  52.683  82.117  0.00  0.00     0.091 C 
ATOM     33  N   PRO d   1      47.886  51.933  83.323  0.00  0.00    -0.337 N 
ATOM     34  C   VAL d   1      47.602  52.315  84.564  0.00  0.00     0.251 C 
ATOM     35  CD  PRO d   1      48.659  50.755  82.964  0.00  0.00    -0.001 C 
ATOM     36  O   VAL d   1      47.062  53.405  84.778  0.00  0.00    -0.271 OA
ATOM     37  CG  PRO d   1      49.108  51.083  81.524  0.00  0.00    -0.048 C 
ATOM     38  H17 PRO d   1      48.038  49.847  82.991  0.00  0.00     0.064 H 
ATOM     39  H18 PRO d   1      49.524  50.627  83.632  0.00  0.00     0.064 H 
ATOM     40  CB  PRO d   1      47.902  51.744  80.978  0.00  0.00    -0.036 C 
ATOM     41  H15 PRO d   1      49.974  51.761  81.519  0.00  0.00     0.035 H 
ATOM     42  H16 PRO d   1      49.354  50.169  80.963  0.00  0.00     0.035 H 
ATOM     43  H13 PRO d   1      48.131  52.300  80.057  0.00  0.00     0.036 H 
ATOM     44  H14 PRO d   1      47.101  51.017  80.778  0.00  0.00     0.036 H 
ATOM     45  H12 PRO d   1      48.130  53.603  82.051  0.00  0.00     0.087 H 
BRANCH  34  46
ATOM     46  CA  VAL d   1      48.110  51.483  85.745  0.00  0.00     0.178 C 
ATOM     47  H4  VAL d   1      48.674  50.592  85.433  0.00  0.00     0.099 H 
BRANCH  46  48
ATOM     48  N   VAL d   1      48.965  52.508  86.339  0.00  0.00    -0.066 N 
ATOM     49  H1  VAL d   1      49.709  52.737  85.699  0.00  0.00     0.275 HD
ATOM     50  H2  VAL d   1      49.358  52.160  87.200  0.00  0.00     0.275 HD
ATOM     51  H3  VAL d   1      48.418  53.333  86.528  0.00  0.00     0.275 HD
ENDBRANCH  46  48
BRANCH  46  52
ATOM     52  CB  VAL d   1      46.916  51.062  86.681  0.00  0.00    -0.025 C 
ATOM     53  H5  VAL d   1      46.361  51.961  86.988  0.00  0.00     0.042 H 
BRANCH  52  54
ATOM     54  CG1 VAL d   1      46.052  50.141  85.868  0.00  0.00    -0.071 C 
ATOM     55  H6  VAL d   1      45.195  49.812  86.474  0.00  0.00     0.028 H 
ATOM     56  H7  VAL d   1      46.640  49.265  85.558  0.00  0.00     0.028 H 
ATOM     57  H8  VAL d   1      45.688  50.672  84.976  0.00  0.00     0.028 H 
ENDBRANCH  52  54
BRANCH  52  58
ATOM     58  CG2 VAL d   1      47.318  50.251  87.938  0.00  0.00    -0.071 C 
ATOM     59  H9  VAL d   1      47.958  50.870  88.585  0.00  0.00     0.028 H 
ATOM     60  H10 VAL d   1      47.869  49.349  87.632  0.00  0.00     0.028 H 
ATOM     61  H11 VAL d   1      46.413  49.958  88.490  0.00  0.00     0.028 H 
ENDBRANCH  52  58
ENDBRANCH  46  52
ENDBRANCH  34  46
ENDBRANCH  29  32
ENDBRANCH  25  28
ENDBRANCH  22  25
ENDBRANCH  19  21
BRANCH  19  62
ATOM     62  CB  SER d   1      43.743  53.255  85.862  0.00  0.00     0.044 C 
ATOM     63  H24 SER d   1      44.836  53.166  85.781  0.00  0.00     0.077 H 
ATOM     64  H25 SER d   1      43.266  52.580  85.137  0.00  0.00     0.077 H 
BRANCH  62  65
ATOM     65  OG  SER d   1      43.363  52.843  87.164  0.00  0.00    -0.398 OA
ATOM     66  H26 SER d   1      43.641  51.945  87.305  0.00  0.00     0.209 HD
ENDBRANCH  62  65
ENDBRANCH  19  62
ENDBRANCH  16  19
ENDBRANCH  13  15
BRANCH  13  67
ATOM     67  CB  GLN d   1      42.796  57.753  88.899  0.00  0.00    -0.030 C 
ATOM     68  H29 GLN d   1      42.696  57.813  89.993  0.00  0.00     0.037 H 
ATOM     69  H30 GLN d   1      41.935  57.211  88.482  0.00  0.00     0.037 H 
BRANCH  67  70
ATOM     70  CG  GLN d   1      42.787  59.147  88.348  0.00  0.00     0.011 C 
ATOM     71  H31 GLN d   1      43.403  59.176  87.437  0.00  0.00     0.047 H 
ATOM     72  H32 GLN d   1      43.210  59.831  89.098  0.00  0.00     0.047 H 
BRANCH  70  73
ATOM     73  CD  GLN d   1      41.401  59.590  88.012  0.00  0.00     0.215 C 
ATOM     74  OE1 GLN d   1      41.160  59.708  86.828  0.00  0.00    -0.274 OA
ATOM     75  NE2 GLN d   1      40.399  59.880  88.841  0.00  0.00    -0.370 N 
ATOM     76  H33 GLN d   1      39.514  60.167  88.475  0.00  0.00     0.159 HD
ATOM     77  H34 GLN d   1      40.532  59.810  89.830  0.00  0.00     0.159 HD
ENDBRANCH  70  73
ENDBRANCH  67  70
ENDBRANCH  13  67
ENDBRANCH  10  13
ENDBRANCH   7   9
BRANCH   7  78
ATOM     78  CB  HIS d   1      43.848  52.449  90.384  0.00  0.00     0.002 C 
ATOM     79  H37 HIS d   1      44.174  51.682  91.102  0.00  0.00     0.046 H 
ATOM     80  H38 HIS d   1      43.891  52.039  89.364  0.00  0.00     0.046 H 
BRANCH  78  81
ATOM     81  CG  HIS d   1      42.449  52.910  90.707  0.00  0.00     0.030 A 
ATOM     82  ND1 HIS d   1      41.624  53.683  89.993  0.00  0.00    -0.353 N 
ATOM     83  CE1 HIS d   1      40.551  53.892  90.721  0.00  0.00     0.063 A 
ATOM     84  H39 HIS d   1      41.798  54.048  89.046  0.00  0.00     0.166 HD
ATOM     85  NE2 HIS d   1      40.689  53.260  91.865  0.00  0.00    -0.254 NA
ATOM     86  H41 HIS d   1      39.690  54.490  90.426  0.00  0.00     0.143 H 
ATOM     87  CD2 HIS d   1      41.833  52.639  91.902  0.00  0.00     0.025 A 
ATOM     88  H40 HIS d   1      42.221  52.029  92.716  0.00  0.00     0.117 H 
ENDBRANCH  78  81
ENDBRANCH   7  78
ENDBRANCH   4   7
ENDBRANCH   1   3
BRANCH   1  89
ATOM     89  C   ILE d   1      48.104  50.976  91.861  0.00  0.00     0.241 C 
ATOM     90  O   ILE d   1      47.070  50.281  91.939  0.00  0.00    -0.271 OA
ATOM     91  N   ASP d   1      49.312  50.439  91.721  0.00  0.00    -0.345 N 
ATOM     92  H53 ASP d   1      50.094  51.051  91.603  0.00  0.00     0.163 HD
BRANCH  91  93
ATOM     93  CA  ASP d   1      49.551  49.007  91.731  0.00  0.00     0.098 C 
ATOM     94  H54 ASP d   1      48.905  48.511  92.470  0.00  0.00     0.088 H 
BRANCH  93  95
ATOM     95  C   ASP d   1      51.011  48.845  92.090  0.00  0.00     0.241 C 
ATOM     96  O   ASP d   1      51.757  49.813  91.901  0.00  0.00    -0.271 OA
ATOM     97  N   SER d   1      51.458  47.690  92.602  0.00  0.00    -0.344 N 
ATOM     98  H57 SER d   1      50.826  46.934  92.772  0.00  0.00     0.163 HD
BRANCH  97  99
ATOM     99  CA  SER d   1      52.873  47.550  92.908  0.00  0.00     0.109 C 
ATOM    100  H58 SER d   1      53.292  48.547  93.111  0.00  0.00     0.090 H 
BRANCH  99 101
ATOM    101  C   SER d   1      53.636  46.941  91.728  0.00  0.00     0.243 C 
ATOM    102  O   SER d   1      53.058  46.290  90.855  0.00  0.00    -0.271 OA
ATOM    103  N   GLN d   1      54.943  47.184  91.643  0.00  0.00    -0.346 N 
ATOM    104  H62 GLN d   1      55.369  47.779  92.325  0.00  0.00     0.163 HD
BRANCH 103 105
ATOM    105  CA  GLN d   1      55.769  46.615  90.595  0.00  0.00     0.090 C 
ATOM    106  H63 GLN d   1      55.240  46.687  89.633  0.00  0.00     0.087 H 
BRANCH 105 107
ATOM    107  C   GLN d   1      56.046  45.165  90.943  0.00  0.00     0.241 C 
ATOM    108  O   GLN d   1      55.854  44.768  92.097  0.00  0.00    -0.271 OA
ATOM    109  N   LYS d   1      56.593  44.429  89.980  0.00  0.00    -0.346 N 
ATOM    110  H70 LYS d   1      56.798  44.860  89.101  0.00  0.00     0.163 HD
BRANCH 109 111
ATOM    111  CA  LYS d   1      56.901  43.029  90.158  0.00  0.00     0.089 C 
ATOM    112  H71 LYS d   1      56.749  42.770  91.216  0.00  0.00     0.087 H 
BRANCH 111 113
ATOM    113  C   LYS d   1      58.330  42.724  89.784  0.00  0.00     0.241 C 
ATOM    114  O   LYS d   1      58.627  42.838  88.591  0.00  0.00    -0.271 OA
ATOM    115  N   LYS d   1      59.187  42.417  90.778  0.00  0.00    -0.349 N 
ATOM    116  H83 LYS d   1      58.864  42.438  91.724  0.00  0.00     0.163 HD
BRANCH 115 117
ATOM    117  CA  LYS d   1      60.576  42.054  90.506  0.00  0.00     0.062 C 
ATOM    118  H84 LYS d   1      60.989  42.791  89.801  0.00  0.00     0.083 H 
BRANCH 117 119
ATOM    119  C   LYS d   1      60.675  40.683  89.865  0.00  0.00     0.109 C 
ATOM    120  O   LYS d   1      61.549  40.518  89.023  0.00  0.00    -0.305 OA
ATOM    121  H85 LYS d   1      59.996  39.878  90.142  0.00  0.00     0.146 H 
ENDBRANCH 117 119
BRANCH 117 122
ATOM    122  CB  LYS d   1      61.417  42.104  91.811  0.00  0.00    -0.040 C 
ATOM    123  H86 LYS d   1      60.693  42.191  92.634  0.00  0.00     0.036 H 
ATOM    124  H87 LYS d   1      62.015  43.025  91.750  0.00  0.00     0.036 H 
BRANCH 122 125
ATOM    125  CG  LYS d   1      62.395  40.993  92.225  0.00  0.00    -0.061 C 
ATOM    126  H88 LYS d   1      63.264  41.449  92.722  0.00  0.00     0.033 H 
ATOM    127  H89 LYS d   1      62.728  40.456  91.324  0.00  0.00     0.033 H 
BRANCH 125 128
ATOM    128  CD  LYS d   1      61.741  39.996  93.184  0.00  0.00    -0.043 C 
ATOM    129  H90 LYS d   1      60.908  39.506  92.658  0.00  0.00     0.035 H 
ATOM    130  H91 LYS d   1      61.352  40.553  94.049  0.00  0.00     0.035 H 
BRANCH 128 131
ATOM    131  CE  LYS d   1      62.691  38.910  93.698  0.00  0.00     0.080 C 
ATOM    132  H92 LYS d   1      62.281  38.497  94.632  0.00  0.00     0.075 H 
ATOM    133  H93 LYS d   1      63.672  39.367  93.898  0.00  0.00     0.075 H 
BRANCH 131 134
ATOM    134  NZ  LYS d   1      62.869  37.826  92.751  0.00  0.00    -0.079 N 
ATOM    135  H94 LYS d   1      63.501  37.142  93.138  0.00  0.00     0.274 HD
ATOM    136  H95 LYS d   1      63.252  38.189  91.892  0.00  0.00     0.274 HD
ATOM    137  H96 LYS d   1      61.978  37.393  92.565  0.00  0.00     0.274 HD
ENDBRANCH 131 134
ENDBRANCH 128 131
ENDBRANCH 125 128
ENDBRANCH 122 125
ENDBRANCH 117 122
ENDBRANCH 115 117
ENDBRANCH 111 113
BRANCH 111 138
ATOM    138  CB  LYS d   1      55.982  42.182  89.305  0.00  0.00    -0.038 C 
ATOM    139  H72 LYS d   1      56.552  41.314  88.942  0.00  0.00     0.036 H 
ATOM    140  H73 LYS d   1      55.652  42.788  88.448  0.00  0.00     0.036 H 
BRANCH 138 141
ATOM    141  CG  LYS d   1      54.756  41.674  90.024  0.00  0.00    -0.061 C 
ATOM    142  H74 LYS d   1      54.075  42.511  90.236  0.00  0.00     0.033 H 
ATOM    143  H75 LYS d   1      55.051  41.193  90.968  0.00  0.00     0.033 H 
BRANCH 141 144
ATOM    144  CD  LYS d   1      54.058  40.654  89.118  0.00  0.00    -0.043 C 
ATOM    145  H76 LYS d   1      54.026  41.075  88.102  0.00  0.00     0.035 H 
ATOM    146  H77 LYS d   1      53.032  40.521  89.492  0.00  0.00     0.035 H 
BRANCH 144 147
ATOM    147  CE  LYS d   1      54.708  39.261  89.027  0.00  0.00     0.080 C 
ATOM    148  H78 LYS d   1      54.068  38.638  88.385  0.00  0.00     0.075 H 
ATOM    149  H79 LYS d   1      54.731  38.839  90.043  0.00  0.00     0.075 H 
BRANCH 147 150
ATOM    150  NZ  LYS d   1      56.069  39.195  88.490  0.00  0.00    -0.079 N 
ATOM    151  H80 LYS d   1      56.381  38.236  88.482  0.00  0.00     0.274 HD
ATOM    152  H81 LYS d   1      56.685  39.744  89.069  0.00  0.00     0.274 HD
ATOM    153  H82 LYS d   1      56.077  39.559  87.550  0.00  0.00     0.274 HD
ENDBRANCH 147 150
ENDBRANCH 144 147
ENDBRANCH 141 144
ENDBRANCH 138 141
ENDBRANCH 111 138
ENDBRANCH 109 111
ENDBRANCH 105 107
BRANCH 105 154
ATOM    154  CB  GLN d   1      57.111  47.299  90.492  0.00  0.00    -0.030 C 
ATOM    155  H64 GLN d   1      57.660  46.831  89.662  0.00  0.00     0.037 H 
ATOM    156  H65 GLN d   1      57.649  47.119  91.434  0.00  0.00     0.037 H 
BRANCH 154 157
ATOM    157  CG  GLN d   1      57.102  48.781  90.251  0.00  0.00     0.011 C 
ATOM    158  H66 GLN d   1      56.602  49.303  91.080  0.00  0.00     0.047 H 
ATOM    159  H67 GLN d   1      56.587  49.014  89.308  0.00  0.00     0.047 H 
BRANCH 157 160
ATOM    160  CD  GLN d   1      58.552  49.184  90.173  0.00  0.00     0.215 C 
ATOM    161  OE1 GLN d   1      59.096  49.301  89.092  0.00  0.00    -0.274 OA
ATOM    162  NE2 GLN d   1      59.278  49.316  91.277  0.00  0.00    -0.370 N 
ATOM    163  H68 GLN d   1      60.239  49.584  91.214  0.00  0.00     0.159 HD
ATOM    164  H69 GLN d   1      58.863  49.148  92.171  0.00  0.00     0.159 HD
ENDBRANCH 157 160
ENDBRANCH 154 157
ENDBRANCH 105 154
ENDBRANCH 103 105
ENDBRANCH  99 101
BRANCH  99 165
ATOM    165  CB  SER d   1      53.016  46.690  94.167  0.00  0.00     0.044 C 
ATOM    166  H59 SER d   1      52.830  47.329  95.043  0.00  0.00     0.077 H 
ATOM    167  H60 SER d   1      54.046  46.305  94.206  0.00  0.00     0.077 H 
BRANCH 165 168
ATOM    168  OG  SER d   1      52.114  45.569  94.227  0.00  0.00    -0.398 OA
ATOM    169  H61 SER d   1      52.263  45.087  95.032  0.00  0.00     0.209 HD
ENDBRANCH 165 168
ENDBRANCH  99 165
ENDBRANCH  97  99
ENDBRANCH  93  95
BRANCH  93 170
ATOM    170  CB  ASP d   1      49.317  48.415  90.362  0.00  0.00     0.043 C 
ATOM    171  H55 ASP d   1      50.216  48.603  89.756  0.00  0.00     0.052 H 
ATOM    172  H56 ASP d   1      48.457  48.934  89.914  0.00  0.00     0.052 H 
BRANCH 170 173
ATOM    173  CG  ASP d   1      49.033  46.926  90.320  0.00  0.00     0.175 C 
ATOM    174  OD1 ASP d   1      49.165  46.264  91.349  0.00  0.00    -0.648 OA
ATOM    175  OD2 ASP d   1      48.651  46.439  89.246  0.00  0.00    -0.648 OA
ENDBRANCH 170 173
ENDBRANCH  93 170
ENDBRANCH  91  93
ENDBRANCH   1  89
BRANCH   1 176
ATOM    176  CB  ILE d   1      48.221  53.196  93.245  0.00  0.00    -0.030 C 
ATOM    177  H44 ILE d   1      47.309  53.041  93.840  0.00  0.00     0.043 H 
BRANCH 176 178
ATOM    178  CG1 ILE d   1      48.407  54.689  92.975  0.00  0.00    -0.063 C 
ATOM    179  H45 ILE d   1      48.327  55.220  93.935  0.00  0.00     0.033 H 
ATOM    180  H46 ILE d   1      47.597  55.016  92.306  0.00  0.00     0.033 H 
BRANCH 178 181
ATOM    181  CD1 ILE d   1      49.760  55.085  92.320  0.00  0.00    -0.076 C 
ATOM    182  H50 ILE d   1      49.790  56.174  92.170  0.00  0.00     0.027 H 
ATOM    183  H51 ILE d   1      49.859  54.579  91.349  0.00  0.00     0.027 H 
ATOM    184  H52 ILE d   1      50.588  54.782  92.978  0.00  0.00     0.027 H 
ENDBRANCH 178 181
ENDBRANCH 176 178
BRANCH 176 185
ATOM    185  CG2 ILE d   1      49.390  52.678  94.039  0.00  0.00    -0.071 C 
ATOM    186  H47 ILE d   1      49.255  51.604  94.232  0.00  0.00     0.028 H 
ATOM    187  H48 ILE d   1      49.452  53.218  94.996  0.00  0.00     0.028 H 
ATOM    188  H49 ILE d   1      50.318  52.834  93.469  0.00  0.00     0.028 H 
ENDBRANCH 176 185
ENDBRANCH   1 176
TORSDOF 54
