REMARK  12 active torsions:
REMARK  status: ('A' for Active; 'I' for Inactive)
REMARK    1  A    between atoms: C2_2  and  N5_5 
REMARK       I    between atoms: N5_5  and  C10_10 
REMARK    2  A    between atoms: C10_10  and  C13_13 
REMARK       I    between atoms: N15_15  and  C17_17 
REMARK    3  A    between atoms: C17_17  and  C20_20 
REMARK    4  A    between atoms: C20_20  and  N22_22 
REMARK    5  A    between atoms: C20_20  and  C23_23 
REMARK       I    between atoms: N22_22  and  C24_24 
REMARK    6  A    between atoms: C23_23  and  C25_25 
REMARK    7  A    between atoms: C23_23  and  C26_26 
REMARK    8  A    between atoms: C23_23  and  C27_27 
REMARK    9  A    between atoms: C24_24  and  C28_28 
REMARK   10  A    between atoms: C28_28  and  N30_30 
REMARK   11  A    between atoms: C28_28  and  C31_31 
REMARK   12  A    between atoms: N30_30  and  CNM_32 
ROOT
ATOM      1  C13 998 d   1      -4.887 -11.886   5.609  0.00  0.00     0.091 C 
ATOM      2  N15 998 d   1      -5.997 -12.187   4.658  0.00  0.00    -0.337 N 
ATOM      3  C16 998 d   1      -5.486 -11.479   6.967  0.00  0.00    -0.036 C 
ATOM      4  C17 998 d   1      -5.934 -12.509   3.349  0.00  0.00     0.244 C 
ATOM      5  C18 998 d   1      -7.232 -12.052   5.430  0.00  0.00    -0.001 C 
ATOM      6  C19 998 d   1      -6.960 -11.218   6.670  0.00  0.00    -0.048 C 
ATOM      7  O21 998 d   1      -4.856 -12.627   2.748  0.00  0.00    -0.271 OA
ATOM      8  H13 998 d   1      -4.303 -11.043   5.211  0.00  0.00     0.087 H 
ATOM      9  H14 998 d   1      -5.000 -10.570   7.350  0.00  0.00     0.036 H 
ATOM     10  H15 998 d   1      -5.375 -12.291   7.700  0.00  0.00     0.036 H 
ATOM     11  H16 998 d   1      -7.590 -13.049   5.729  0.00  0.00     0.064 H 
ATOM     12  H17 998 d   1      -7.998 -11.557   4.815  0.00  0.00     0.064 H 
ATOM     13  H18 998 d   1      -7.137 -10.151   6.471  0.00  0.00     0.035 H 
ATOM     14  H19 998 d   1      -7.593 -11.544   7.508  0.00  0.00     0.035 H 
ENDROOT
BRANCH   1  15
ATOM     15  C10 998 d   1      -3.962 -13.068   5.779  0.00  0.00     0.241 C 
ATOM     16  N5  998 d   1      -2.654 -12.845   5.891  0.00  0.00    -0.351 N 
ATOM     17  H3  998 d   1      -2.318 -11.908   5.800  0.00  0.00     0.163 HD
ATOM     18  O14 998 d   1      -4.414 -14.216   5.830  0.00  0.00    -0.271 OA
BRANCH  16  19
ATOM     19  C2  998 d   1      -1.673 -13.930   6.146  0.00  0.00     0.038 C 
ATOM     20  C1  998 d   1      -0.273 -13.416   5.858  0.00  0.00    -0.029 A 
ATOM     21  C3  998 d   1       0.814 -13.650   6.726  0.00  0.00    -0.050 A 
ATOM     22  C4  998 d   1      -0.071 -12.676   4.672  0.00  0.00    -0.074 A 
ATOM     23  C7  998 d   1       0.668 -14.435   7.997  0.00  0.00    -0.040 C 
ATOM     24  C8  998 d   1       2.088 -13.144   6.410  0.00  0.00    -0.076 A 
ATOM     25  C11 998 d   1      -0.627 -15.238   8.097  0.00  0.00    -0.059 C 
ATOM     26  H6  998 d   1       0.703 -13.732   8.842  0.00  0.00     0.040 H 
ATOM     27  H7  998 d   1       1.513 -15.135   8.068  0.00  0.00     0.040 H 
ATOM     28  C6  998 d   1      -1.835 -14.430   7.611  0.00  0.00    -0.042 C 
ATOM     29  H10 998 d   1      -0.533 -16.144   7.480  0.00  0.00     0.033 H 
ATOM     30  H11 998 d   1      -0.789 -15.524   9.147  0.00  0.00     0.033 H 
ATOM     31  H4  998 d   1      -2.730 -15.066   7.669  0.00  0.00     0.036 H 
ATOM     32  H5  998 d   1      -1.962 -13.557   8.269  0.00  0.00     0.036 H 
ATOM     33  C12 998 d   1       2.282 -12.408   5.229  0.00  0.00    -0.082 A 
ATOM     34  H8  998 d   1       2.922 -13.322   7.079  0.00  0.00     0.084 H 
ATOM     35  C9  998 d   1       1.205 -12.174   4.363  0.00  0.00    -0.082 A 
ATOM     36  H12 998 d   1       3.265 -12.021   4.987  0.00  0.00     0.083 H 
ATOM     37  H9  998 d   1       1.357 -11.605   3.453  0.00  0.00     0.083 H 
ATOM     38  H2  998 d   1      -0.901 -12.495   3.999  0.00  0.00     0.084 H 
ATOM     39  H1  998 d   1      -1.881 -14.770   5.467  0.00  0.00     0.080 H 
ENDBRANCH  16  19
ENDBRANCH   1  15
BRANCH   4  40
ATOM     40  C20 998 d   1      -7.234 -12.705   2.583  0.00  0.00     0.096 C 
ATOM     41  H20 998 d   1      -8.023 -12.108   3.064  0.00  0.00     0.088 H 
BRANCH  40  42
ATOM     42  N22 998 d   1      -7.058 -12.241   1.192  0.00  0.00    -0.345 N 
ATOM     43  C24 998 d   1      -7.739 -11.182   0.743  0.00  0.00     0.248 C 
ATOM     44  O29 998 d   1      -8.526 -10.589   1.485  0.00  0.00    -0.271 OA
ATOM     45  H21 998 d   1      -6.426 -12.721   0.583  0.00  0.00     0.163 HD
BRANCH  43  46
ATOM     46  C28 998 d   1      -7.543 -10.707  -0.680  0.00  0.00     0.174 C 
ATOM     47  H31 998 d   1      -7.444 -11.580  -1.342  0.00  0.00     0.098 H 
BRANCH  46  48
ATOM     48  N30 998 d   1      -8.702  -9.911  -1.097  0.00  0.00    -0.067 N 
ATOM     49  H32 998 d   1      -8.399  -9.174  -1.714  0.00  0.00     0.277 HD
ATOM     50  H33 998 d   1      -9.143  -9.509  -0.285  0.00  0.00     0.277 HD
BRANCH  48  51
ATOM     51  CNM 998 d   1      -9.658 -10.771  -1.796  0.00  0.00     0.066 C 
ATOM     52  H37 998 d   1     -10.527 -10.174  -2.109  0.00  0.00     0.067 H 
ATOM     53  H38 998 d   1      -9.989 -11.575  -1.122  0.00  0.00     0.067 H 
ATOM     54  H39 998 d   1      -9.177 -11.210  -2.682  0.00  0.00     0.067 H 
ENDBRANCH  48  51
ENDBRANCH  46  48
BRANCH  46  55
ATOM     55  C31 998 d   1      -6.281  -9.857  -0.778  0.00  0.00    -0.041 C 
ATOM     56  H34 998 d   1      -5.412 -10.454  -0.465  0.00  0.00     0.030 H 
ATOM     57  H35 998 d   1      -6.378  -8.979  -0.122  0.00  0.00     0.030 H 
ATOM     58  H36 998 d   1      -6.143  -9.524  -1.817  0.00  0.00     0.030 H 
ENDBRANCH  46  55
ENDBRANCH  43  46
ENDBRANCH  40  42
BRANCH  40  59
ATOM     59  C23 998 d   1      -7.664 -14.194   2.587  0.00  0.00    -0.022 C 
BRANCH  59  60
ATOM     60  C25 998 d   1      -9.093 -14.287   3.116  0.00  0.00    -0.067 C 
ATOM     61  H22 998 d   1      -9.413 -15.339   3.125  0.00  0.00     0.028 H 
ATOM     62  H23 998 d   1      -9.763 -13.706   2.466  0.00  0.00     0.028 H 
ATOM     63  H24 998 d   1      -9.133 -13.883   4.138  0.00  0.00     0.028 H 
ENDBRANCH  59  60
BRANCH  59  64
ATOM     64  C26 998 d   1      -6.742 -15.008   3.495  0.00  0.00    -0.067 C 
ATOM     65  H25 998 d   1      -5.710 -14.946   3.120  0.00  0.00     0.028 H 
ATOM     66  H26 998 d   1      -7.067 -16.059   3.501  0.00  0.00     0.028 H 
ATOM     67  H27 998 d   1      -6.785 -14.605   4.518  0.00  0.00     0.028 H 
ENDBRANCH  59  64
BRANCH  59  68
ATOM     68  C27 998 d   1      -7.621 -14.766   1.172  0.00  0.00    -0.067 C 
ATOM     69  H28 998 d   1      -8.285 -14.180   0.519  0.00  0.00     0.028 H 
ATOM     70  H29 998 d   1      -7.956 -15.814   1.190  0.00  0.00     0.028 H 
ATOM     71  H30 998 d   1      -6.591 -14.717   0.788  0.00  0.00     0.028 H 
ENDBRANCH  59  68
ENDBRANCH  40  59
ENDBRANCH   4  40
TORSDOF 12
