REMARK  14 active torsions:
REMARK  status: ('A' for Active; 'I' for Inactive)
REMARK    1  A    between atoms: C2_2  and  N5_5 
REMARK       I    between atoms: N5_5  and  C10_10 
REMARK    2  A    between atoms: C10_10  and  C13_13 
REMARK       I    between atoms: N15_15  and  C17_17 
REMARK    3  A    between atoms: C17_17  and  C20_20 
REMARK    4  A    between atoms: C19_19  and  OQ2_33 
REMARK    5  A    between atoms: C20_20  and  N22_22 
REMARK    6  A    between atoms: C20_20  and  C23_23 
REMARK       I    between atoms: N22_22  and  C24_24 
REMARK    7  A    between atoms: C23_23  and  C25_25 
REMARK    8  A    between atoms: C23_23  and  C26_26 
REMARK    9  A    between atoms: C23_23  and  C27_27 
REMARK   10  A    between atoms: C24_24  and  C28_28 
REMARK   11  A    between atoms: C28_28  and  N30_30 
REMARK   12  A    between atoms: C28_28  and  C31_31 
REMARK   13  A    between atoms: N30_30  and  CNM_32 
REMARK   14  A    between atoms: OQ2_33  and  C_34 
ROOT
ATOM      1  C13 997 d   1      -5.392 -11.265   5.343  0.00  0.00     0.094 C 
ATOM      2  N15 997 d   1      -6.587 -11.460   4.475  0.00  0.00    -0.334 N 
ATOM      3  C16 997 d   1      -5.846 -10.746   6.715  0.00  0.00    -0.012 C 
ATOM      4  C17 997 d   1      -6.637 -11.832   3.178  0.00  0.00     0.244 C 
ATOM      5  C18 997 d   1      -7.747 -11.159   5.315  0.00  0.00     0.023 C 
ATOM      6  C19 997 d   1      -7.308 -10.359   6.527  0.00  0.00     0.063 C 
ATOM      7  O21 997 d   1      -5.612 -12.082   2.528  0.00  0.00    -0.271 OA
ATOM      8  H13 997 d   1      -4.740 -10.512   4.876  0.00  0.00     0.088 H 
ATOM      9  H14 997 d   1      -5.250  -9.871   7.014  0.00  0.00     0.040 H 
ATOM     10  H15 997 d   1      -5.750 -11.533   7.477  0.00  0.00     0.040 H 
ATOM     11  H16 997 d   1      -8.212 -12.099   5.646  0.00  0.00     0.068 H 
ATOM     12  H17 997 d   1      -8.476 -10.574   4.735  0.00  0.00     0.068 H 
ATOM     13  H18 997 d   1      -7.396  -9.281   6.325  0.00  0.00     0.086 H 
ENDROOT
BRANCH   1  14
ATOM     14  C10 997 d   1      -4.601 -12.542   5.505  0.00  0.00     0.241 C 
ATOM     15  N5  997 d   1      -3.325 -12.457   5.880  0.00  0.00    -0.351 N 
ATOM     16  H3  997 d   1      -2.934 -11.551   6.041  0.00  0.00     0.163 HD
ATOM     17  O14 997 d   1      -5.127 -13.639   5.295  0.00  0.00    -0.271 OA
BRANCH  15  18
ATOM     18  C2  997 d   1      -2.459 -13.647   6.069  0.00  0.00     0.038 C 
ATOM     19  C1  997 d   1      -1.015 -13.257   5.793  0.00  0.00    -0.029 A 
ATOM     20  C3  997 d   1       0.044 -13.596   6.660  0.00  0.00    -0.050 A 
ATOM     21  C4  997 d   1      -0.742 -12.525   4.616  0.00  0.00    -0.074 A 
ATOM     22  C7  997 d   1      -0.176 -14.372   7.922  0.00  0.00    -0.040 C 
ATOM     23  C8  997 d   1       1.360 -13.204   6.352  0.00  0.00    -0.076 A 
ATOM     24  C11 997 d   1      -1.523 -15.081   7.995  0.00  0.00    -0.059 C 
ATOM     25  H6  997 d   1      -0.106 -13.676   8.771  0.00  0.00     0.040 H 
ATOM     26  H7  997 d   1       0.617 -15.130   8.003  0.00  0.00     0.040 H 
ATOM     27  C6  997 d   1      -2.665 -14.184   7.517  0.00  0.00    -0.042 C 
ATOM     28  H10 997 d   1      -1.487 -15.979   7.361  0.00  0.00     0.033 H 
ATOM     29  H11 997 d   1      -1.714 -15.375   9.037  0.00  0.00     0.033 H 
ATOM     30  H4  997 d   1      -3.600 -14.763   7.545  0.00  0.00     0.036 H 
ATOM     31  H5  997 d   1      -2.745 -13.326   8.200  0.00  0.00     0.036 H 
ATOM     32  C12 997 d   1       1.622 -12.477   5.180  0.00  0.00    -0.082 A 
ATOM     33  H8  997 d   1       2.173 -13.464   7.021  0.00  0.00     0.084 H 
ATOM     34  C9  997 d   1       0.574 -12.137   4.315  0.00  0.00    -0.082 A 
ATOM     35  H12 997 d   1       2.637 -12.178   4.944  0.00  0.00     0.083 H 
ATOM     36  H9  997 d   1       0.779 -11.574   3.412  0.00  0.00     0.083 H 
ATOM     37  H2  997 d   1      -1.550 -12.262   3.943  0.00  0.00     0.084 H 
ATOM     38  H1  997 d   1      -2.754 -14.431   5.356  0.00  0.00     0.080 H 
ENDBRANCH  15  18
ENDBRANCH   1  14
BRANCH   4  39
ATOM     39  C20 997 d   1      -7.992 -11.933   2.489  0.00  0.00     0.096 C 
ATOM     40  H19 997 d   1      -8.678 -11.202   2.942  0.00  0.00     0.088 H 
BRANCH  39  41
ATOM     41  N22 997 d   1      -7.828 -11.622   1.053  0.00  0.00    -0.345 N 
ATOM     42  C24 997 d   1      -8.351 -10.503   0.540  0.00  0.00     0.248 C 
ATOM     43  O29 997 d   1      -8.964  -9.714   1.264  0.00  0.00    -0.271 OA
ATOM     44  H20 997 d   1      -7.323 -12.252   0.462  0.00  0.00     0.163 HD
BRANCH  42  45
ATOM     45  C28 997 d   1      -8.192 -10.203  -0.935  0.00  0.00     0.174 C 
ATOM     46  H30 997 d   1      -8.255 -11.143  -1.503  0.00  0.00     0.098 H 
BRANCH  45  47
ATOM     47  N30 997 d   1      -9.262  -9.302  -1.370  0.00  0.00    -0.067 N 
ATOM     48  H31 997 d   1      -8.867  -8.544  -1.905  0.00  0.00     0.277 HD
ATOM     49  H32 997 d   1      -9.738  -8.931  -0.563  0.00  0.00     0.277 HD
BRANCH  47  50
ATOM     50  CNM 997 d   1     -10.212 -10.041  -2.200  0.00  0.00     0.066 C 
ATOM     51  H36 997 d   1     -11.016  -9.365  -2.527  0.00  0.00     0.067 H 
ATOM     52  H37 997 d   1     -10.643 -10.868  -1.617  0.00  0.00     0.067 H 
ATOM     53  H38 997 d   1      -9.692 -10.446  -3.081  0.00  0.00     0.067 H 
ENDBRANCH  47  50
ENDBRANCH  45  47
BRANCH  45  54
ATOM     54  C31 997 d   1      -6.838  -9.552  -1.195  0.00  0.00    -0.041 C 
ATOM     55  H33 997 d   1      -6.036 -10.230  -0.868  0.00  0.00     0.030 H 
ATOM     56  H34 997 d   1      -6.771  -8.608  -0.634  0.00  0.00     0.030 H 
ATOM     57  H35 997 d   1      -6.730  -9.348  -2.271  0.00  0.00     0.030 H 
ENDBRANCH  45  54
ENDBRANCH  42  45
ENDBRANCH  39  41
BRANCH  39  58
ATOM     58  C23 997 d   1      -8.600 -13.355   2.647  0.00  0.00    -0.022 C 
BRANCH  58  59
ATOM     59  C25 997 d   1      -9.946 -13.231   3.359  0.00  0.00    -0.067 C 
ATOM     60  H21 997 d   1     -10.391 -14.230   3.479  0.00  0.00     0.028 H 
ATOM     61  H22 997 d   1     -10.620 -12.599   2.762  0.00  0.00     0.028 H 
ATOM     62  H23 997 d   1      -9.797 -12.775   4.349  0.00  0.00     0.028 H 
ENDBRANCH  58  59
BRANCH  58  63
ATOM     63  C26 997 d   1      -7.676 -14.240   3.485  0.00  0.00    -0.067 C 
ATOM     64  H24 997 d   1      -6.703 -14.336   2.981  0.00  0.00     0.028 H 
ATOM     65  H25 997 d   1      -8.128 -15.236   3.601  0.00  0.00     0.028 H 
ATOM     66  H26 997 d   1      -7.532 -13.785   4.476  0.00  0.00     0.028 H 
ENDBRANCH  58  63
BRANCH  58  67
ATOM     67  C27 997 d   1      -8.823 -14.002   1.282  0.00  0.00    -0.067 C 
ATOM     68  H27 997 d   1      -9.488 -13.366   0.679  0.00  0.00     0.028 H 
ATOM     69  H28 997 d   1      -9.285 -14.991   1.416  0.00  0.00     0.028 H 
ATOM     70  H29 997 d   1      -7.857 -14.115   0.768  0.00  0.00     0.028 H 
ENDBRANCH  58  67
ENDBRANCH  39  58
ENDBRANCH   4  39
BRANCH   6  71
ATOM     71  OQ2 997 d   1      -8.093 -10.679   7.691  0.00  0.00    -0.344 OA
BRANCH  71  72
ATOM     72  C   997 d   1      -8.617  -9.490   8.302  0.00  0.00     0.069 A 
ATOM     73  C5  997 d   1      -9.947  -9.465   8.742  0.00  0.00    -0.051 A 
ATOM     74  C14 997 d   1     -10.464  -8.313   9.346  0.00  0.00    -0.080 A 
ATOM     75  H39 997 d   1     -10.576 -10.338   8.614  0.00  0.00     0.087 H 
ATOM     76  C15 997 d   1      -9.654  -7.184   9.513  0.00  0.00    -0.083 A 
ATOM     77  H40 997 d   1     -11.493  -8.295   9.685  0.00  0.00     0.083 H 
ATOM     78  C21 997 d   1      -8.325  -7.207   9.075  0.00  0.00    -0.080 A 
ATOM     79  H41 997 d   1     -10.056  -6.293   9.981  0.00  0.00     0.083 H 
ATOM     80  C22 997 d   1      -7.806  -8.359   8.472  0.00  0.00    -0.051 A 
ATOM     81  H42 997 d   1      -7.697  -6.332   9.203  0.00  0.00     0.083 H 
ATOM     82  H43 997 d   1      -6.776  -8.377   8.136  0.00  0.00     0.087 H 
ENDBRANCH  71  72
ENDBRANCH   6  71
TORSDOF 14
