REMARK  12 active torsions:
REMARK  status: ('A' for Active; 'I' for Inactive)
REMARK    1  A    between atoms: O30_1  and  C31_2 
REMARK    2  A    between atoms: C29_8  and  O30_1 
REMARK    3  A    between atoms: C6_14  and  C26_5 
REMARK    4  A    between atoms: C1_9  and  C7_15 
REMARK    5  A    between atoms: C8_22  and  C2_10 
REMARK    6  A    between atoms: C5_13  and  S11_24 
REMARK    7  A    between atoms: C9_16  and  C8_22 
REMARK    8  A    between atoms: N16_19  and  C20_28 
REMARK    9  A    between atoms: S11_24  and  C14_27 
REMARK   10  A    between atoms: C20_28  and  C21_29 
REMARK   11  A    between atoms: C20_28  and  C22_30 
REMARK   12  A    between atoms: C20_28  and  C23_31 
ROOT
ATOM      1  C1  869 d   1      43.541  38.861  52.657  0.00  0.00    -0.035 A 
ATOM      2  C2  869 d   1      44.848  39.339  52.903  0.00  0.00     0.018 A 
ATOM      3  C3  869 d   1      45.064  40.268  53.931  0.00  0.00    -0.068 A 
ATOM      4  C4  869 d   1      44.012  40.730  54.733  0.00  0.00    -0.060 A 
ATOM      5  C5  869 d   1      42.686  40.275  54.529  0.00  0.00     0.070 A 
ATOM      6  C6  869 d   1      42.448  39.310  53.454  0.00  0.00     0.003 A 
ATOM      7  H8  869 d   1      46.068  40.637  54.109  0.00  0.00     0.085 H 
ATOM      8  H9  869 d   1      44.216  41.446  55.521  0.00  0.00     0.085 H 
ENDROOT
BRANCH   2   9
ATOM      9  C8  869 d   1      45.979  38.907  52.084  0.00  0.00     0.177 C 
ATOM     10  O10 869 d   1      45.848  39.119  50.862  0.00  0.00    -0.291 OA
BRANCH   9  11
ATOM     11  C9  869 d   1      46.941  37.797  52.570  0.00  0.00     0.108 A 
ATOM     12  C15 869 d   1      47.995  37.370  51.859  0.00  0.00     0.191 A 
ATOM     13  N16 869 d   1      48.690  36.626  52.761  0.00  0.00    -0.240 N 
ATOM     14  O19 869 d   1      48.204  37.452  50.477  0.00  0.00    -0.174 OA
ATOM     15  N17 869 d   1      47.975  36.654  54.026  0.00  0.00    -0.185 NA
ATOM     16  C18 869 d   1      46.859  37.405  53.881  0.00  0.00     0.021 A 
ATOM     17  H14 869 d   1      46.092  37.638  54.618  0.00  0.00     0.112 H 
ATOM     18  H13 869 d   1      46.290  36.990  52.203  0.00  0.00     0.074 H 
BRANCH  13  19
ATOM     19  C20 869 d   1      49.617  35.502  52.389  0.00  0.00     0.047 C 
BRANCH  19  20
ATOM     20  C21 869 d   1      48.805  34.305  51.902  0.00  0.00    -0.052 C 
ATOM     21  H18 869 d   1      49.487  33.485  51.631  0.00  0.00     0.030 H 
ATOM     22  H19 869 d   1      48.214  34.597  51.021  0.00  0.00     0.030 H 
ATOM     23  H20 869 d   1      48.129  33.970  52.703  0.00  0.00     0.030 H 
ENDBRANCH  19  20
BRANCH  19  24
ATOM     24  C22 869 d   1      50.558  35.940  51.287  0.00  0.00    -0.052 C 
ATOM     25  H21 869 d   1      51.229  35.108  51.026  0.00  0.00     0.030 H 
ATOM     26  H22 869 d   1      51.154  36.797  51.633  0.00  0.00     0.030 H 
ATOM     27  H23 869 d   1      49.975  36.232  50.401  0.00  0.00     0.030 H 
ENDBRANCH  19  24
BRANCH  19  28
ATOM     28  C23 869 d   1      50.509  35.072  53.578  0.00  0.00    -0.052 C 
ATOM     29  H24 869 d   1      51.169  34.251  53.263  0.00  0.00     0.030 H 
ATOM     30  H25 869 d   1      49.873  34.733  54.410  0.00  0.00     0.030 H 
ATOM     31  H26 869 d   1      51.119  35.926  53.907  0.00  0.00     0.030 H 
ENDBRANCH  19  28
ENDBRANCH  13  19
ENDBRANCH   9  11
ENDBRANCH   2   9
BRANCH   1  32
ATOM     32  C7  869 d   1      43.339  37.820  51.715  0.00  0.00    -0.049 C 
ATOM     33  H10 869 d   1      44.285  37.607  51.196  0.00  0.00     0.033 H 
ATOM     34  H11 869 d   1      42.580  38.131  50.982  0.00  0.00     0.033 H 
ATOM     35  H12 869 d   1      42.995  36.915  52.237  0.00  0.00     0.033 H 
ENDBRANCH   1  32
BRANCH   6  36
ATOM     36  C26 869 d   1      41.183  38.845  53.183  0.00  0.00    -0.024 A 
ATOM     37  C25 869 d   1      40.512  39.270  52.012  0.00  0.00    -0.070 A 
ATOM     38  C24 869 d   1      39.223  38.802  51.734  0.00  0.00    -0.050 A 
ATOM     39  H5  869 d   1      40.997  39.959  51.330  0.00  0.00     0.085 H 
ATOM     40  C29 869 d   1      38.605  37.924  52.609  0.00  0.00     0.068 A 
ATOM     41  H4  869 d   1      38.709  39.126  50.836  0.00  0.00     0.087 H 
ATOM     42  C28 869 d   1      39.272  37.503  53.771  0.00  0.00    -0.050 A 
ATOM     43  C27 869 d   1      40.561  37.964  54.051  0.00  0.00    -0.070 A 
ATOM     44  H7  869 d   1      38.784  36.817  54.454  0.00  0.00     0.087 H 
ATOM     45  H6  869 d   1      41.073  37.632  54.947  0.00  0.00     0.085 H 
BRANCH  40  46
ATOM     46  O30 869 d   1      37.299  37.472  52.340  0.00  0.00    -0.356 OA
BRANCH  46  47
ATOM     47  C31 869 d   1      37.349  36.157  51.769  0.00  0.00     0.010 C 
ATOM     48  H1  869 d   1      36.327  35.809  51.561  0.00  0.00     0.066 H 
ATOM     49  H2  869 d   1      37.834  35.468  52.476  0.00  0.00     0.066 H 
ATOM     50  H3  869 d   1      37.925  36.186  50.832  0.00  0.00     0.066 H 
ENDBRANCH  46  47
ENDBRANCH  40  46
ENDBRANCH   6  36
BRANCH   5  51
ATOM     51  S11 869 d   1      41.524  41.002  55.379  0.00  0.00     0.172 S 
ATOM     52  O13 869 d   1      40.619  41.587  54.520  0.00  0.00    -0.223 OA
ATOM     53  O12 869 d   1      42.067  42.032  56.111  0.00  0.00    -0.223 OA
BRANCH  51  54
ATOM     54  C14 869 d   1      40.699  39.978  56.490  0.00  0.00     0.020 C 
ATOM     55  H15 869 d   1      39.929  40.558  57.021  0.00  0.00     0.049 H 
ATOM     56  H16 869 d   1      41.417  39.571  57.217  0.00  0.00     0.049 H 
ATOM     57  H17 869 d   1      40.223  39.151  55.943  0.00  0.00     0.049 H 
ENDBRANCH  51  54
ENDBRANCH   5  51
TORSDOF 12
