REMARK  9 active torsions:
REMARK  status: ('A' for Active; 'I' for Inactive)
REMARK    1  A    between atoms: O1_1  and  C1_2 
REMARK    2  A    between atoms: C2_3  and  C3_4 
REMARK    3  A    between atoms: C3_4  and  C4_6 
REMARK    4  A    between atoms: C7_10  and  S1_13 
REMARK    5  A    between atoms: S1_13  and  C10_16 
REMARK    6  A    between atoms: N2_19  and  C12_20 
REMARK    7  A    between atoms: C12_20  and  C13_21 
REMARK    8  A    between atoms: C12_20  and  C14_22 
REMARK    9  A    between atoms: C12_20  and  C15_23 
ROOT
ATOM      1  C1  645 d   1      47.776  37.420  52.432  0.00  0.00     0.175 A 
ATOM      2  C2  645 d   1      46.715  37.827  52.885  0.00  0.00     0.085 A 
ATOM      3  C11 645 d   1      46.516  37.110  54.187  0.00  0.00     0.106 A 
ATOM      4  N1  645 d   1      47.628  36.288  54.414  0.00  0.00    -0.168 NA
ATOM      5  N2  645 d   1      48.412  36.488  53.296  0.00  0.00    -0.238 N 
ATOM      6  C16 645 d   1      45.615  36.934  55.206  0.00  0.00     0.017 A 
ATOM      7  C17 645 d   1      46.141  37.523  56.511  0.00  0.00     0.048 A 
ATOM      8 CL2  645 d   1      47.469  38.188  56.567  0.00  0.00    -0.083 Cl
ATOM      9  C18 645 d   1      45.134  37.310  57.632  0.00  0.00    -0.040 A 
ATOM     10  C19 645 d   1      43.903  36.669  57.479  0.00  0.00     0.035 A 
ATOM     11 CL3  645 d   1      43.171  36.573  58.494  0.00  0.00    -0.084 Cl
ATOM     12  C20 645 d   1      43.587  36.159  56.118  0.00  0.00    -0.061 A 
ATOM     13  C21 645 d   1      44.505  36.378  55.180  0.00  0.00    -0.067 A 
ATOM     14  H17 645 d   1      45.390  37.682  58.617  0.00  0.00     0.088 H 
ATOM     15  H18 645 d   1      42.661  35.638  55.902  0.00  0.00     0.086 H 
ATOM     16  H19 645 d   1      44.230  35.997  54.203  0.00  0.00     0.085 H 
ENDROOT
BRANCH   2  17
ATOM     17  C3  645 d   1      45.722  38.761  52.526  0.00  0.00     0.136 C 
ATOM     18  O2  645 d   1      46.137  39.365  51.119  0.00  0.00    -0.190 OA
BRANCH  17  19
ATOM     19  C4  645 d   1      44.917  39.202  53.327  0.00  0.00     0.023 A 
ATOM     20  C5  645 d   1      43.506  38.725  53.160  0.00  0.00     0.048 A 
ATOM     21 CL1  645 d   1      43.107  37.785  52.079  0.00  0.00    -0.083 Cl
ATOM     22  C6  645 d   1      42.523  39.219  54.029  0.00  0.00    -0.040 A 
ATOM     23  C7  645 d   1      42.781  40.201  55.078  0.00  0.00     0.060 A 
ATOM     24  H2  645 d   1      41.510  38.849  53.915  0.00  0.00     0.088 H 
ATOM     25  C8  645 d   1      44.108  40.628  55.229  0.00  0.00    -0.061 A 
ATOM     26  C9  645 d   1      45.124  40.154  54.398  0.00  0.00    -0.067 A 
ATOM     27  H3  645 d   1      44.350  41.342  56.008  0.00  0.00     0.085 H 
ATOM     28  H4  645 d   1      46.130  40.521  54.565  0.00  0.00     0.085 H 
BRANCH  23  29
ATOM     29  S1  645 d   1      41.643  40.974  55.950  0.00  0.00     0.171 S 
ATOM     30  O3  645 d   1      41.118  40.223  56.926  0.00  0.00    -0.223 OA
ATOM     31  O4  645 d   1      42.207  41.759  56.965  0.00  0.00    -0.223 OA
BRANCH  29  32
ATOM     32  C10 645 d   1      40.955  41.881  54.954  0.00  0.00     0.020 C 
ATOM     33  H5  645 d   1      40.162  42.449  55.462  0.00  0.00     0.049 H 
ATOM     34  H6  645 d   1      40.514  41.274  54.149  0.00  0.00     0.049 H 
ATOM     35  H7  645 d   1      41.689  42.580  54.526  0.00  0.00     0.049 H 
ENDBRANCH  29  32
ENDBRANCH  23  29
ENDBRANCH  17  19
ENDBRANCH   2  17
BRANCH   1  36
ATOM     36  O1  645 d   1      48.366  37.716  51.385  0.00  0.00    -0.344 OA
ATOM     37  H1  645 d   1      47.845  38.342  50.896  0.00  0.00     0.219 HD
ENDBRANCH   1  36
BRANCH   5  38
ATOM     38  C12 645 d   1      49.664  35.808  53.126  0.00  0.00     0.047 C 
BRANCH  38  39
ATOM     39  C13 645 d   1      49.090  34.364  52.730  0.00  0.00    -0.052 C 
ATOM     40  H8  645 d   1      49.927  33.673  52.553  0.00  0.00     0.030 H 
ATOM     41  H9  645 d   1      48.484  34.448  51.816  0.00  0.00     0.030 H 
ATOM     42  H10 645 d   1      48.465  33.980  53.550  0.00  0.00     0.030 H 
ENDBRANCH  38  39
BRANCH  38  43
ATOM     43  C14 645 d   1      50.612  36.113  51.952  0.00  0.00    -0.052 C 
ATOM     44  H11 645 d   1      51.505  35.475  52.026  0.00  0.00     0.030 H 
ATOM     45  H12 645 d   1      50.913  37.170  51.989  0.00  0.00     0.030 H 
ATOM     46  H13 645 d   1      50.096  35.912  51.002  0.00  0.00     0.030 H 
ENDBRANCH  38  43
BRANCH  38  47
ATOM     47  C15 645 d   1      50.384  35.634  54.413  0.00  0.00    -0.052 C 
ATOM     48  H14 645 d   1      51.334  35.110  54.233  0.00  0.00     0.030 H 
ATOM     49  H15 645 d   1      49.764  35.043  55.103  0.00  0.00     0.030 H 
ATOM     50  H16 645 d   1      50.587  36.620  54.856  0.00  0.00     0.030 H 
ENDBRANCH  38  47
ENDBRANCH   5  38
TORSDOF 9
