REMARK  11 active torsions:
REMARK  status: ('A' for Active; 'I' for Inactive)
REMARK    1  A    between atoms: CH2_1  and  CA_2 
REMARK    2  A    between atoms: CH2_1  and  CA_24 
REMARK    3  A    between atoms: CA_2  and  C_7 
REMARK       I    between atoms: C_7  and  N_9 
REMARK    4  A    between atoms: N_9  and  CA_10 
REMARK    5  A    between atoms: CA_10  and  C_11 
REMARK    6  A    between atoms: CA_10  and  CB_13 
REMARK    7  A    between atoms: CB_13  and  CG_14 
REMARK    8  A    between atoms: CA_24  and  CB1_25 
REMARK    9  A    between atoms: CA_24  and  CB2_33 
REMARK   10  A    between atoms: CB1_25  and  CG_26 
REMARK   11  A    between atoms: CG_26  and  CD_27 
ROOT
ATOM      1  CA  0DB d   1      36.769  41.879  -3.193  0.00  0.00     0.042 C 
ATOM      2  CB1 0DB d   1      36.841  43.422  -3.179  0.00  0.00    -0.050 C 
ATOM      3  CB2 0DB d   1      36.439  41.576  -1.715  0.00  0.00    -0.050 C 
ATOM      4  CG1 0DB d   1      37.403  43.807  -1.807  0.00  0.00    -0.064 C 
ATOM      5  CG2 0DB d   1      36.848  42.747  -0.827  0.00  0.00    -0.064 C 
ATOM      6  H3  0DB d   1      35.838  43.852  -3.315  0.00  0.00     0.034 H 
ATOM      7  H4  0DB d   1      37.506  43.781  -3.978  0.00  0.00     0.034 H 
ATOM      8  H5  0DB d   1      36.984  40.674  -1.399  0.00  0.00     0.034 H 
ATOM      9  H6  0DB d   1      35.357  41.405  -1.613  0.00  0.00     0.034 H 
ATOM     10  H7  0DB d   1      37.063  44.813  -1.520  0.00  0.00     0.033 H 
ATOM     11  H8  0DB d   1      38.503  43.781  -1.820  0.00  0.00     0.033 H 
ATOM     12  H9  0DB d   1      37.623  42.438  -0.110  0.00  0.00     0.033 H 
ATOM     13  H10 0DB d   1      35.979  43.142  -0.280  0.00  0.00     0.033 H 
ENDROOT
BRANCH   1  14
ATOM     14  CH2 0DB d   1      35.543  41.348  -3.995  0.00  0.00    -0.037 C 
ATOM     15  H1  0DB d   1      34.706  42.051  -3.875  0.00  0.00     0.036 H 
ATOM     16  H2  0DB d   1      35.255  40.364  -3.597  0.00  0.00     0.036 H 
BRANCH  14  17
ATOM     17  CA  0DB d   1      35.866  41.206  -5.497  0.00  0.00     0.032 C 
ATOM     18  H21 0DB d   1      36.776  40.604  -5.635  0.00  0.00     0.056 H 
BRANCH  17  19
ATOM     19  CB1 0DB d   1      34.653  40.561  -6.164  0.00  0.00    -0.049 C 
ATOM     20  H22 0DB d   1      34.246  41.255  -6.914  0.00  0.00     0.034 H 
ATOM     21  H23 0DB d   1      33.889  40.359  -5.399  0.00  0.00     0.034 H 
BRANCH  19  22
ATOM     22  CG  0DB d   1      35.012  39.303  -6.823  0.00  0.00    -0.040 C 
ATOM     23  H24 0DB d   1      35.460  38.632  -6.076  0.00  0.00     0.040 H 
ATOM     24  H25 0DB d   1      35.748  39.518  -7.611  0.00  0.00     0.040 H 
BRANCH  22  25
ATOM     25  CD  0DB d   1      33.840  38.610  -7.443  0.00  0.00    -0.058 C 
ATOM     26  CE1 0DB d   1      33.691  38.709  -8.821  0.00  0.00    -0.077 C 
ATOM     27  CZ1 0DB d   1      32.685  38.030  -9.488  0.00  0.00    -0.082 C 
ATOM     28  H26 0DB d   1      34.376  39.331  -9.386  0.00  0.00     0.084 H 
ATOM     29  CH  0DB d   1      31.921  37.079  -8.767  0.00  0.00    -0.083 C 
ATOM     30  H28 0DB d   1      32.487  38.221 -10.536  0.00  0.00     0.083 H 
ATOM     31  CZ2 0DB d   1      32.053  36.976  -7.392  0.00  0.00    -0.082 C 
ATOM     32  H30 0DB d   1      31.231  36.430  -9.293  0.00  0.00     0.083 H 
ATOM     33  CE2 0DB d   1      33.035  37.713  -6.733  0.00  0.00    -0.077 C 
ATOM     34  H29 0DB d   1      31.394  36.324  -6.830  0.00  0.00     0.083 H 
ATOM     35  H27 0DB d   1      33.176  37.591  -5.665  0.00  0.00     0.084 H 
ENDBRANCH  22  25
ENDBRANCH  19  22
ENDBRANCH  17  19
BRANCH  17  36
ATOM     36  CB2 0DB d   1      35.998  42.527  -6.173  0.00  0.00     0.177 C 
ATOM     37  OG1 0DB d   1      35.042  43.317  -6.085  0.00  0.00    -0.648 OA
ATOM     38  OG2 0DB d   1      36.985  42.865  -6.859  0.00  0.00    -0.648 OA
ENDBRANCH  17  36
ENDBRANCH  14  17
ENDBRANCH   1  14
BRANCH   1  39
ATOM     39  C   0DB d   1      38.099  41.213  -3.573  0.00  0.00     0.227 C 
ATOM     40  O   0DB d   1      39.155  41.849  -3.742  0.00  0.00    -0.273 OA
ATOM     41  N   0DB d   1      38.068  39.901  -3.669  0.00  0.00    -0.346 N 
ATOM     42  H11 0DB d   1      37.209  39.421  -3.489  0.00  0.00     0.163 HD
BRANCH  41  43
ATOM     43  CA  0DB d   1      39.244  39.131  -4.028  0.00  0.00     0.100 C 
ATOM     44  H12 0DB d   1      39.919  39.836  -4.535  0.00  0.00     0.090 H 
BRANCH  43  45
ATOM     45  C   0DB d   1      38.969  38.044  -5.041  0.00  0.00     0.197 C 
ATOM     46  O   0DB d   1      37.766  37.752  -5.297  0.00  0.00    -0.646 OA
ATOM     47  OXT 0DB d   1      39.973  37.478  -5.577  0.00  0.00    -0.646 OA
ENDBRANCH  43  45
BRANCH  43  48
ATOM     48  CB  0DB d   1      40.012  38.645  -2.781  0.00  0.00    -0.011 C 
ATOM     49  H13 0DB d   1      40.243  39.512  -2.145  0.00  0.00     0.044 H 
ATOM     50  H14 0DB d   1      40.949  38.167  -3.104  0.00  0.00     0.044 H 
BRANCH  48  51
ATOM     51  CG  0DB d   1      39.222  37.667  -1.991  0.00  0.00    -0.028 A 
ATOM     52  CD1 0DB d   1      38.173  37.949  -1.182  0.00  0.00    -0.015 A 
ATOM     53  NE1 0DB d   1      37.639  36.779  -0.711  0.00  0.00    -0.365 N 
ATOM     54  H15 0DB d   1      37.811  38.948  -0.944  0.00  0.00     0.112 H 
ATOM     55  CE2 0DB d   1      38.253  35.733  -1.333  0.00  0.00     0.042 A 
ATOM     56  H16 0DB d   1      36.895  36.702  -0.003  0.00  0.00     0.165 HD
ATOM     57  CD2 0DB d   1      39.252  36.264  -2.161  0.00  0.00    -0.002 A 
ATOM     58  CZ2 0DB d   1      38.025  34.352  -1.275  0.00  0.00    -0.056 A 
ATOM     59  CE3 0DB d   1      39.957  35.410  -3.013  0.00  0.00    -0.070 A 
ATOM     60  CZ3 0DB d   1      39.714  34.057  -2.977  0.00  0.00    -0.082 A 
ATOM     61  H17 0DB d   1      40.693  35.812  -3.700  0.00  0.00     0.084 H 
ATOM     62  CH2 0DB d   1      38.755  33.530  -2.110  0.00  0.00    -0.081 A 
ATOM     63  H19 0DB d   1      40.272  33.394  -3.628  0.00  0.00     0.083 H 
ATOM     64  H20 0DB d   1      38.581  32.460  -2.092  0.00  0.00     0.083 H 
ATOM     65  H18 0DB d   1      37.293  33.939  -0.591  0.00  0.00     0.086 H 
ENDBRANCH  48  51
ENDBRANCH  43  48
ENDBRANCH  41  43
ENDBRANCH   1  39
TORSDOF 11
