REMARK WARNING: 32 MAX_TORS EXCEEDED!!!
REMARK  60 active torsions:
REMARK  status: ('A' for Active; 'I' for Inactive)
REMARK    1  A    between atoms: N_1  and  CA_2 
REMARK    2  A    between atoms: CA_2  and  C_3 
REMARK    3  A    between atoms: CA_2  and  CB_5 
REMARK       I    between atoms: C_3  and  N_7 
REMARK    4  A    between atoms: CB_5  and  OG_6 
REMARK    5  A    between atoms: N_7  and  CA_8 
REMARK    6  A    between atoms: CA_8  and  C_9 
REMARK    7  A    between atoms: CA_8  and  CB_11 
REMARK       I    between atoms: C_9  and  N_15 
REMARK    8  A    between atoms: CB_11  and  CG_12 
REMARK    9  A    between atoms: N_15  and  CA_16 
REMARK   10  A    between atoms: CA_16  and  C_17 
REMARK   11  A    between atoms: CA_16  and  CB_19 
REMARK       I    between atoms: C_17  and  N_26 
REMARK   12  A    between atoms: CB_19  and  CG_20 
REMARK   13  A    between atoms: N_26  and  CA_27 
REMARK   14  A    between atoms: CA_27  and  C_28 
REMARK   15  A    between atoms: CA_27  and  CB_30 
REMARK       I    between atoms: C_28  and  N_35 
REMARK   16  A    between atoms: CB_30  and  CG_31 
REMARK   17  A    between atoms: CG_31  and  CD_32 
REMARK   18  A    between atoms: N_35  and  CA_36 
REMARK   19  A    between atoms: CA_36  and  C_37 
REMARK   20  A    between atoms: CA_36  and  CB_39 
REMARK       I    between atoms: C_37  and  N_44 
REMARK   21  A    between atoms: CB_39  and  CG_40 
REMARK   22  A    between atoms: CG_40  and  CD_41 
REMARK   23  A    between atoms: N_44  and  CA_45 
REMARK   24  A    between atoms: CA_45  and  C_46 
REMARK   25  A    between atoms: CA_45  and  CB_48 
REMARK       I    between atoms: C_46  and  N_55 
REMARK   26  A    between atoms: CB_48  and  CG_49 
REMARK   27  A    between atoms: N_55  and  CA_56 
REMARK   28  A    between atoms: CA_56  and  C_57 
REMARK   29  A    between atoms: CA_56  and  CB_59 
REMARK       I    between atoms: C_57  and  N_61 
REMARK   30  A    between atoms: CB_59  and  OG_60 
REMARK   31  A    between atoms: N_61  and  CA_62 
REMARK   32  A    between atoms: CA_62  and  C_63 
REMARK   33  A    between atoms: CA_62  and  CB_65 
REMARK       I    between atoms: C_63  and  N_69 
REMARK   34  A    between atoms: CB_65  and  CG_66 
REMARK   35  A    between atoms: CG_66  and  CD1_67 
REMARK   36  A    between atoms: CG_66  and  CD2_68 
REMARK   37  A    between atoms: N_69  and  CA_70 
REMARK   38  A    between atoms: CA_70  and  C_71 
REMARK   39  A    between atoms: CA_70  and  CB_73 
REMARK       I    between atoms: C_71  and  N_77 
REMARK   40  A    between atoms: CB_73  and  CG_74 
REMARK   41  A    between atoms: N_77  and  CA_78 
REMARK   42  A    between atoms: CA_78  and  C_79 
REMARK   43  A    between atoms: CA_78  and  CB_81 
REMARK       I    between atoms: C_79  and  N_85 
REMARK   44  A    between atoms: CB_81  and  CG_82 
REMARK   45  A    between atoms: N_85  and  CA_86 
REMARK   46  A    between atoms: CA_86  and  C_87 
REMARK   47  A    between atoms: CA_86  and  CB_89 
REMARK       I    between atoms: C_87  and  N_93 
REMARK   48  A    between atoms: CB_89  and  CG1_90 
REMARK   49  A    between atoms: CB_89  and  CG2_91 
REMARK   50  A    between atoms: CG1_90  and  CD1_92 
REMARK   51  A    between atoms: N_93  and  CA_94 
REMARK   52  A    between atoms: CA_94  and  C_95 
REMARK   53  A    between atoms: CA_94  and  CB_97 
REMARK       I    between atoms: C_95  and  N_102 
REMARK   54  A    between atoms: CB_97  and  CG_98 
REMARK   55  A    between atoms: CG_98  and  CD_99 
REMARK   56  A    between atoms: N_102  and  CA_103 
REMARK   57  A    between atoms: CA_103  and  C_104 
REMARK   58  A    between atoms: CA_103  and  CB_106 
REMARK   59  A    between atoms: CB_106  and  CG_107 
REMARK   60  A    between atoms: CG_107  and  CD_108 
REMARK       I    between atoms: CD_108  and  NE2_110 
ROOT
ATOM      1  CA  SER d   1      12.221  -0.181  -7.048  0.00  0.00     0.109 C 
ATOM      2  H43 SER d   1      12.596  -1.160  -7.381  0.00  0.00     0.090 H 
ENDROOT
BRANCH   1   3
ATOM      3  N   SER d   1      11.132  -0.434  -6.099  0.00  0.00    -0.344 N 
ATOM      4  C   PHE d   1      11.032  -1.593  -5.475  0.00  0.00     0.241 C 
ATOM      5  O   PHE d   1      11.730  -2.620  -5.543  0.00  0.00    -0.271 OA
ATOM      6  H42 SER d   1      10.456   0.281  -5.922  0.00  0.00     0.163 HD
BRANCH   4   7
ATOM      7  CA  PHE d   1       9.798  -1.640  -4.551  0.00  0.00     0.093 C 
ATOM      8  H34 PHE d   1       8.929  -1.201  -5.063  0.00  0.00     0.088 H 
BRANCH   7   9
ATOM      9  N   PHE d   1       9.582  -3.086  -4.427  0.00  0.00    -0.346 N 
ATOM     10  C   GLU d   1       8.370  -3.630  -4.544  0.00  0.00     0.241 C 
ATOM     11  O   GLU d   1       7.336  -2.963  -4.749  0.00  0.00    -0.271 OA
ATOM     12  H33 PHE d   1      10.366  -3.681  -4.250  0.00  0.00     0.163 HD
BRANCH  10  13
ATOM     13  CA  GLU d   1       8.446  -5.158  -4.419  0.00  0.00     0.090 C 
ATOM     14  H28 GLU d   1       9.287  -5.394  -3.750  0.00  0.00     0.087 H 
BRANCH  13  15
ATOM     15  N   GLU d   1       7.265  -5.795  -3.837  0.00  0.00    -0.346 N 
ATOM     16  C   GLU d   1       6.923  -5.692  -2.563  0.00  0.00     0.241 C 
ATOM     17  O   GLU d   1       7.595  -5.021  -1.748  0.00  0.00    -0.271 OA
ATOM     18  H27 GLU d   1       6.681  -6.341  -4.438  0.00  0.00     0.163 HD
BRANCH  16  19
ATOM     19  CA  GLU d   1       5.679  -6.443  -2.079  0.00  0.00     0.090 C 
ATOM     20  H22 GLU d   1       5.402  -7.218  -2.809  0.00  0.00     0.087 H 
BRANCH  19  21
ATOM     21  N   GLU d   1       6.039  -7.078  -0.802  0.00  0.00    -0.346 N 
ATOM     22  C   PHE d   1       6.702  -8.214  -0.713  0.00  0.00     0.241 C 
ATOM     23  O   PHE d   1       7.117  -8.896  -1.661  0.00  0.00    -0.271 OA
ATOM     24  H21 GLU d   1       5.766  -6.623   0.045  0.00  0.00     0.163 HD
BRANCH  22  25
ATOM     25  CA  PHE d   1       7.023  -8.651   0.710  0.00  0.00     0.093 C 
ATOM     26  H13 PHE d   1       6.402  -8.043   1.384  0.00  0.00     0.088 H 
BRANCH  25  27
ATOM     27  N   PHE d   1       6.693 -10.038   0.956  0.00  0.00    -0.346 N 
ATOM     28  C   ASP d   1       5.528 -10.627   0.949  0.00  0.00     0.241 C 
ATOM     29  O   ASP d   1       4.536  -9.992   0.601  0.00  0.00    -0.271 OA
ATOM     30  H12 PHE d   1       7.471 -10.632   1.161  0.00  0.00     0.163 HD
BRANCH  28  31
ATOM     31  CA  ASP d   1       5.567 -12.120   1.283  0.00  0.00     0.098 C 
ATOM     32  H9  ASP d   1       4.542 -12.513   1.352  0.00  0.00     0.088 H 
BRANCH  31  33
ATOM     33  N   ASP d   1       6.345 -12.668   0.117  0.00  0.00    -0.345 N 
ATOM     34  C   SER d   1       7.599 -12.254   0.074  0.00  0.00     0.251 C 
ATOM     35  O   SER d   1       8.180 -11.474   0.857  0.00  0.00    -0.271 OA
ATOM     36  H8  ASP d   1       5.950 -13.287  -0.561  0.00  0.00     0.163 HD
BRANCH  34  37
ATOM     37  CA  SER d   1       8.467 -12.719  -1.098  0.00  0.00     0.195 C 
ATOM     38  H4  SER d   1       7.848 -13.140  -1.905  0.00  0.00     0.102 H 
BRANCH  37  39
ATOM     39  N   SER d   1       9.184 -11.509  -1.576  0.00  0.00    -0.064 N 
ATOM     40  H1  SER d   1       9.776 -11.755  -2.354  0.00  0.00     0.275 HD
ATOM     41  H2  SER d   1       9.748 -11.136  -0.829  0.00  0.00     0.275 HD
ATOM     42  H3  SER d   1       8.514 -10.816  -1.870  0.00  0.00     0.275 HD
ENDBRANCH  37  39
BRANCH  37  43
ATOM     43  CB  SER d   1       9.432 -13.775  -0.583  0.00  0.00     0.051 C 
ATOM     44  H5  SER d   1      10.396 -13.671  -1.103  0.00  0.00     0.077 H 
ATOM     45  H6  SER d   1       9.015 -14.774  -0.779  0.00  0.00     0.077 H 
BRANCH  43  46
ATOM     46  OG  SER d   1       9.634 -13.616   0.817  0.00  0.00    -0.398 OA
ATOM     47  H7  SER d   1       9.995 -12.754   0.988  0.00  0.00     0.209 HD
ENDBRANCH  43  46
ENDBRANCH  37  43
ENDBRANCH  34  37
ENDBRANCH  31  33
BRANCH  31  48
ATOM     48  CB  ASP d   1       6.385 -12.612   2.468  0.00  0.00     0.043 C 
ATOM     49  H10 ASP d   1       7.360 -12.106   2.416  0.00  0.00     0.052 H 
ATOM     50  H11 ASP d   1       6.526 -13.694   2.332  0.00  0.00     0.052 H 
BRANCH  48  51
ATOM     51  CG  ASP d   1       5.856 -12.408   3.881  0.00  0.00     0.175 C 
ATOM     52  OD1 ASP d   1       4.607 -12.311   3.972  0.00  0.00    -0.648 OA
ATOM     53  OD2 ASP d   1       6.647 -12.368   4.872  0.00  0.00    -0.648 OA
ENDBRANCH  48  51
ENDBRANCH  31  48
ENDBRANCH  28  31
ENDBRANCH  25  27
BRANCH  25  54
ATOM     54  CB  PHE d   1       8.493  -8.377   1.060  0.00  0.00    -0.014 C 
ATOM     55  H14 PHE d   1       8.805  -7.411   0.636  0.00  0.00     0.043 H 
ATOM     56  H15 PHE d   1       9.130  -9.178   0.656  0.00  0.00     0.043 H 
BRANCH  54  57
ATOM     57  CG  PHE d   1       8.607  -8.339   2.552  0.00  0.00    -0.056 A 
ATOM     58  CD1 PHE d   1       8.414  -7.136   3.234  0.00  0.00    -0.077 A 
ATOM     59  CE1 PHE d   1       8.485  -7.117   4.636  0.00  0.00    -0.082 A 
ATOM     60  H16 PHE d   1       8.211  -6.224   2.685  0.00  0.00     0.084 H 
ATOM     61  CZ  PHE d   1       8.715  -8.323   5.317  0.00  0.00    -0.083 A 
ATOM     62  H18 PHE d   1       8.364  -6.189   5.183  0.00  0.00     0.083 H 
ATOM     63  CE2 PHE d   1       8.910  -9.519   4.626  0.00  0.00    -0.082 A 
ATOM     64  H20 PHE d   1       8.742  -8.325   6.401  0.00  0.00     0.083 H 
ATOM     65  CD2 PHE d   1       8.859  -9.529   3.242  0.00  0.00    -0.077 A 
ATOM     66  H19 PHE d   1       9.101 -10.437   5.170  0.00  0.00     0.083 H 
ATOM     67  H17 PHE d   1       9.013 -10.453   2.697  0.00  0.00     0.084 H 
ENDBRANCH  54  57
ENDBRANCH  25  54
ENDBRANCH  22  25
ENDBRANCH  19  21
BRANCH  19  68
ATOM     68  CB  GLU d   1       4.514  -5.479  -1.921  0.00  0.00    -0.029 C 
ATOM     69  H23 GLU d   1       4.691  -4.884  -1.013  0.00  0.00     0.037 H 
ATOM     70  H24 GLU d   1       3.599  -6.076  -1.796  0.00  0.00     0.037 H 
BRANCH  68  71
ATOM     71  CG  GLU d   1       4.286  -4.517  -3.067  0.00  0.00     0.018 C 
ATOM     72  H25 GLU d   1       4.057  -5.125  -3.954  0.00  0.00     0.049 H 
ATOM     73  H26 GLU d   1       5.232  -3.979  -3.226  0.00  0.00     0.049 H 
BRANCH  71  74
ATOM     74  CD  GLU d   1       3.209  -3.482  -2.958  0.00  0.00     0.172 C 
ATOM     75  OE1 GLU d   1       2.401  -3.347  -2.056  0.00  0.00    -0.648 OA
ATOM     76  OE2 GLU d   1       3.196  -2.693  -3.934  0.00  0.00    -0.648 OA
ENDBRANCH  71  74
ENDBRANCH  68  71
ENDBRANCH  19  68
ENDBRANCH  16  19
ENDBRANCH  13  15
BRANCH  13  77
ATOM     77  CB  GLU d   1       8.783  -5.696  -5.809  0.00  0.00    -0.029 C 
ATOM     78  H29 GLU d   1       8.580  -6.777  -5.797  0.00  0.00     0.037 H 
ATOM     79  H30 GLU d   1       9.858  -5.527  -5.971  0.00  0.00     0.037 H 
BRANCH  77  80
ATOM     80  CG  GLU d   1       8.050  -5.114  -7.012  0.00  0.00     0.018 C 
ATOM     81  H31 GLU d   1       8.080  -4.018  -6.928  0.00  0.00     0.049 H 
ATOM     82  H32 GLU d   1       7.006  -5.457  -6.970  0.00  0.00     0.049 H 
BRANCH  80  83
ATOM     83  CD  GLU d   1       8.606  -5.490  -8.354  0.00  0.00     0.172 C 
ATOM     84  OE1 GLU d   1       9.670  -6.063  -8.516  0.00  0.00    -0.648 OA
ATOM     85  OE2 GLU d   1       7.853  -5.147  -9.291  0.00  0.00    -0.648 OA
ENDBRANCH  80  83
ENDBRANCH  77  80
ENDBRANCH  13  77
ENDBRANCH  10  13
ENDBRANCH   7   9
BRANCH   7  86
ATOM     86  CB  PHE d   1      10.012  -0.828  -3.291  0.00  0.00    -0.014 C 
ATOM     87  H35 PHE d   1       9.077  -0.821  -2.712  0.00  0.00     0.043 H 
ATOM     88  H36 PHE d   1      10.276   0.202  -3.575  0.00  0.00     0.043 H 
BRANCH  86  89
ATOM     89  CG  PHE d   1      11.112  -1.389  -2.426  0.00  0.00    -0.056 A 
ATOM     90  CD1 PHE d   1      10.781  -2.357  -1.468  0.00  0.00    -0.077 A 
ATOM     91  CE1 PHE d   1      11.771  -2.882  -0.653  0.00  0.00    -0.082 A 
ATOM     92  H37 PHE d   1       9.756  -2.693  -1.365  0.00  0.00     0.084 H 
ATOM     93  CZ  PHE d   1      13.100  -2.497  -0.817  0.00  0.00    -0.083 A 
ATOM     94  H39 PHE d   1      11.510  -3.598   0.118  0.00  0.00     0.083 H 
ATOM     95  CE2 PHE d   1      13.440  -1.523  -1.788  0.00  0.00    -0.082 A 
ATOM     96  H41 PHE d   1      13.873  -2.942  -0.202  0.00  0.00     0.083 H 
ATOM     97  CD2 PHE d   1      12.431  -0.960  -2.592  0.00  0.00    -0.077 A 
ATOM     98  H40 PHE d   1      14.471  -1.213  -1.911  0.00  0.00     0.083 H 
ATOM     99  H38 PHE d   1      12.674  -0.204  -3.330  0.00  0.00     0.084 H 
ENDBRANCH  86  89
ENDBRANCH   7  86
ENDBRANCH   4   7
ENDBRANCH   1   3
BRANCH   1 100
ATOM    100  C   SER d   1      13.370   0.504  -6.320  0.00  0.00     0.243 C 
ATOM    101  O   SER d   1      13.308   1.131  -5.247  0.00  0.00    -0.271 OA
ATOM    102  N   LEU d   1      14.489   0.338  -6.992  0.00  0.00    -0.346 N 
ATOM    103  H47 LEU d   1      14.486  -0.179  -7.848  0.00  0.00     0.163 HD
BRANCH 102 104
ATOM    104  CA  LEU d   1      15.750   0.916  -6.481  0.00  0.00     0.089 C 
ATOM    105  H48 LEU d   1      15.802   0.782  -5.390  0.00  0.00     0.087 H 
BRANCH 104 106
ATOM    106  C   LEU d   1      15.657   2.414  -6.741  0.00  0.00     0.241 C 
ATOM    107  O   LEU d   1      16.620   3.157  -6.489  0.00  0.00    -0.271 OA
ATOM    108  N   ASP d   1      14.496   2.787  -7.260  0.00  0.00    -0.346 N 
ATOM    109  H58 ASP d   1      13.803   2.091  -7.450  0.00  0.00     0.163 HD
BRANCH 108 110
ATOM    110  CA  ASP d   1      14.197   4.195  -7.564  0.00  0.00     0.098 C 
ATOM    111  H59 ASP d   1      15.152   4.740  -7.557  0.00  0.00     0.088 H 
BRANCH 110 112
ATOM    112  C   ASP d   1      13.334   4.773  -6.441  0.00  0.00     0.241 C 
ATOM    113  O   ASP d   1      12.998   5.961  -6.446  0.00  0.00    -0.271 OA
ATOM    114  N   ASP d   1      12.976   3.936  -5.508  0.00  0.00    -0.345 N 
ATOM    115  H62 ASP d   1      13.288   2.991  -5.607  0.00  0.00     0.163 HD
BRANCH 114 116
ATOM    116  CA  ASP d   1      12.161   4.242  -4.326  0.00  0.00     0.098 C 
ATOM    117  H63 ASP d   1      11.530   5.123  -4.513  0.00  0.00     0.088 H 
BRANCH 116 118
ATOM    118  C   ASP d   1      13.053   4.511  -3.108  0.00  0.00     0.241 C 
ATOM    119  O   ASP d   1      12.589   4.993  -2.059  0.00  0.00    -0.271 OA
ATOM    120  N   ILE d   1      14.306   4.144  -3.328  0.00  0.00    -0.346 N 
ATOM    121  H66 ILE d   1      14.521   3.807  -4.245  0.00  0.00     0.163 HD
BRANCH 120 122
ATOM    122  CA  ILE d   1      15.412   4.182  -2.363  0.00  0.00     0.092 C 
ATOM    123  H67 ILE d   1      14.984   3.876  -1.397  0.00  0.00     0.088 H 
BRANCH 122 124
ATOM    124  C   ILE d   1      15.945   5.576  -2.106  0.00  0.00     0.241 C 
ATOM    125  O   ILE d   1      15.374   6.503  -2.705  0.00  0.00    -0.271 OA
ATOM    126  N   GLU d   1      16.900   5.701  -1.210  0.00  0.00    -0.346 N 
ATOM    127  H77 GLU d   1      17.242   4.843  -0.827  0.00  0.00     0.163 HD
BRANCH 126 128
ATOM    128  CA  GLU d   1      17.533   6.913  -0.694  0.00  0.00     0.090 C 
ATOM    129  H78 GLU d   1      17.919   6.658   0.304  0.00  0.00     0.087 H 
BRANCH 128 130
ATOM    130  C   GLU d   1      16.511   8.040  -0.537  0.00  0.00     0.241 C 
ATOM    131  O   GLU d   1      16.523   8.977  -1.367  0.00  0.00    -0.271 OA
ATOM    132  N   GLN d   1      15.676   7.949   0.472  0.00  0.00    -0.345 N 
ATOM    133  H83 GLN d   1      15.778   7.164   1.083  0.00  0.00     0.163 HD
BRANCH 132 134
ATOM    134  CA  GLN d   1      14.604   8.906   0.778  0.00  0.00     0.096 C 
ATOM    135  H84 GLN d   1      14.417   8.828   1.859  0.00  0.00     0.089 H 
BRANCH 134 136
ATOM    136  C   GLN d   1      13.307   8.519   0.038  0.00  0.00     0.196 C 
ATOM    137  O   GLN d   1      12.429   9.411  -0.154  0.00  0.00    -0.646 OA
ATOM    138  OXT GLN d   1      13.150   7.336  -0.339  0.00  0.00    -0.646 OA
ENDBRANCH 134 136
BRANCH 134 139
ATOM    139  CB  GLN d   1      14.899  10.384   0.483  0.00  0.00    -0.029 C 
ATOM    140  H85 GLN d   1      14.276  10.714  -0.361  0.00  0.00     0.037 H 
ATOM    141  H86 GLN d   1      15.961  10.493   0.220  0.00  0.00     0.037 H 
BRANCH 139 142
ATOM    142  CG  GLN d   1      14.589  11.268   1.718  0.00  0.00     0.011 C 
ATOM    143  H87 GLN d   1      13.506  11.314   1.907  0.00  0.00     0.047 H 
ATOM    144  H88 GLN d   1      14.980  12.287   1.580  0.00  0.00     0.047 H 
BRANCH 142 145
ATOM    145  CD  GLN d   1      15.312  10.556   2.860  0.00  0.00     0.215 C 
ATOM    146  OE1 GLN d   1      14.624   9.718   3.488  0.00  0.00    -0.274 OA
ATOM    147  NE2 GLN d   1      16.620  10.773   3.024  0.00  0.00    -0.370 N 
ATOM    148  H89 GLN d   1      17.113  10.317   3.765  0.00  0.00     0.159 HD
ATOM    149  H90 GLN d   1      17.106  11.391   2.406  0.00  0.00     0.159 HD
ENDBRANCH 142 145
ENDBRANCH 139 142
ENDBRANCH 134 139
ENDBRANCH 132 134
ENDBRANCH 128 130
BRANCH 128 150
ATOM    150  CB  GLU d   1      18.699   7.471  -1.493  0.00  0.00    -0.029 C 
ATOM    151  H79 GLU d   1      18.364   7.609  -2.532  0.00  0.00     0.037 H 
ATOM    152  H80 GLU d   1      19.514   6.733  -1.465  0.00  0.00     0.037 H 
BRANCH 150 153
ATOM    153  CG  GLU d   1      19.255   8.811  -0.992  0.00  0.00     0.018 C 
ATOM    154  H81 GLU d   1      18.885   8.973   0.031  0.00  0.00     0.049 H 
ATOM    155  H82 GLU d   1      18.874   9.606  -1.650  0.00  0.00     0.049 H 
BRANCH 153 156
ATOM    156  CD  GLU d   1      20.756   8.906  -0.966  0.00  0.00     0.172 C 
ATOM    157  OE1 GLU d   1      21.334   8.780  -2.078  0.00  0.00    -0.648 OA
ATOM    158  OE2 GLU d   1      21.413   9.090   0.040  0.00  0.00    -0.648 OA
ENDBRANCH 153 156
ENDBRANCH 150 153
ENDBRANCH 128 150
ENDBRANCH 126 128
ENDBRANCH 122 124
BRANCH 122 159
ATOM    159  CB  ILE d   1      16.432   3.054  -2.733  0.00  0.00    -0.030 C 
ATOM    160  H68 ILE d   1      16.769   3.236  -3.764  0.00  0.00     0.043 H 
BRANCH 159 161
ATOM    161  CG1 ILE d   1      15.638   1.709  -2.706  0.00  0.00    -0.063 C 
ATOM    162  H69 ILE d   1      14.864   1.748  -3.487  0.00  0.00     0.033 H 
ATOM    163  H70 ILE d   1      15.160   1.609  -1.720  0.00  0.00     0.033 H 
BRANCH 161 164
ATOM    164  CD1 ILE d   1      16.524   0.447  -2.954  0.00  0.00    -0.076 C 
ATOM    165  H74 ILE d   1      15.895  -0.455  -2.920  0.00  0.00     0.027 H 
ATOM    166  H75 ILE d   1      17.298   0.384  -2.175  0.00  0.00     0.027 H 
ATOM    167  H76 ILE d   1      17.002   0.523  -3.942  0.00  0.00     0.027 H 
ENDBRANCH 161 164
ENDBRANCH 159 161
BRANCH 159 168
ATOM    168  CG2 ILE d   1      17.693   2.995  -1.866  0.00  0.00    -0.071 C 
ATOM    169  H71 ILE d   1      18.218   3.961  -1.916  0.00  0.00     0.028 H 
ATOM    170  H72 ILE d   1      18.355   2.198  -2.236  0.00  0.00     0.028 H 
ATOM    171  H73 ILE d   1      17.412   2.784  -0.824  0.00  0.00     0.028 H 
ENDBRANCH 159 168
ENDBRANCH 122 159
ENDBRANCH 120 122
ENDBRANCH 116 118
BRANCH 116 172
ATOM    172  CB  ASP d   1      11.283   2.991  -4.111  0.00  0.00     0.043 C 
ATOM    173  H64 ASP d   1      10.660   3.109  -3.212  0.00  0.00     0.052 H 
ATOM    174  H65 ASP d   1      11.911   2.094  -4.007  0.00  0.00     0.052 H 
BRANCH 172 175
ATOM    175  CG  ASP d   1      10.403   2.887  -5.363  0.00  0.00     0.175 C 
ATOM    176  OD1 ASP d   1      10.719   3.839  -6.130  0.00  0.00    -0.648 OA
ATOM    177  OD2 ASP d   1       9.507   2.057  -5.594  0.00  0.00    -0.648 OA
ENDBRANCH 172 175
ENDBRANCH 116 172
ENDBRANCH 114 116
ENDBRANCH 110 112
BRANCH 110 178
ATOM    178  CB  ASP d   1      13.592   4.404  -8.944  0.00  0.00     0.043 C 
ATOM    179  H60 ASP d   1      12.704   5.045  -8.841  0.00  0.00     0.052 H 
ATOM    180  H61 ASP d   1      13.292   3.424  -9.344  0.00  0.00     0.052 H 
BRANCH 178 181
ATOM    181  CG  ASP d   1      14.541   5.055  -9.932  0.00  0.00     0.175 C 
ATOM    182  OD1 ASP d   1      15.753   5.054  -9.626  0.00  0.00    -0.648 OA
ATOM    183  OD2 ASP d   1      14.111   5.559 -10.981  0.00  0.00    -0.648 OA
ENDBRANCH 178 181
ENDBRANCH 110 178
ENDBRANCH 108 110
ENDBRANCH 104 106
BRANCH 104 184
ATOM    184  CB  LEU d   1      16.899   0.103  -7.078  0.00  0.00    -0.035 C 
ATOM    185  H49 LEU d   1      16.537  -0.315  -8.029  0.00  0.00     0.037 H 
ATOM    186  H50 LEU d   1      17.112  -0.716  -6.375  0.00  0.00     0.037 H 
BRANCH 184 187
ATOM    187  CG  LEU d   1      18.225   0.793  -7.372  0.00  0.00    -0.059 C 
ATOM    188  H51 LEU d   1      18.036   1.692  -7.977  0.00  0.00     0.038 H 
BRANCH 187 189
ATOM    189  CD1 LEU d   1      18.926   1.209  -6.086  0.00  0.00    -0.073 C 
ATOM    190  H52 LEU d   1      19.878   1.703  -6.331  0.00  0.00     0.028 H 
ATOM    191  H53 LEU d   1      19.123   0.319  -5.471  0.00  0.00     0.028 H 
ATOM    192  H54 LEU d   1      18.284   1.906  -5.527  0.00  0.00     0.028 H 
ENDBRANCH 187 189
BRANCH 187 193
ATOM    193  CD2 LEU d   1      19.103  -0.172  -8.165  0.00  0.00    -0.073 C 
ATOM    194  H55 LEU d   1      18.584  -0.464  -9.090  0.00  0.00     0.028 H 
ATOM    195  H56 LEU d   1      19.303  -1.068  -7.559  0.00  0.00     0.028 H 
ATOM    196  H57 LEU d   1      20.054   0.320  -8.417  0.00  0.00     0.028 H 
ENDBRANCH 187 193
ENDBRANCH 184 187
ENDBRANCH 104 184
ENDBRANCH 102 104
ENDBRANCH   1 100
BRANCH   1 197
ATOM    197  CB  SER d   1      11.743   0.540  -8.305  0.00  0.00     0.044 C 
ATOM    198  H44 SER d   1      10.901   1.196  -8.041  0.00  0.00     0.077 H 
ATOM    199  H45 SER d   1      11.409  -0.208  -9.039  0.00  0.00     0.077 H 
BRANCH 197 200
ATOM    200  OG  SER d   1      12.776   1.327  -8.886  0.00  0.00    -0.398 OA
ATOM    201  H46 SER d   1      12.444   1.760  -9.664  0.00  0.00     0.209 HD
ENDBRANCH 197 200
ENDBRANCH   1 197
TORSDOF 60
