REMARK WARNING: 32 MAX_TORS EXCEEDED!!!
REMARK  37 active torsions:
REMARK  status: ('A' for Active; 'I' for Inactive)
REMARK    1  A    between atoms: C1_1  and  C2_4 
REMARK    2  A    between atoms: C2_4  and  C3_5 
REMARK    3  A    between atoms: C3_5  and  C4_6 
REMARK       I    between atoms: C4_6  and  N_8 
REMARK    4  A    between atoms: N_8  and  CA_9 
REMARK    5  A    between atoms: CA_9  and  C_10 
REMARK    6  A    between atoms: CA_9  and  CB_12 
REMARK       I    between atoms: C_10  and  N_20 
REMARK    7  A    between atoms: CB_12  and  CG_13 
REMARK    8  A    between atoms: CZ_18  and  OH_19 
REMARK    9  A    between atoms: N_20  and  CA_21 
REMARK   10  A    between atoms: CA_21  and  C_22 
REMARK   11  A    between atoms: CA_21  and  CB_24 
REMARK       I    between atoms: C_22  and  N_29 
REMARK   12  A    between atoms: CB_24  and  CG_25 
REMARK   13  A    between atoms: CG_25  and  CD_26 
REMARK   14  A    between atoms: CA_30  and  C_31 
REMARK       I    between atoms: C_31  and  N_36 
REMARK   15  A    between atoms: N_36  and  CA_37 
REMARK   16  A    between atoms: CA_37  and  C_38 
REMARK   17  A    between atoms: CA_37  and  CB_40 
REMARK       I    between atoms: C_38  and  N_44 
REMARK   18  A    between atoms: CB_40  and  CG1_41 
REMARK   19  A    between atoms: CB_40  and  CG2_42 
REMARK   20  A    between atoms: CG1_41  and  CD1_43 
REMARK   21  A    between atoms: CA_45  and  C_46 
REMARK       I    between atoms: C_46  and  N_51 
REMARK   22  A    between atoms: N_51  and  CA_52 
REMARK   23  A    between atoms: CA_52  and  C_53 
REMARK   24  A    between atoms: CA_52  and  CB_55 
REMARK       I    between atoms: C_53  and  N_60 
REMARK   25  A    between atoms: CB_55  and  CG_56 
REMARK   26  A    between atoms: CG_56  and  CD_57 
REMARK   27  A    between atoms: N_60  and  CA_61 
REMARK   28  A    between atoms: CA_61  and  C_62 
REMARK   29  A    between atoms: CA_61  and  CB_64 
REMARK       I    between atoms: C_62  and  N_69 
REMARK   30  A    between atoms: CB_64  and  CG_65 
REMARK   31  A    between atoms: CG_65  and  CD_66 
REMARK   32  A    between atoms: N_69  and  CA_70 
REMARK   33  A    between atoms: CA_70  and  C_71 
REMARK   34  A    between atoms: CA_70  and  CB_73 
REMARK       I    between atoms: C_71  and  N_74 
REMARK   35  A    between atoms: N_74  and  CA_75 
REMARK   36  A    between atoms: CA_75  and  C_76 
REMARK   37  A    between atoms: CA_75  and  CB_78 
REMARK       I    between atoms: C_76  and  N_79 
ROOT
ATOM      1  CA  ILE d   1      10.647  -1.811  -3.580  0.00  0.00     0.092 C 
ATOM      2  H28 ILE d   1       9.684  -1.369  -3.285  0.00  0.00     0.088 H 
ENDROOT
BRANCH   1   3
ATOM      3  N   ILE d   1      10.475  -3.254  -3.693  0.00  0.00    -0.346 N 
ATOM      4  C   PRO d   1       9.300  -3.825  -3.885  0.00  0.00     0.241 C 
ATOM      5  O   PRO d   1       8.212  -3.228  -4.016  0.00  0.00    -0.271 OA
ATOM      6  H27 ILE d   1      11.284  -3.838  -3.622  0.00  0.00     0.163 HD
BRANCH   4   7
ATOM      7  CA  PRO d   1       9.381  -5.357  -4.069  0.00  0.00     0.091 A 
ATOM      8  N   PRO d   1       8.066  -5.913  -3.767  0.00  0.00    -0.337 N 
ATOM      9  C   GLU d   1       7.578  -5.837  -2.533  0.00  0.00     0.243 C 
ATOM     10  CD  PRO d   1       7.416  -6.533  -4.917  0.00  0.00    -0.001 A 
ATOM     11  O   GLU d   1       8.117  -5.303  -1.536  0.00  0.00    -0.271 OA
ATOM     12  CG  PRO d   1       8.384  -6.307  -6.037  0.00  0.00    -0.048 A 
ATOM     13  H25 PRO d   1       6.451  -6.050  -5.130  0.00  0.00     0.064 H 
ATOM     14  H26 PRO d   1       7.258  -7.608  -4.746  0.00  0.00     0.064 H 
ATOM     15  CB  PRO d   1       9.609  -5.648  -5.539  0.00  0.00    -0.036 A 
ATOM     16  H23 PRO d   1       8.651  -7.275  -6.485  0.00  0.00     0.035 H 
ATOM     17  H24 PRO d   1       7.913  -5.668  -6.798  0.00  0.00     0.035 H 
ATOM     18  H21 PRO d   1      10.475  -6.314  -5.663  0.00  0.00     0.036 H 
ATOM     19  H22 PRO d   1       9.785  -4.711  -6.088  0.00  0.00     0.036 H 
ATOM     20  H20 PRO d   1      10.168  -5.795  -3.438  0.00  0.00     0.087 H 
BRANCH   9  21
ATOM     21  CA  GLU d   1       6.154  -6.394  -2.384  0.00  0.00     0.090 C 
ATOM     22  H15 GLU d   1       5.905  -7.140  -3.153  0.00  0.00     0.087 H 
BRANCH  21  23
ATOM     23  N   GLU d   1       6.105  -7.016  -1.056  0.00  0.00    -0.346 N 
ATOM     24  C   TYR d   1       6.916  -8.045  -0.860  0.00  0.00     0.241 C 
ATOM     25  O   TYR d   1       7.737  -8.579  -1.616  0.00  0.00    -0.271 OA
ATOM     26  H14 GLU d   1       5.494  -6.682  -0.339  0.00  0.00     0.163 HD
BRANCH  24  27
ATOM     27  CA  TYR d   1       6.892  -8.642   0.569  0.00  0.00     0.093 C 
ATOM     28  H6  TYR d   1       6.184  -8.088   1.203  0.00  0.00     0.088 H 
BRANCH  27  29
ATOM     29  N   TYR d   1       6.346  -9.980   0.421  0.00  0.00    -0.347 N 
ATOM     30  C4  SIN d   1       6.053 -10.753   1.402  0.00  0.00     0.218 C 
ATOM     31  O3  SIN d   1       6.299 -10.448   2.594  0.00  0.00    -0.274 OA
ATOM     32  H5  TYR d   1       6.188 -10.321  -0.506  0.00  0.00     0.163 HD
BRANCH  30  33
ATOM     33  C3  SIN d   1       5.480 -12.158   1.288  0.00  0.00     0.018 C 
ATOM     34  H3  SIN d   1       4.381 -12.104   1.291  0.00  0.00     0.047 H 
ATOM     35  H4  SIN d   1       5.822 -12.616   0.348  0.00  0.00     0.047 H 
BRANCH  33  36
ATOM     36  C2  SIN d   1       5.955 -13.023   2.482  0.00  0.00     0.024 C 
ATOM     37  H1  SIN d   1       5.684 -14.068   2.269  0.00  0.00     0.049 H 
ATOM     38  H2  SIN d   1       7.049 -12.934   2.548  0.00  0.00     0.049 H 
BRANCH  36  39
ATOM     39  C1  SIN d   1       5.377 -12.661   3.840  0.00  0.00     0.172 C 
ATOM     40  O1  SIN d   1       6.115 -12.730   4.867  0.00  0.00    -0.648 OA
ATOM     41  O2  SIN d   1       4.173 -12.345   3.962  0.00  0.00    -0.648 OA
ENDBRANCH  36  39
ENDBRANCH  33  36
ENDBRANCH  30  33
ENDBRANCH  27  29
BRANCH  27  42
ATOM     42  CB  TYR d   1       8.312  -8.346   1.129  0.00  0.00    -0.014 C 
ATOM     43  H7  TYR d   1       8.588  -7.326   0.822  0.00  0.00     0.043 H 
ATOM     44  H8  TYR d   1       9.009  -9.067   0.676  0.00  0.00     0.043 H 
BRANCH  42  45
ATOM     45  CG  TYR d   1       8.468  -8.434   2.622  0.00  0.00    -0.056 A 
ATOM     46  CD1 TYR d   1       8.259  -7.380   3.530  0.00  0.00    -0.074 A 
ATOM     47  CE1 TYR d   1       8.352  -7.573   4.903  0.00  0.00    -0.051 A 
ATOM     48  H9  TYR d   1       8.020  -6.394   3.150  0.00  0.00     0.084 H 
ATOM     49  CZ  TYR d   1       8.680  -8.829   5.384  0.00  0.00     0.065 A 
ATOM     50  H11 TYR d   1       8.170  -6.752   5.587  0.00  0.00     0.087 H 
ATOM     51  CE2 TYR d   1       8.931  -9.911   4.513  0.00  0.00    -0.051 A 
ATOM     52  CD2 TYR d   1       8.824  -9.690   3.143  0.00  0.00    -0.074 A 
ATOM     53  H12 TYR d   1       9.200 -10.887   4.900  0.00  0.00     0.087 H 
ATOM     54  H10 TYR d   1       9.020 -10.508   2.460  0.00  0.00     0.084 H 
BRANCH  49  55
ATOM     55  OH  TYR d   1       8.771  -9.123   6.713  0.00  0.00    -0.361 OA
ATOM     56  H13 TYR d   1       8.588  -8.342   7.222  0.00  0.00     0.217 HD
ENDBRANCH  49  55
ENDBRANCH  42  45
ENDBRANCH  27  42
ENDBRANCH  24  27
ENDBRANCH  21  23
BRANCH  21  57
ATOM     57  CB  GLU d   1       5.321  -5.134  -2.571  0.00  0.00    -0.029 C 
ATOM     58  H16 GLU d   1       5.647  -4.676  -3.517  0.00  0.00     0.037 H 
ATOM     59  H17 GLU d   1       5.569  -4.464  -1.734  0.00  0.00     0.037 H 
BRANCH  57  60
ATOM     60  CG  GLU d   1       3.823  -5.220  -2.627  0.00  0.00     0.018 C 
ATOM     61  H18 GLU d   1       3.497  -5.957  -1.878  0.00  0.00     0.049 H 
ATOM     62  H19 GLU d   1       3.540  -5.568  -3.631  0.00  0.00     0.049 H 
BRANCH  60  63
ATOM     63  CD  GLU d   1       3.095  -3.936  -2.360  0.00  0.00     0.172 C 
ATOM     64  OE1 GLU d   1       3.559  -2.912  -2.894  0.00  0.00    -0.648 OA
ATOM     65  OE2 GLU d   1       2.117  -3.892  -1.632  0.00  0.00    -0.648 OA
ENDBRANCH  60  63
ENDBRANCH  57  60
ENDBRANCH  21  57
ENDBRANCH   9  21
ENDBRANCH   4   7
ENDBRANCH   1   3
BRANCH   1  66
ATOM     66  C   ILE d   1      11.078  -1.186  -4.919  0.00  0.00     0.243 C 
ATOM     67  O   ILE d   1      12.158  -1.568  -5.418  0.00  0.00    -0.271 OA
ATOM     68  N   PRO d   1      10.302  -0.225  -5.418  0.00  0.00    -0.337 N 
ATOM     69  CA  PRO d   1      10.578   0.508  -6.640  0.00  0.00     0.091 A 
ATOM     70  CD  PRO d   1       9.066   0.249  -4.746  0.00  0.00    -0.001 A 
ATOM     71  CB  PRO d   1       9.560   1.629  -6.706  0.00  0.00    -0.036 A 
ATOM     72  H38 PRO d   1      10.437  -0.167  -7.497  0.00  0.00     0.087 H 
ATOM     73  CG  PRO d   1       8.642   1.455  -5.545  0.00  0.00    -0.048 A 
ATOM     74  H39 PRO d   1       8.994   1.570  -7.647  0.00  0.00     0.036 H 
ATOM     75  H40 PRO d   1      10.067   2.603  -6.644  0.00  0.00     0.036 H 
ATOM     76  H41 PRO d   1       7.614   1.311  -5.909  0.00  0.00     0.035 H 
ATOM     77  H42 PRO d   1       8.683   2.350  -4.907  0.00  0.00     0.035 H 
ATOM     78  H43 PRO d   1       9.273   0.527  -3.702  0.00  0.00     0.064 H 
ATOM     79  H44 PRO d   1       8.287  -0.527  -4.771  0.00  0.00     0.064 H 
BRANCH  69  80
ATOM     80  C   PRO d   1      11.986   1.071  -6.711  0.00  0.00     0.241 C 
ATOM     81  O   PRO d   1      12.434   1.813  -5.815  0.00  0.00    -0.271 OA
ATOM     82  N   GLU d   1      12.638   0.714  -7.802  0.00  0.00    -0.346 N 
ATOM     83  H45 GLU d   1      12.183   0.134  -8.478  0.00  0.00     0.163 HD
BRANCH  82  84
ATOM     84  CA  GLU d   1      14.036   1.158  -8.045  0.00  0.00     0.090 C 
ATOM     85  H46 GLU d   1      14.709   0.650  -7.339  0.00  0.00     0.087 H 
BRANCH  84  86
ATOM     86  C   GLU d   1      14.070   2.653  -7.757  0.00  0.00     0.241 C 
ATOM     87  O   GLU d   1      15.156   3.212  -7.502  0.00  0.00    -0.271 OA
ATOM     88  N   GLU d   1      12.875   3.245  -7.762  0.00  0.00    -0.346 N 
ATOM     89  H51 GLU d   1      12.089   2.661  -7.965  0.00  0.00     0.163 HD
BRANCH  88  90
ATOM     90  CA  GLU d   1      12.591   4.646  -7.504  0.00  0.00     0.090 C 
ATOM     91  H52 GLU d   1      13.562   5.158  -7.567  0.00  0.00     0.087 H 
BRANCH  90  92
ATOM     92  C   GLU d   1      12.000   4.861  -6.093  0.00  0.00     0.241 C 
ATOM     93  O   GLU d   1      10.825   5.247  -5.899  0.00  0.00    -0.271 OA
ATOM     94  N   ALA d   1      12.869   4.642  -5.140  0.00  0.00    -0.346 N 
ATOM     95  H57 ALA d   1      13.800   4.372  -5.385  0.00  0.00     0.163 HD
BRANCH  94  96
ATOM     96  CA  ALA d   1      12.518   4.780  -3.722  0.00  0.00     0.086 C 
ATOM     97  H58 ALA d   1      11.990   5.723  -3.514  0.00  0.00     0.086 H 
BRANCH  96  98
ATOM     98  C   ALA d   1      13.894   4.730  -3.039  0.00  0.00     0.240 C 
ATOM     99  O   ALA d   1      14.206   5.491  -2.115  0.00  0.00    -0.271 OA
ATOM    100  N   ALC d   1      14.595   3.750  -3.652  0.00  0.00    -0.346 N 
ATOM    101  H62 ALC d   1      14.210   3.225  -4.411  0.00  0.00     0.163 HD
BRANCH 100 102
ATOM    102  CA  ALC d   1      15.966   3.492  -3.142  0.00  0.00     0.086 C 
ATOM    103  H63 ALC d   1      15.901   3.289  -2.063  0.00  0.00     0.086 H 
BRANCH 102 104
ATOM    104  C   ALC d   1      16.690   4.816  -3.308  0.00  0.00     0.237 C 
ATOM    105  O   ALC d   1      17.777   5.083  -2.797  0.00  0.00    -0.271 OA
ATOM    106  N   GLU d   1      16.084   5.704  -3.930  0.00  0.00    -0.368 N 
ATOM    107  H67 GLU d   1      16.512   6.597  -4.070  0.00  0.00     0.159 HD
ATOM    108  H68 GLU d   1      15.168   5.526  -4.290  0.00  0.00     0.159 HD
ENDBRANCH 102 104
BRANCH 102 109
ATOM    109  CB  ALC d   1      16.592   2.259  -3.752  0.00  0.00    -0.049 C 
ATOM    110  H64 ALC d   1      17.602   2.118  -3.339  0.00  0.00     0.030 H 
ATOM    111  H65 ALC d   1      16.656   2.382  -4.843  0.00  0.00     0.030 H 
ATOM    112  H66 ALC d   1      15.974   1.380  -3.517  0.00  0.00     0.030 H 
ENDBRANCH 102 109
ENDBRANCH 100 102
ENDBRANCH  96  98
BRANCH  96 113
ATOM    113  CB  ALA d   1      11.668   3.586  -3.300  0.00  0.00    -0.049 C 
ATOM    114  H59 ALA d   1      11.401   3.683  -2.237  0.00  0.00     0.030 H 
ATOM    115  H60 ALA d   1      12.239   2.658  -3.451  0.00  0.00     0.030 H 
ATOM    116  H61 ALA d   1      10.751   3.556  -3.907  0.00  0.00     0.030 H 
ENDBRANCH  96 113
ENDBRANCH  94  96
ENDBRANCH  90  92
BRANCH  90 117
ATOM    117  CB  GLU d   1      11.593   5.436  -8.411  0.00  0.00    -0.029 C 
ATOM    118  H53 GLU d   1      10.568   5.156  -8.128  0.00  0.00     0.037 H 
ATOM    119  H54 GLU d   1      11.775   5.153  -9.458  0.00  0.00     0.037 H 
BRANCH 117 120
ATOM    120  CG  GLU d   1      11.732   6.952  -8.288  0.00  0.00     0.018 C 
ATOM    121  H55 GLU d   1      12.800   7.113  -8.497  0.00  0.00     0.049 H 
ATOM    122  H56 GLU d   1      11.537   7.125  -7.219  0.00  0.00     0.049 H 
BRANCH 120 123
ATOM    123  CD  GLU d   1      11.099   8.123  -8.925  0.00  0.00     0.172 C 
ATOM    124  OE1 GLU d   1      10.530   7.981 -10.071  0.00  0.00    -0.648 OA
ATOM    125  OE2 GLU d   1      11.109   9.301  -8.459  0.00  0.00    -0.648 OA
ENDBRANCH 120 123
ENDBRANCH 117 120
ENDBRANCH  90 117
ENDBRANCH  88  90
ENDBRANCH  84  86
BRANCH  84 126
ATOM    126  CB  GLU d   1      14.462   0.786  -9.435  0.00  0.00    -0.029 C 
ATOM    127  H47 GLU d   1      13.776   1.353 -10.081  0.00  0.00     0.037 H 
ATOM    128  H48 GLU d   1      14.227  -0.286  -9.503  0.00  0.00     0.037 H 
BRANCH 126 129
ATOM    129  CG  GLU d   1      15.804   0.909 -10.136  0.00  0.00     0.018 C 
ATOM    130  H49 GLU d   1      16.477   0.162  -9.690  0.00  0.00     0.049 H 
ATOM    131  H50 GLU d   1      16.190   1.919  -9.932  0.00  0.00     0.049 H 
BRANCH 129 132
ATOM    132  CD  GLU d   1      15.838   0.706 -11.651  0.00  0.00     0.172 C 
ATOM    133  OE1 GLU d   1      14.657   0.591 -12.154  0.00  0.00    -0.648 OA
ATOM    134  OE2 GLU d   1      16.886   0.670 -12.340  0.00  0.00    -0.648 OA
ENDBRANCH 129 132
ENDBRANCH 126 129
ENDBRANCH  84 126
ENDBRANCH  82  84
ENDBRANCH  69  80
ENDBRANCH   1  66
BRANCH   1 135
ATOM    135  CB  ILE d   1      11.716  -1.486  -2.467  0.00  0.00    -0.030 C 
ATOM    136  H29 ILE d   1      12.634  -2.044  -2.706  0.00  0.00     0.043 H 
BRANCH 135 137
ATOM    137  CG1 ILE d   1      11.196  -2.009  -1.110  0.00  0.00    -0.063 C 
ATOM    138  H30 ILE d   1      10.918  -3.067  -1.223  0.00  0.00     0.033 H 
ATOM    139  H31 ILE d   1      10.309  -1.425  -0.824  0.00  0.00     0.033 H 
BRANCH 137 140
ATOM    140  CD1 ILE d   1      12.260  -1.891   0.026  0.00  0.00    -0.076 C 
ATOM    141  H35 ILE d   1      11.837  -2.276   0.966  0.00  0.00     0.027 H 
ATOM    142  H36 ILE d   1      12.542  -0.836   0.156  0.00  0.00     0.027 H 
ATOM    143  H37 ILE d   1      13.151  -2.478  -0.243  0.00  0.00     0.027 H 
ENDBRANCH 137 140
ENDBRANCH 135 137
BRANCH 135 144
ATOM    144  CG2 ILE d   1      12.092   0.021  -2.460  0.00  0.00    -0.071 C 
ATOM    145  H32 ILE d   1      12.451   0.314  -3.458  0.00  0.00     0.028 H 
ATOM    146  H33 ILE d   1      12.885   0.198  -1.718  0.00  0.00     0.028 H 
ATOM    147  H34 ILE d   1      11.206   0.619  -2.199  0.00  0.00     0.028 H 
ENDBRANCH 135 144
ENDBRANCH   1 135
TORSDOF 37
