REMARK  11 active torsions:
REMARK  status: ('A' for Active; 'I' for Inactive)
REMARK    1  A    between atoms: C2'_2  and  CM2_3 
REMARK    2  A    between atoms: C4'_5  and  N4'_6 
REMARK    3  A    between atoms: C5'_7  and  C7'_9 
REMARK    4  A    between atoms: C7'_9  and  N3_10 
REMARK    5  A    between atoms: C5_13  and  C6_16 
REMARK    6  A    between atoms: C4_14  and  CM4_15 
REMARK    7  A    between atoms: C6_16  and  C7_17 
REMARK    8  A    between atoms: C7_17  and  O7_18 
REMARK    9  A    between atoms: O7_18  and  PA_19 
REMARK   10  A    between atoms: PA_19  and  O3A_22 
REMARK   11  A    between atoms: O3A_22  and  PB_23 
ROOT
ATOM      1  N3  N3T d   1      -5.805  58.246  17.226  0.00  0.00    -0.349 N 
ATOM      2  C2  N3T d   1      -5.693  56.931  16.976  0.00  0.00     0.018 A 
ATOM      3  S1  N3T d   1      -5.475  56.579  15.335  0.00  0.00    -0.087 SA
ATOM      4  C5  N3T d   1      -5.580  58.252  14.983  0.00  0.00     0.008 A 
ATOM      5  C4  N3T d   1      -5.811  58.991  16.130  0.00  0.00     0.021 A 
ATOM      6  H10 N3T d   1      -5.738  56.168  17.752  0.00  0.00     0.123 H 
ENDROOT
BRANCH   1   7
ATOM      7  C7' N3T d   1      -6.116  58.844  18.594  0.00  0.00     0.027 C 
ATOM      8  H8  N3T d   1      -6.734  59.743  18.454  0.00  0.00     0.072 H 
ATOM      9  H9  N3T d   1      -6.675  58.103  19.184  0.00  0.00     0.072 H 
BRANCH   7  10
ATOM     10  C5' N3T d   1      -4.876  59.225  19.350  0.00  0.00     0.004 C 
ATOM     11  C4' N3T d   1      -4.035  58.265  19.929  0.00  0.00     0.037 C 
ATOM     12  C3' N3T d   1      -2.708  58.580  20.308  0.00  0.00    -0.034 C 
ATOM     13  C2' N3T d   1      -2.383  59.917  20.388  0.00  0.00     0.032 C 
ATOM     14  H4  N3T d   1      -1.981  57.806  20.525  0.00  0.00     0.090 H 
ATOM     15  N1' N3T d   1      -3.232  60.837  19.897  0.00  0.00    -0.265 NA
ATOM     16  C6' N3T d   1      -4.451  60.492  19.384  0.00  0.00     0.012 C 
ATOM     17  H7  N3T d   1      -5.094  61.271  18.992  0.00  0.00     0.115 H 
BRANCH  11  18
ATOM     18  N4' N3T d   1      -4.314  56.993  19.845  0.00  0.00    -0.399 N 
ATOM     19  H5  N3T d   1      -3.687  56.299  20.275  0.00  0.00     0.156 HD
ATOM     20  H6  N3T d   1      -5.162  56.683  19.348  0.00  0.00     0.156 HD
ENDBRANCH  11  18
BRANCH  13  21
ATOM     21  CM2 N3T d   1      -1.105  60.364  20.975  0.00  0.00    -0.035 C 
ATOM     22  H1  N3T d   1      -0.537  59.490  21.325  0.00  0.00     0.035 H 
ATOM     23  H2  N3T d   1      -1.306  61.035  21.823  0.00  0.00     0.035 H 
ATOM     24  H3  N3T d   1      -0.520  60.901  20.214  0.00  0.00     0.035 H 
ENDBRANCH  13  21
ENDBRANCH   7  10
ENDBRANCH   1   7
BRANCH   5  25
ATOM     25  CM4 N3T d   1      -6.206  60.442  16.211  0.00  0.00    -0.036 C 
ATOM     26  H11 N3T d   1      -6.151  60.893  15.209  0.00  0.00     0.035 H 
ATOM     27  H12 N3T d   1      -5.521  60.971  16.890  0.00  0.00     0.035 H 
ATOM     28  H13 N3T d   1      -7.234  60.521  16.593  0.00  0.00     0.035 H 
ENDBRANCH   5  25
BRANCH   4  29
ATOM     29  C6  N3T d   1      -5.695  58.738  13.563  0.00  0.00    -0.013 C 
ATOM     30  H14 N3T d   1      -4.953  59.541  13.444  0.00  0.00     0.044 H 
ATOM     31  H15 N3T d   1      -6.707  59.154  13.453  0.00  0.00     0.044 H 
BRANCH  29  32
ATOM     32  C7  N3T d   1      -5.494  57.798  12.423  0.00  0.00     0.036 C 
ATOM     33  H16 N3T d   1      -5.806  58.278  11.484  0.00  0.00     0.075 H 
ATOM     34  H17 N3T d   1      -6.086  56.885  12.583  0.00  0.00     0.075 H 
BRANCH  32  35
ATOM     35  O7  N3T d   1      -4.089  57.467  12.361  0.00  0.00    -0.289 OA
BRANCH  35  36
ATOM     36  PA  N3T d   1      -3.629  56.316  11.377  0.00  0.00     0.418 P 
ATOM     37  O1A N3T d   1      -2.334  55.743  11.851  0.00  0.00    -0.624 OA
ATOM     38  O2A N3T d   1      -3.603  56.809   9.941  0.00  0.00    -0.624 OA
BRANCH  36  39
ATOM     39  O3A N3T d   1      -4.741  55.139  11.346  0.00  0.00    -0.173 OA
BRANCH  39  40
ATOM     40  PB  N3T d   1      -5.643  54.509  10.178  0.00  0.00     0.431 P 
ATOM     41  O1B N3T d   1      -4.665  54.561   9.058  0.00  0.00    -0.616 OA
ATOM     42  O2B N3T d   1      -6.727  55.471   9.949  0.00  0.00    -0.616 OA
ATOM     43  O3B N3T d   1      -6.078  53.201  10.649  0.00  0.00    -0.616 OA
ENDBRANCH  39  40
ENDBRANCH  36  39
ENDBRANCH  35  36
ENDBRANCH  32  35
ENDBRANCH  29  32
ENDBRANCH   4  29
TORSDOF 11
