REMARK  12 active torsions:
REMARK  status: ('A' for Active; 'I' for Inactive)
REMARK    1  A    between atoms: C2'_2  and  CM2_3 
REMARK    2  A    between atoms: C4'_5  and  N4'_6 
REMARK    3  A    between atoms: C5'_7  and  C7'_9 
REMARK    4  A    between atoms: C6'_8  and  CM6_16 
REMARK    5  A    between atoms: C7'_9  and  N3_10 
REMARK    6  A    between atoms: C5_13  and  C6_17 
REMARK    7  A    between atoms: C4_14  and  CM4_15 
REMARK    8  A    between atoms: C6_17  and  C7_18 
REMARK    9  A    between atoms: C7_18  and  O7_19 
REMARK   10  A    between atoms: O7_19  and  PA_20 
REMARK   11  A    between atoms: PA_20  and  O3A_23 
REMARK   12  A    between atoms: O3A_23  and  PB_24 
ROOT
ATOM      1  N3  M6T d   1      -6.131  58.143  17.771  0.00  0.00    -0.349 N 
ATOM      2  C2  M6T d   1      -6.314  56.819  17.651  0.00  0.00     0.018 C 
ATOM      3  S1  M6T d   1      -6.236  56.302  16.038  0.00  0.00    -0.087 SA
ATOM      4  C5  M6T d   1      -5.780  57.903  15.589  0.00  0.00     0.008 C 
ATOM      5  C4  M6T d   1      -6.054  58.771  16.598  0.00  0.00     0.021 C 
ATOM      6  H8  M6T d   1      -6.492  56.153  18.494  0.00  0.00     0.123 H 
ENDROOT
BRANCH   1   7
ATOM      7  C7' M6T d   1      -6.164  58.860  19.091  0.00  0.00     0.029 C 
ATOM      8  H6  M6T d   1      -6.763  59.777  18.995  0.00  0.00     0.072 H 
ATOM      9  H7  M6T d   1      -6.614  58.206  19.852  0.00  0.00     0.072 H 
BRANCH   7  10
ATOM     10  C5' M6T d   1      -4.752  59.221  19.507  0.00  0.00     0.030 C 
ATOM     11  C4' M6T d   1      -3.820  58.246  19.937  0.00  0.00     0.133 C 
ATOM     12  N3' M6T d   1      -2.610  58.601  20.455  0.00  0.00    -0.216 NA
ATOM     13  C2' M6T d   1      -2.241  59.851  20.377  0.00  0.00     0.124 C 
ATOM     14  N1' M6T d   1      -3.111  60.821  20.064  0.00  0.00    -0.238 NA
ATOM     15  C6' M6T d   1      -4.360  60.514  19.649  0.00  0.00     0.044 C 
BRANCH  11  16
ATOM     16  N4' M6T d   1      -4.114  56.979  19.983  0.00  0.00    -0.383 N 
ATOM     17  H4  M6T d   1      -5.013  56.645  19.608  0.00  0.00     0.157 HD
ATOM     18  H5  M6T d   1      -3.447  56.310  20.394  0.00  0.00     0.157 HD
ENDBRANCH  11  16
BRANCH  13  19
ATOM     19  CM2 M6T d   1      -0.904  60.264  20.821  0.00  0.00    -0.019 C 
ATOM     20  H1  M6T d   1      -0.788  61.348  20.675  0.00  0.00     0.037 H 
ATOM     21  H2  M6T d   1      -0.142  59.731  20.234  0.00  0.00     0.037 H 
ATOM     22  H3  M6T d   1      -0.781  60.023  21.887  0.00  0.00     0.037 H 
ENDBRANCH  13  19
BRANCH  15  23
ATOM     23  CM6 M6T d   1      -5.313  61.635  19.500  0.00  0.00    -0.035 C 
ATOM     24  H12 M6T d   1      -6.284  61.248  19.159  0.00  0.00     0.035 H 
ATOM     25  H13 M6T d   1      -4.924  62.351  18.761  0.00  0.00     0.035 H 
ATOM     26  H14 M6T d   1      -5.440  62.140  20.469  0.00  0.00     0.035 H 
ENDBRANCH  15  23
ENDBRANCH   7  10
ENDBRANCH   1   7
BRANCH   5  27
ATOM     27  CM4 M6T d   1      -6.081  60.252  16.493  0.00  0.00    -0.036 C 
ATOM     28  H9  M6T d   1      -6.005  60.546  15.436  0.00  0.00     0.035 H 
ATOM     29  H10 M6T d   1      -5.234  60.675  17.053  0.00  0.00     0.035 H 
ATOM     30  H11 M6T d   1      -7.024  60.632  16.913  0.00  0.00     0.035 H 
ENDBRANCH   5  27
BRANCH   4  31
ATOM     31  C6  M6T d   1      -5.428  58.238  14.172  0.00  0.00    -0.013 C 
ATOM     32  H15 M6T d   1      -4.431  58.703  14.160  0.00  0.00     0.044 H 
ATOM     33  H16 M6T d   1      -6.170  58.952  13.787  0.00  0.00     0.044 H 
BRANCH  31  34
ATOM     34  C7  M6T d   1      -5.406  57.028  13.261  0.00  0.00     0.036 C 
ATOM     35  H17 M6T d   1      -6.434  56.673  13.095  0.00  0.00     0.075 H 
ATOM     36  H18 M6T d   1      -4.812  56.227  13.726  0.00  0.00     0.075 H 
BRANCH  34  37
ATOM     37  O7  M6T d   1      -4.817  57.396  12.008  0.00  0.00    -0.289 OA
BRANCH  37  38
ATOM     38  PA  M6T d   1      -3.879  56.364  11.329  0.00  0.00     0.418 P 
ATOM     39  O1A M6T d   1      -2.562  56.207  11.978  0.00  0.00    -0.624 OA
ATOM     40  O2A M6T d   1      -3.786  56.806   9.899  0.00  0.00    -0.624 OA
BRANCH  38  41
ATOM     41  O3A M6T d   1      -4.584  54.927  11.282  0.00  0.00    -0.173 OA
BRANCH  41  42
ATOM     42  PB  M6T d   1      -5.484  54.175  10.222  0.00  0.00     0.431 P 
ATOM     43  O1B M6T d   1      -4.744  54.460   8.950  0.00  0.00    -0.616 OA
ATOM     44  O2B M6T d   1      -6.720  54.939  10.340  0.00  0.00    -0.616 OA
ATOM     45  O3B M6T d   1      -5.596  52.773  10.596  0.00  0.00    -0.616 OA
ENDBRANCH  41  42
ENDBRANCH  38  41
ENDBRANCH  37  38
ENDBRANCH  34  37
ENDBRANCH  31  34
ENDBRANCH   4  31
TORSDOF 12
