REMARK  5 active torsions:
REMARK  status: ('A' for Active; 'I' for Inactive)
REMARK    1  A    between atoms: O4_12  and  CA_1 
REMARK    2  A    between atoms: C5_10  and  C11_20 
REMARK    3  A    between atoms: C4_11  and  O4_12 
REMARK    4  A    between atoms: C11_20  and  C12_21 
REMARK    5  A    between atoms: C12_21  and  C13_22 
ROOT
ATOM      1  N1  H12 d   1       1.204 -36.974  17.823  0.00  0.00    -0.322 N 
ATOM      2  C6  H12 d   1       2.461 -37.415  18.255  0.00  0.00     0.255 A 
ATOM      3  O2  H12 d   1       3.378 -37.617  17.445  0.00  0.00    -0.268 OA
ATOM      4  C5  H12 d   1       2.681 -37.585  19.697  0.00  0.00     0.044 A 
ATOM      5  C4  H12 d   1       1.663 -37.282  20.598  0.00  0.00     0.093 A 
ATOM      6  C2  H12 d   1       0.198 -36.705  18.731  0.00  0.00     0.048 A 
ATOM      7  C3  H12 d   1       0.427 -36.846  20.136  0.00  0.00     0.026 A 
ATOM      8  C7  H12 d   1      -0.641 -36.560  21.033  0.00  0.00    -0.047 A 
ATOM      9  C8  H12 d   1      -1.889 -36.139  20.562  0.00  0.00     0.035 A 
ATOM     10  C9  H12 d   1      -2.107 -36.010  19.186  0.00  0.00    -0.060 A 
ATOM     11  C10 H12 d   1      -1.052 -36.293  18.263  0.00  0.00    -0.055 A 
ATOM     12 CL   H12 d   1      -3.125 -35.735  21.656  0.00  0.00    -0.084 Cl
ATOM     13  H12 H12 d   1       1.032 -36.852  16.845  0.00  0.00     0.169 HD
ATOM     14  H13 H12 d   1      -0.484 -36.670  22.100  0.00  0.00     0.087 H 
ATOM     15  H14 H12 d   1      -3.077 -35.695  18.819  0.00  0.00     0.086 H 
ATOM     16  H15 H12 d   1      -1.223 -36.188  17.198  0.00  0.00     0.087 H 
ENDROOT
BRANCH   5  17
ATOM     17  O4  H12 d   1       1.890 -37.510  21.970  0.00  0.00    -0.344 OA
BRANCH  17  18
ATOM     18  CA  H12 d   1       2.127 -36.363  22.792  0.00  0.00     0.045 C 
ATOM     19  CB  H12 d   1       3.650 -35.949  23.073  0.00  0.00    -0.040 C 
ATOM     20  CC  H12 d   1       3.804 -34.746  24.039  0.00  0.00    -0.063 C 
ATOM     21  H2  H12 d   1       4.120 -35.686  22.114  0.00  0.00     0.036 H 
ATOM     22  H3  H12 d   1       4.169 -36.814  23.511  0.00  0.00     0.036 H 
ATOM     23  CD  H12 d   1       3.121 -35.043  25.388  0.00  0.00    -0.065 C 
ATOM     24  H4  H12 d   1       3.340 -33.857  23.587  0.00  0.00     0.033 H 
ATOM     25  H5  H12 d   1       4.874 -34.554  24.210  0.00  0.00     0.033 H 
ATOM     26  CE  H12 d   1       1.599 -35.247  25.192  0.00  0.00    -0.063 C 
ATOM     27  H6  H12 d   1       3.288 -34.198  26.072  0.00  0.00     0.033 H 
ATOM     28  H7  H12 d   1       3.556 -35.956  25.821  0.00  0.00     0.033 H 
ATOM     29  CF  H12 d   1       1.282 -36.382  24.178  0.00  0.00    -0.040 C 
ATOM     30  H8  H12 d   1       1.161 -34.309  24.821  0.00  0.00     0.033 H 
ATOM     31  H9  H12 d   1       1.149 -35.503  26.162  0.00  0.00     0.033 H 
ATOM     32  H10 H12 d   1       1.478 -37.342  24.677  0.00  0.00     0.036 H 
ATOM     33  H11 H12 d   1       0.215 -36.314  23.921  0.00  0.00     0.036 H 
ATOM     34  H1  H12 d   1       1.715 -35.526  22.208  0.00  0.00     0.084 H 
ENDBRANCH  17  18
ENDBRANCH   5  17
BRANCH   4  35
ATOM     35  C11 H12 d   1       3.963 -38.268  20.163  0.00  0.00    -0.033 C 
ATOM     36  H16 H12 d   1       4.162 -37.989  21.208  0.00  0.00     0.040 H 
ATOM     37  H17 H12 d   1       4.800 -37.938  19.529  0.00  0.00     0.040 H 
BRANCH  35  38
ATOM     38  C12 H12 d   1       3.827 -39.779  20.066  0.00  0.00    -0.065 C 
ATOM     39  H18 H12 d   1       4.806 -40.210  19.810  0.00  0.00     0.032 H 
ATOM     40  H19 H12 d   1       3.101 -40.022  19.276  0.00  0.00     0.032 H 
BRANCH  38  41
ATOM     41  C13 H12 d   1       3.349 -40.384  21.379  0.00  0.00    -0.076 C 
ATOM     42  H20 H12 d   1       3.263 -41.475  21.270  0.00  0.00     0.027 H 
ATOM     43  H21 H12 d   1       2.367 -39.963  21.641  0.00  0.00     0.027 H 
ATOM     44  H22 H12 d   1       4.072 -40.151  22.175  0.00  0.00     0.027 H 
ENDBRANCH  38  41
ENDBRANCH  35  38
ENDBRANCH   4  35
TORSDOF 5
