REMARK  6 active torsions:
REMARK  status: ('A' for Active; 'I' for Inactive)
REMARK    1  A    between atoms: O4_11  and  CA_1 
REMARK    2  A    between atoms: CB_2  and  CC_3 
REMARK    3  A    between atoms: C5_9  and  C11_19 
REMARK    4  A    between atoms: C4_10  and  O4_11 
REMARK    5  A    between atoms: C11_19  and  C12_20 
REMARK    6  A    between atoms: C11_19  and  C13_21 
ROOT
ATOM      1  N1  GWB d   1      -0.772 -35.328  21.404  0.00  0.00    -0.322 N 
ATOM      2  C6  GWB d   1       0.365 -36.065  21.768  0.00  0.00     0.255 A 
ATOM      3  O2  GWB d   1       1.067 -36.561  20.880  0.00  0.00    -0.268 OA
ATOM      4  C5  GWB d   1       0.674 -36.223  23.229  0.00  0.00     0.049 A 
ATOM      5  C4  GWB d   1      -0.191 -35.646  24.162  0.00  0.00     0.111 A 
ATOM      6  C2  GWB d   1      -1.608 -34.756  22.336  0.00  0.00     0.048 A 
ATOM      7  C3  GWB d   1      -1.329 -34.920  23.746  0.00  0.00     0.029 A 
ATOM      8  C7  GWB d   1      -2.185 -34.280  24.686  0.00  0.00    -0.031 A 
ATOM      9  C8  GWB d   1      -3.275 -33.488  24.251  0.00  0.00     0.117 A 
ATOM     10  C9  GWB d   1      -3.539 -33.325  22.861  0.00  0.00    -0.043 A 
ATOM     11  C10 GWB d   1      -2.708 -33.962  21.905  0.00  0.00    -0.053 A 
ATOM     12  F   GWB d   1      -4.071 -32.864  25.185  0.00  0.00    -0.206 F 
ATOM     13  H6  GWB d   1      -0.983 -35.214  20.433  0.00  0.00     0.169 HD
ATOM     14  H7  GWB d   1      -2.000 -34.400  25.747  0.00  0.00     0.089 H 
ATOM     15  H8  GWB d   1      -4.374 -32.715  22.535  0.00  0.00     0.088 H 
ATOM     16  H9  GWB d   1      -2.910 -33.844  20.846  0.00  0.00     0.087 H 
ENDROOT
BRANCH   5  17
ATOM     17  O4  GWB d   1       0.122 -35.766  25.529  0.00  0.00    -0.259 OA
BRANCH  17  18
ATOM     18  CA  GWB d   1       0.773 -34.633  26.138  0.00  0.00     0.060 C 
ATOM     19  CB  GWB d   1       1.268 -33.715  26.621  0.00  0.00    -0.071 C 
BRANCH  19  20
ATOM     20  CC  GWB d   1       1.996 -32.371  27.324  0.00  0.00     0.008 A 
ATOM     21  CD  GWB d   1       2.049 -31.385  26.234  0.00  0.00    -0.051 A 
ATOM     22  CE  GWB d   1       0.970 -31.322  27.289  0.00  0.00    -0.051 A 
ATOM     23  H2  GWB d   1       1.800 -31.684  25.205  0.00  0.00     0.035 H 
ATOM     24  H3  GWB d   1       2.846 -30.627  26.212  0.00  0.00     0.035 H 
ATOM     25  H4  GWB d   1       0.977 -30.517  28.039  0.00  0.00     0.035 H 
ATOM     26  H5  GWB d   1      -0.069 -31.574  27.032  0.00  0.00     0.035 H 
ATOM     27  H1  GWB d   1       2.748 -32.531  28.111  0.00  0.00     0.059 H 
ENDBRANCH  19  20
ENDBRANCH  17  18
ENDBRANCH   5  17
BRANCH   4  28
ATOM     28  C11 GWB d   1       1.957 -36.919  23.748  0.00  0.00    -0.028 C 
ATOM     29  H10 GWB d   1       2.068 -36.574  24.787  0.00  0.00     0.046 H 
BRANCH  28  30
ATOM     30  C12 GWB d   1       3.249 -36.490  23.041  0.00  0.00    -0.069 C 
ATOM     31  H11 GWB d   1       4.102 -37.033  23.474  0.00  0.00     0.028 H 
ATOM     32  H12 GWB d   1       3.398 -35.408  23.174  0.00  0.00     0.028 H 
ATOM     33  H13 GWB d   1       3.174 -36.721  21.968  0.00  0.00     0.028 H 
ENDBRANCH  28  30
BRANCH  28  34
ATOM     34  C13 GWB d   1       1.824 -38.443  23.835  0.00  0.00    -0.069 C 
ATOM     35  H14 GWB d   1       0.886 -38.700  24.348  0.00  0.00     0.028 H 
ATOM     36  H15 GWB d   1       2.675 -38.854  24.399  0.00  0.00     0.028 H 
ATOM     37  H16 GWB d   1       1.816 -38.869  22.821  0.00  0.00     0.028 H 
ENDBRANCH  28  34
ENDBRANCH   4  28
TORSDOF 6
