REMARK  5 active torsions:
REMARK  status: ('A' for Active; 'I' for Inactive)
REMARK    1  A    between atoms: S4_12  and  CA_1 
REMARK    2  A    between atoms: C5_10  and  C11_20 
REMARK    3  A    between atoms: C4_11  and  S4_12 
REMARK    4  A    between atoms: C11_20  and  C12_21 
REMARK    5  A    between atoms: C12_21  and  C13_22 
ROOT
ATOM      1  N1  H16 d   1       1.335 -37.017  17.849  0.00  0.00    -0.322 N 
ATOM      2  C6  H16 d   1       2.564 -37.547  18.275  0.00  0.00     0.253 A 
ATOM      3  O2  H16 d   1       3.438 -37.853  17.441  0.00  0.00    -0.268 OA
ATOM      4  C5  H16 d   1       2.766 -37.760  19.740  0.00  0.00     0.028 A 
ATOM      5  C4  H16 d   1       1.760 -37.415  20.629  0.00  0.00     0.025 A 
ATOM      6  C2  H16 d   1       0.341 -36.697  18.763  0.00  0.00     0.046 A 
ATOM      7  C3  H16 d   1       0.556 -36.894  20.172  0.00  0.00     0.010 A 
ATOM      8  C7  H16 d   1      -0.491 -36.589  21.075  0.00  0.00    -0.049 A 
ATOM      9  C8  H16 d   1      -1.724 -36.111  20.605  0.00  0.00     0.035 A 
ATOM     10  C9  H16 d   1      -1.932 -35.928  19.231  0.00  0.00    -0.060 A 
ATOM     11  C10 H16 d   1      -0.892 -36.222  18.301  0.00  0.00    -0.055 A 
ATOM     12 CL   H16 d   1      -2.971 -35.745  21.704  0.00  0.00    -0.084 Cl
ATOM     13  H12 H16 d   1       1.174 -36.868  16.873  0.00  0.00     0.169 HD
ATOM     14  H13 H16 d   1      -0.339 -36.726  22.140  0.00  0.00     0.087 H 
ATOM     15  H14 H16 d   1      -2.888 -35.561  18.874  0.00  0.00     0.086 H 
ATOM     16  H15 H16 d   1      -1.056 -36.078  17.239  0.00  0.00     0.087 H 
ENDROOT
BRANCH   5  17
ATOM     17  S4  H16 d   1       2.022 -37.724  22.412  0.00  0.00    -0.123 SA
BRANCH  17  18
ATOM     18  CA  H16 d   1       2.525 -36.112  23.099  0.00  0.00    -0.004 C 
ATOM     19  CB  H16 d   1       4.030 -36.167  23.499  0.00  0.00    -0.053 C 
ATOM     20  CC  H16 d   1       4.444 -34.964  24.363  0.00  0.00    -0.064 C 
ATOM     21  H2  H16 d   1       4.640 -36.173  22.584  0.00  0.00     0.034 H 
ATOM     22  H3  H16 d   1       4.212 -37.091  24.067  0.00  0.00     0.034 H 
ATOM     23  CD  H16 d   1       3.664 -34.948  25.665  0.00  0.00    -0.065 C 
ATOM     24  H4  H16 d   1       4.243 -34.035  23.809  0.00  0.00     0.033 H 
ATOM     25  H5  H16 d   1       5.519 -35.032  24.586  0.00  0.00     0.033 H 
ATOM     26  CE  H16 d   1       2.158 -34.783  25.408  0.00  0.00    -0.064 C 
ATOM     27  H6  H16 d   1       4.016 -34.110  26.284  0.00  0.00     0.033 H 
ATOM     28  H7  H16 d   1       3.836 -35.895  26.198  0.00  0.00     0.033 H 
ATOM     29  CF  H16 d   1       1.580 -35.818  24.362  0.00  0.00    -0.053 C 
ATOM     30  H8  H16 d   1       1.979 -33.767  25.027  0.00  0.00     0.033 H 
ATOM     31  H9  H16 d   1       1.625 -34.917  26.361  0.00  0.00     0.033 H 
ATOM     32  H10 H16 d   1       1.406 -36.770  24.886  0.00  0.00     0.034 H 
ATOM     33  H11 H16 d   1       0.623 -35.425  23.987  0.00  0.00     0.034 H 
ATOM     34  H1  H16 d   1       2.384 -35.323  22.346  0.00  0.00     0.057 H 
ENDBRANCH  17  18
ENDBRANCH   5  17
BRANCH   4  35
ATOM     35  C11 H16 d   1       4.015 -38.467  20.246  0.00  0.00    -0.035 C 
ATOM     36  H16 H16 d   1       4.159 -38.229  21.310  0.00  0.00     0.040 H 
ATOM     37  H17 H16 d   1       4.886 -38.118  19.671  0.00  0.00     0.040 H 
BRANCH  35  38
ATOM     38  C12 H16 d   1       3.879 -40.000  20.082  0.00  0.00    -0.065 C 
ATOM     39  H18 H16 d   1       4.832 -40.398  19.704  0.00  0.00     0.032 H 
ATOM     40  H19 H16 d   1       3.081 -40.205  19.353  0.00  0.00     0.032 H 
BRANCH  38  41
ATOM     41  C13 H16 d   1       3.534 -40.723  21.407  0.00  0.00    -0.076 C 
ATOM     42  H20 H16 d   1       3.452 -41.804  21.224  0.00  0.00     0.027 H 
ATOM     43  H21 H16 d   1       2.577 -40.343  21.794  0.00  0.00     0.027 H 
ATOM     44  H22 H16 d   1       4.328 -40.536  22.145  0.00  0.00     0.027 H 
ENDBRANCH  38  41
ENDBRANCH  35  38
ENDBRANCH   4  35
TORSDOF 5
