REMARK  5 active torsions:
REMARK  status: ('A' for Active; 'I' for Inactive)
REMARK    1  A    between atoms: S4_12  and  CA_1 
REMARK    2  A    between atoms: C5_10  and  C11_20 
REMARK    3  A    between atoms: C4_11  and  S4_12 
REMARK    4  A    between atoms: C11_20  and  C12_21 
REMARK    5  A    between atoms: C12_21  and  C13_22 
ROOT
ATOM      1  N1  H18 d   1       0.971 -36.856  18.411  0.00  0.00    -0.322 N 
ATOM      2  C6  H18 d   1       2.284 -37.358  18.765  0.00  0.00     0.253 A 
ATOM      3  O2  H18 d   1       3.161 -37.585  17.838  0.00  0.00    -0.268 OA
ATOM      4  C5  H18 d   1       2.552 -37.595  20.256  0.00  0.00     0.030 A 
ATOM      5  C4  H18 d   1       1.514 -37.311  21.209  0.00  0.00     0.056 A 
ATOM      6  C2  H18 d   1      -0.035 -36.587  19.376  0.00  0.00     0.046 A 
ATOM      7  C3  H18 d   1       0.235 -36.818  20.812  0.00  0.00     0.012 A 
ATOM      8  C7  H18 d   1      -0.823 -36.528  21.769  0.00  0.00    -0.049 A 
ATOM      9  C8  H18 d   1      -2.079 -36.042  21.306  0.00  0.00     0.035 A 
ATOM     10  C9  H18 d   1      -2.309 -35.832  19.915  0.00  0.00    -0.060 A 
ATOM     11  C10 H18 d   1      -1.297 -36.101  18.950  0.00  0.00    -0.055 A 
ATOM     12 CL   H18 d   1      -3.325 -35.701  22.384  0.00  0.00    -0.084 Cl
ATOM     13  H12 H18 d   1       0.765 -36.692  17.446  0.00  0.00     0.169 HD
ATOM     14  H13 H18 d   1      -0.656 -36.681  22.829  0.00  0.00     0.087 H 
ATOM     15  H14 H18 d   1      -3.273 -35.461  19.585  0.00  0.00     0.086 H 
ATOM     16  H15 H18 d   1      -1.490 -35.935  17.896  0.00  0.00     0.087 H 
ENDROOT
BRANCH   5  17
ATOM     17  S4  H18 d   1       1.844 -37.591  22.930  0.00  0.00     0.056 S 
ATOM     18  OS  H18 d   1       0.625 -38.153  23.612  0.00  0.00    -0.252 OA
BRANCH  17  19
ATOM     19  CA  H18 d   1       2.293 -35.962  23.658  0.00  0.00     0.024 C 
ATOM     20  CB  H18 d   1       3.835 -35.775  23.693  0.00  0.00    -0.051 C 
ATOM     21  CC  H18 d   1       4.154 -34.427  24.352  0.00  0.00    -0.064 C 
ATOM     22  H2  H18 d   1       4.233 -35.788  22.668  0.00  0.00     0.034 H 
ATOM     23  H3  H18 d   1       4.293 -36.589  24.275  0.00  0.00     0.034 H 
ATOM     24  CD  H18 d   1       3.859 -34.564  25.857  0.00  0.00    -0.065 C 
ATOM     25  H4  H18 d   1       3.523 -33.638  23.916  0.00  0.00     0.033 H 
ATOM     26  H5  H18 d   1       5.214 -34.176  24.199  0.00  0.00     0.033 H 
ATOM     27  CE  H18 d   1       2.378 -34.964  26.194  0.00  0.00    -0.064 C 
ATOM     28  H6  H18 d   1       4.073 -33.599  26.339  0.00  0.00     0.033 H 
ATOM     29  H7  H18 d   1       4.526 -35.335  26.270  0.00  0.00     0.033 H 
ATOM     30  CF  H18 d   1       1.587 -35.785  25.090  0.00  0.00    -0.051 C 
ATOM     31  H8  H18 d   1       1.818 -34.036  26.383  0.00  0.00     0.033 H 
ATOM     32  H9  H18 d   1       2.398 -35.573  27.110  0.00  0.00     0.033 H 
ATOM     33  H10 H18 d   1       1.403 -36.791  25.495  0.00  0.00     0.034 H 
ATOM     34  H11 H18 d   1       0.626 -35.276  24.924  0.00  0.00     0.034 H 
ATOM     35  H1  H18 d   1       1.890 -35.179  22.999  0.00  0.00     0.060 H 
ENDBRANCH  17  19
ENDBRANCH   5  17
BRANCH   4  36
ATOM     36  C11 H18 d   1       3.923 -38.130  20.718  0.00  0.00    -0.035 C 
ATOM     37  H16 H18 d   1       4.092 -37.865  21.772  0.00  0.00     0.040 H 
ATOM     38  H17 H18 d   1       4.722 -37.697  20.098  0.00  0.00     0.040 H 
BRANCH  36  39
ATOM     39  C12 H18 d   1       3.910 -39.655  20.560  0.00  0.00    -0.065 C 
ATOM     40  H18 H18 d   1       4.929 -39.983  20.306  0.00  0.00     0.032 H 
ATOM     41  H19 H18 d   1       3.226 -39.910  19.737  0.00  0.00     0.032 H 
BRANCH  39  42
ATOM     42  C13 H18 d   1       3.455 -40.425  21.822  0.00  0.00    -0.076 C 
ATOM     43  H20 H18 d   1       3.476 -41.506  21.619  0.00  0.00     0.027 H 
ATOM     44  H21 H18 d   1       2.432 -40.122  22.088  0.00  0.00     0.027 H 
ATOM     45  H22 H18 d   1       4.134 -40.195  22.657  0.00  0.00     0.027 H 
ENDBRANCH  39  42
ENDBRANCH  36  39
ENDBRANCH   4  36
TORSDOF 5
