REMARK  5 active torsions:
REMARK  status: ('A' for Active; 'I' for Inactive)
REMARK    1  A    between atoms: O4_12  and  CA_1 
REMARK    2  A    between atoms: C5_10  and  C11_20 
REMARK    3  A    between atoms: C4_11  and  O4_12 
REMARK    4  A    between atoms: C11_20  and  C12_21 
REMARK    5  A    between atoms: C11_20  and  C13_22 
ROOT
ATOM      1  N1  H20 d   1       0.708 -37.031  18.043  0.00  0.00    -0.322 N 
ATOM      2  C6  H20 d   1       1.847 -37.693  18.482  0.00  0.00     0.255 A 
ATOM      3  O2  H20 d   1       2.694 -38.080  17.657  0.00  0.00    -0.268 OA
ATOM      4  C5  H20 d   1       2.049 -37.882  19.932  0.00  0.00     0.048 A 
ATOM      5  C4  H20 d   1       1.108 -37.345  20.831  0.00  0.00     0.093 A 
ATOM      6  C2  H20 d   1      -0.218 -36.554  18.921  0.00  0.00     0.048 A 
ATOM      7  C3  H20 d   1      -0.030 -36.704  20.329  0.00  0.00     0.026 A 
ATOM      8  C7  H20 d   1      -1.081 -36.293  21.184  0.00  0.00    -0.047 A 
ATOM      9  C8  H20 d   1      -2.268 -35.764  20.670  0.00  0.00     0.035 A 
ATOM     10  C9  H20 d   1      -2.441 -35.623  19.296  0.00  0.00    -0.060 A 
ATOM     11  C10 H20 d   1      -1.409 -36.019  18.415  0.00  0.00    -0.055 A 
ATOM     12 CL   H20 d   1      -3.492 -35.284  21.715  0.00  0.00    -0.084 Cl
ATOM     13  H12 H20 d   1       0.565 -36.902  17.062  0.00  0.00     0.169 HD
ATOM     14  H13 H20 d   1      -0.963 -36.391  22.257  0.00  0.00     0.087 H 
ATOM     15  H14 H20 d   1      -3.364 -35.211  18.903  0.00  0.00     0.086 H 
ATOM     16  H15 H20 d   1      -1.540 -35.908  17.345  0.00  0.00     0.087 H 
ENDROOT
BRANCH   5  17
ATOM     17  O4  H20 d   1       1.308 -37.473  22.257  0.00  0.00    -0.344 OA
BRANCH  17  18
ATOM     18  CA  H20 d   1       1.747 -36.297  22.990  0.00  0.00     0.045 C 
ATOM     19  CB  H20 d   1       3.298 -36.220  23.422  0.00  0.00    -0.040 C 
ATOM     20  CC  H20 d   1       3.629 -35.017  24.291  0.00  0.00    -0.063 C 
ATOM     21  H2  H20 d   1       3.911 -36.169  22.510  0.00  0.00     0.036 H 
ATOM     22  H3  H20 d   1       3.549 -37.133  23.982  0.00  0.00     0.036 H 
ATOM     23  CD  H20 d   1       2.881 -35.116  25.588  0.00  0.00    -0.065 C 
ATOM     24  H4  H20 d   1       3.336 -34.095  23.768  0.00  0.00     0.033 H 
ATOM     25  H5  H20 d   1       4.710 -34.996  24.492  0.00  0.00     0.033 H 
ATOM     26  CE  H20 d   1       1.381 -34.930  25.356  0.00  0.00    -0.063 C 
ATOM     27  H6  H20 d   1       3.241 -34.335  26.274  0.00  0.00     0.033 H 
ATOM     28  H7  H20 d   1       3.058 -36.106  26.034  0.00  0.00     0.033 H 
ATOM     29  CF  H20 d   1       0.779 -35.916  24.269  0.00  0.00    -0.040 C 
ATOM     30  H8  H20 d   1       1.206 -33.896  25.023  0.00  0.00     0.033 H 
ATOM     31  H9  H20 d   1       0.858 -35.101  26.308  0.00  0.00     0.033 H 
ATOM     32  H10 H20 d   1       0.518 -36.855  24.780  0.00  0.00     0.036 H 
ATOM     33  H11 H20 d   1      -0.134 -35.451  23.868  0.00  0.00     0.036 H 
ATOM     34  H1  H20 d   1       1.619 -35.474  22.272  0.00  0.00     0.084 H 
ENDBRANCH  17  18
ENDBRANCH   5  17
BRANCH   4  35
ATOM     35  C11 H20 d   1       3.166 -38.860  20.343  0.00  0.00    -0.028 C 
ATOM     36  H16 H20 d   1       3.341 -39.433  19.420  0.00  0.00     0.046 H 
BRANCH  35  37
ATOM     37  C12 H20 d   1       4.529 -38.203  20.602  0.00  0.00    -0.069 C 
ATOM     38  H17 H20 d   1       5.259 -38.974  20.888  0.00  0.00     0.028 H 
ATOM     39  H18 H20 d   1       4.434 -37.469  21.416  0.00  0.00     0.028 H 
ATOM     40  H19 H20 d   1       4.871 -37.695  19.688  0.00  0.00     0.028 H 
ENDBRANCH  35  37
BRANCH  35  41
ATOM     41  C13 H20 d   1       2.758 -39.962  21.356  0.00  0.00    -0.069 C 
ATOM     42  H20 H20 d   1       1.772 -40.365  21.082  0.00  0.00     0.028 H 
ATOM     43  H21 H20 d   1       2.710 -39.531  22.367  0.00  0.00     0.028 H 
ATOM     44  H22 H20 d   1       3.503 -40.771  21.337  0.00  0.00     0.028 H 
ENDBRANCH  35  41
ENDBRANCH   4  35
TORSDOF 5
