REMARK  14 active torsions:
REMARK  status: ('A' for Active; 'I' for Inactive)
REMARK    1  A    between atoms: CA7_1  and  NA1_2 
REMARK    2  A    between atoms: CA1_8  and  CA_9 
REMARK    3  A    between atoms: CA_9  and  O3_11 
REMARK    4  A    between atoms: O3_11  and  C3_12 
REMARK    5  A    between atoms: C2_13  and  O2_14 
REMARK    6  A    between atoms: C4_15  and  C5_16 
REMARK    7  A    between atoms: C5_16  and  O5_17 
REMARK    8  A    between atoms: O5_17  and  PA_18 
REMARK    9  A    between atoms: PA_18  and  O1A_21 
REMARK   10  A    between atoms: O1A_21  and  PB_22 
REMARK   11  A    between atoms: PB_22  and  O1B_25 
REMARK   12  A    between atoms: O1B_25  and  PG_26 
REMARK   13  A    between atoms: C1_31  and  N9_32 
REMARK   14  A    between atoms: C2_38  and  N2_39 
ROOT
ATOM      1  C3  ONM d   1      60.256 -13.815  53.679  0.00  0.00     0.103 C 
ATOM      2  C2  ONM d   1      59.273 -14.357  52.657  0.00  0.00     0.106 C 
ATOM      3  C4  ONM d   1      59.313 -13.571  54.906  0.00  0.00     0.090 C 
ATOM      4  O4  ONM d   1      58.393 -14.675  54.890  0.00  0.00    -0.353 OA
ATOM      5  C1  ONM d   1      58.365 -15.193  53.533  0.00  0.00     0.140 C 
ATOM      6  H9  ONM d   1      60.706 -12.864  53.360  0.00  0.00     0.092 H 
ATOM      7  H10 ONM d   1      58.716 -13.538  52.179  0.00  0.00     0.093 H 
ATOM      8  H12 ONM d   1      59.960 -13.663  55.791  0.00  0.00     0.090 H 
ATOM      9  H15 ONM d   1      58.807 -16.200  53.566  0.00  0.00     0.122 H 
ENDROOT
BRANCH   1  10
ATOM     10  O3  ONM d   1      61.329 -14.829  53.816  0.00  0.00    -0.317 OA
BRANCH  10  11
ATOM     11  CA  ONM d   1      62.458 -14.705  54.598  0.00  0.00     0.228 C 
ATOM     12  OA  ONM d   1      62.755 -13.423  55.239  0.00  0.00    -0.163 OA
BRANCH  11  13
ATOM     13  CA1 ONM d   1      63.402 -15.926  54.819  0.00  0.00     0.051 A 
ATOM     14  CA6 ONM d   1      64.828 -15.841  54.739  0.00  0.00     0.042 A 
ATOM     15  NA1 ONM d   1      65.409 -14.642  54.456  0.00  0.00    -0.393 N 
ATOM     16  CA5 ONM d   1      65.655 -17.095  54.976  0.00  0.00    -0.057 A 
ATOM     17  H4  ONM d   1      64.765 -13.852  54.309  0.00  0.00     0.159 HD
ATOM     18  CA4 ONM d   1      65.000 -18.511  55.315  0.00  0.00    -0.081 A 
ATOM     19  H5  ONM d   1      66.735 -17.024  54.912  0.00  0.00     0.086 H 
ATOM     20  CA3 ONM d   1      63.565 -18.492  55.372  0.00  0.00    -0.082 A 
ATOM     21  H6  ONM d   1      65.586 -19.407  55.487  0.00  0.00     0.083 H 
ATOM     22  CA2 ONM d   1      62.767 -17.165  55.117  0.00  0.00    -0.066 A 
ATOM     23  H7  ONM d   1      63.026 -19.406  55.594  0.00  0.00     0.083 H 
ATOM     24  H8  ONM d   1      61.685 -17.193  55.170  0.00  0.00     0.085 H 
BRANCH  15  25
ATOM     25  CA7 ONM d   1      66.856 -14.333  54.333  0.00  0.00    -0.021 C 
ATOM     26  H1  ONM d   1      66.984 -13.267  54.096  0.00  0.00     0.056 H 
ATOM     27  H2  ONM d   1      67.294 -14.942  53.529  0.00  0.00     0.056 H 
ATOM     28  H3  ONM d   1      67.362 -14.561  55.283  0.00  0.00     0.056 H 
ENDBRANCH  15  25
ENDBRANCH  11  13
ENDBRANCH  10  11
ENDBRANCH   1  10
BRANCH   2  29
ATOM     29  O2  ONM d   1      59.900 -15.147  51.634  0.00  0.00    -0.388 OA
ATOM     30  H11 ONM d   1      60.339 -15.889  52.033  0.00  0.00     0.210 HD
ENDBRANCH   2  29
BRANCH   3  31
ATOM     31  C5  ONM d   1      58.491 -12.271  55.149  0.00  0.00     0.058 C 
ATOM     32  H13 ONM d   1      58.862 -11.833  56.087  0.00  0.00     0.079 H 
ATOM     33  H14 ONM d   1      57.443 -12.579  55.278  0.00  0.00     0.079 H 
BRANCH  31  34
ATOM     34  O5  ONM d   1      58.495 -11.217  54.171  0.00  0.00    -0.287 OA
BRANCH  34  35
ATOM     35  PA  ONM d   1      57.589  -9.881  54.368  0.00  0.00     0.417 P 
ATOM     36  O3A ONM d   1      58.032  -9.046  53.052  0.00  0.00    -0.624 OA
ATOM     37  O2A ONM d   1      56.168 -10.307  54.343  0.00  0.00    -0.624 OA
BRANCH  35  38
ATOM     38  O1A ONM d   1      58.252  -9.153  55.607  0.00  0.00    -0.180 OA
BRANCH  38  39
ATOM     39  PB  ONM d   1      57.398  -8.961  56.944  0.00  0.00     0.428 P 
ATOM     40  O3B ONM d   1      56.472 -10.290  57.064  0.00  0.00    -0.624 OA
ATOM     41  O2B ONM d   1      56.353  -7.919  56.826  0.00  0.00    -0.624 OA
BRANCH  39  42
ATOM     42  O1B ONM d   1      58.220  -9.026  58.207  0.00  0.00    -0.173 OA
BRANCH  42  43
ATOM     43  PG  ONM d   1      59.098  -7.754  58.175  0.00  0.00     0.431 P 
ATOM     44  O2G ONM d   1      60.686  -7.901  58.293  0.00  0.00    -0.616 OA
ATOM     45  O3G ONM d   1      58.496  -6.261  58.093  0.00  0.00    -0.616 OA
ATOM     46  O1G ONM d   1      58.601  -7.467  59.533  0.00  0.00    -0.616 OA
ENDBRANCH  42  43
ENDBRANCH  39  42
ENDBRANCH  38  39
ENDBRANCH  35  38
ENDBRANCH  34  35
ENDBRANCH  31  34
ENDBRANCH   3  31
BRANCH   5  47
ATOM     47  N9  ONM d   1      56.977 -15.378  53.021  0.00  0.00    -0.293 N 
ATOM     48  C8  ONM d   1      55.964 -14.514  52.893  0.00  0.00     0.071 A 
ATOM     49  N7  ONM d   1      54.926 -15.113  52.297  0.00  0.00    -0.234 NA
ATOM     50  H16 ONM d   1      55.981 -13.477  53.225  0.00  0.00     0.144 H 
ATOM     51  C5  ONM d   1      55.290 -16.355  52.012  0.00  0.00     0.173 A 
ATOM     52  C4  ONM d   1      56.602 -16.517  52.459  0.00  0.00     0.186 A 
ATOM     53  C6  ONM d   1      54.680 -17.477  51.383  0.00  0.00     0.292 A 
ATOM     54  N3  ONM d   1      57.281 -17.702  52.302  0.00  0.00    -0.044 NA
ATOM     55  C2  ONM d   1      56.724 -18.794  51.706  0.00  0.00     0.703 A 
ATOM     56  N1  ONM d   1      55.393 -18.701  51.230  0.00  0.00    -0.152 N 
ATOM     57  H19 ONM d   1      54.958 -19.487  50.791  0.00  0.00     0.187 HD
ATOM     58  O6  ONM d   1      53.532 -17.446  50.948  0.00  0.00    -0.265 OA
BRANCH  55  59
ATOM     59  N2  ONM d   1      57.421 -19.917  51.584  0.00  0.00    -0.233 N 
ATOM     60  H17 ONM d   1      58.388 -19.964  51.937  0.00  0.00     0.174 HD
ATOM     61  H18 ONM d   1      56.995 -20.741  51.137  0.00  0.00     0.174 HD
ENDBRANCH  55  59
ENDBRANCH   5  47
TORSDOF 14
