REMARK  20 active torsions:
REMARK  status: ('A' for Active; 'I' for Inactive)
REMARK    1  A    between atoms: C_1  and  CH3_3 
REMARK       I    between atoms: C_1  and  N_4 
REMARK    2  A    between atoms: N_4  and  CA_5 
REMARK    3  A    between atoms: CA_5  and  C_6 
REMARK    4  A    between atoms: CA_5  and  CB_8 
REMARK       I    between atoms: C_6  and  N_12 
REMARK    5  A    between atoms: CB_8  and  CG_9 
REMARK    6  A    between atoms: CG_9  and  CD1_10 
REMARK    7  A    between atoms: CG_9  and  CD2_11 
REMARK    8  A    between atoms: N_12  and  CA_13 
REMARK    9  A    between atoms: CA_13  and  C_14 
REMARK   10  A    between atoms: CA_13  and  CB_16 
REMARK       I    between atoms: C_14  and  N_20 
REMARK   11  A    between atoms: CB_16  and  CG_17 
REMARK   12  A    between atoms: CG_17  and  CD1_18 
REMARK   13  A    between atoms: CG_17  and  CD2_19 
REMARK   14  A    between atoms: N_20  and  CA_21 
REMARK   15  A    between atoms: CA_21  and  C_22 
REMARK   16  A    between atoms: CA_21  and  CB_24 
REMARK   17  A    between atoms: C_22  and  O_23 
REMARK   18  A    between atoms: CB_24  and  CG_25 
REMARK   19  A    between atoms: CG_25  and  CD_26 
REMARK   20  A    between atoms: CD_26  and  NE_27 
REMARK       I    between atoms: NE_27  and  CZ_28 
REMARK       I    between atoms: CZ_28  and  NH1_29 
ROOT
ATOM      1  CA  LEU d   1      33.149  20.156  34.666  0.00  0.00     0.089 C 
ATOM      2  H16 LEU d   1      33.405  21.046  34.073  0.00  0.00     0.087 H 
ENDROOT
BRANCH   1   3
ATOM      3  N   LEU d   1      33.789  20.262  35.967  0.00  0.00    -0.346 N 
ATOM      4  C   LEU d   1      34.309  21.398  36.417  0.00  0.00     0.241 C 
ATOM      5  O   LEU d   1      34.357  22.441  35.756  0.00  0.00    -0.271 OA
ATOM      6  H15 LEU d   1      33.840  19.448  36.545  0.00  0.00     0.163 HD
BRANCH   4   7
ATOM      7  CA  LEU d   1      34.963  21.303  37.785  0.00  0.00     0.089 C 
ATOM      8  H5  LEU d   1      35.123  20.241  38.022  0.00  0.00     0.087 H 
BRANCH   7   9
ATOM      9  N   LEU d   1      36.264  21.971  37.765  0.00  0.00    -0.348 N 
ATOM     10  C   ACE d   1      37.318  21.464  37.117  0.00  0.00     0.214 C 
ATOM     11  O   ACE d   1      37.296  20.385  36.509  0.00  0.00    -0.274 OA
ATOM     12  H4  LEU d   1      36.369  22.837  38.253  0.00  0.00     0.163 HD
BRANCH  10  13
ATOM     13  CH3 ACE d   1      38.575  22.271  37.181  0.00  0.00    -0.003 C 
ATOM     14  H1  ACE d   1      38.393  23.188  37.761  0.00  0.00     0.040 H 
ATOM     15  H2  ACE d   1      38.891  22.538  36.162  0.00  0.00     0.040 H 
ATOM     16  H3  ACE d   1      39.365  21.680  37.667  0.00  0.00     0.040 H 
ENDBRANCH  10  13
ENDBRANCH   7   9
BRANCH   7  17
ATOM     17  CB  LEU d   1      34.046  21.901  38.858  0.00  0.00    -0.035 C 
ATOM     18  H6  LEU d   1      33.077  21.385  38.789  0.00  0.00     0.037 H 
ATOM     19  H7  LEU d   1      33.911  22.967  38.621  0.00  0.00     0.037 H 
BRANCH  17  20
ATOM     20  CG  LEU d   1      34.515  21.809  40.317  0.00  0.00    -0.059 C 
ATOM     21  H8  LEU d   1      35.520  22.251  40.386  0.00  0.00     0.038 H 
BRANCH  20  22
ATOM     22  CD1 LEU d   1      33.576  22.605  41.197  0.00  0.00    -0.073 C 
ATOM     23  H9  LEU d   1      33.910  22.540  42.243  0.00  0.00     0.028 H 
ATOM     24  H10 LEU d   1      32.558  22.196  41.111  0.00  0.00     0.028 H 
ATOM     25  H11 LEU d   1      33.577  23.657  40.876  0.00  0.00     0.028 H 
ENDBRANCH  20  22
BRANCH  20  26
ATOM     26  CD2 LEU d   1      34.598  20.363  40.798  0.00  0.00    -0.073 C 
ATOM     27  H12 LEU d   1      35.284  19.799  40.148  0.00  0.00     0.028 H 
ATOM     28  H13 LEU d   1      33.598  19.906  40.760  0.00  0.00     0.028 H 
ATOM     29  H14 LEU d   1      34.972  20.341  41.832  0.00  0.00     0.028 H 
ENDBRANCH  20  26
ENDBRANCH  17  20
ENDBRANCH   7  17
ENDBRANCH   4   7
ENDBRANCH   1   3
BRANCH   1  30
ATOM     30  C   LEU d   1      31.641  20.094  34.826  0.00  0.00     0.240 C 
ATOM     31  O   LEU d   1      31.133  19.531  35.799  0.00  0.00    -0.271 OA
ATOM     32  N   AR7 d   1      30.938  20.705  33.878  0.00  0.00    -0.353 N 
ATOM     33  H26 AR7 d   1      31.425  21.169  33.138  0.00  0.00     0.163 HD
BRANCH  32  34
ATOM     34  CA  AR7 d   1      29.481  20.722  33.881  0.00  0.00     0.032 C 
ATOM     35  H27 AR7 d   1      29.170  20.332  34.861  0.00  0.00     0.075 H 
BRANCH  34  36
ATOM     36  C   AR7 d   1      28.801  19.729  32.749  0.00  0.00     0.035 C 
ATOM     37  H28 AR7 d   1      29.290  18.762  32.934  0.00  0.00     0.077 H 
ATOM     38  H29 AR7 d   1      29.162  20.146  31.797  0.00  0.00     0.077 H 
BRANCH  36  39
ATOM     39  O   AR7 d   1      27.619  19.409  32.493  0.00  0.00    -0.399 OA
ATOM     40  H30 AR7 d   1      27.122  20.188  32.272  0.00  0.00     0.209 HD
ENDBRANCH  36  39
ENDBRANCH  34  36
BRANCH  34  41
ATOM     41  CB  AR7 d   1      28.937  22.139  33.781  0.00  0.00    -0.043 C 
ATOM     42  H31 AR7 d   1      27.953  22.099  33.290  0.00  0.00     0.036 H 
ATOM     43  H32 AR7 d   1      29.629  22.734  33.167  0.00  0.00     0.036 H 
BRANCH  41  44
ATOM     44  CG  AR7 d   1      28.776  22.823  35.117  0.00  0.00    -0.048 C 
ATOM     45  H33 AR7 d   1      29.770  23.023  35.543  0.00  0.00     0.035 H 
ATOM     46  H34 AR7 d   1      28.213  22.165  35.795  0.00  0.00     0.035 H 
BRANCH  44  47
ATOM     47  CD  AR7 d   1      28.029  24.132  34.959  0.00  0.00     0.009 C 
ATOM     48  H35 AR7 d   1      28.578  24.765  34.247  0.00  0.00     0.064 H 
ATOM     49  H36 AR7 d   1      27.987  24.632  35.938  0.00  0.00     0.064 H 
BRANCH  47  50
ATOM     50  NE  AR7 d   1      26.665  23.954  34.468  0.00  0.00    -0.227 N 
ATOM     51  CZ  AR7 d   1      25.576  24.055  35.226  0.00  0.00     0.665 C 
ATOM     52  NH1 AR7 d   1      24.379  23.874  34.686  0.00  0.00    -0.235 N 
ATOM     53  NH2 AR7 d   1      25.679  24.329  36.521  0.00  0.00    -0.235 N 
ATOM     54  H38 AR7 d   1      23.534  23.951  35.270  0.00  0.00     0.174 HD
ATOM     55  H39 AR7 d   1      24.294  23.656  33.683  0.00  0.00     0.174 HD
ATOM     56  H40 AR7 d   1      26.607  24.471  36.945  0.00  0.00     0.174 HD
ATOM     57  H41 AR7 d   1      24.831  24.400  37.101  0.00  0.00     0.174 HD
ATOM     58  H37 AR7 d   1      26.538  23.736  33.469  0.00  0.00     0.177 HD
ENDBRANCH  47  50
ENDBRANCH  44  47
ENDBRANCH  41  44
ENDBRANCH  34  41
ENDBRANCH  32  34
ENDBRANCH   1  30
BRANCH   1  59
ATOM     59  CB  LEU d   1      33.658  18.907  33.927  0.00  0.00    -0.035 C 
ATOM     60  H17 LEU d   1      33.287  18.965  32.893  0.00  0.00     0.037 H 
ATOM     61  H18 LEU d   1      33.219  18.030  34.426  0.00  0.00     0.037 H 
BRANCH  59  62
ATOM     62  CG  LEU d   1      35.179  18.679  33.855  0.00  0.00    -0.059 C 
ATOM     63  H19 LEU d   1      35.573  18.693  34.882  0.00  0.00     0.038 H 
BRANCH  62  64
ATOM     64  CD1 LEU d   1      35.478  17.334  33.260  0.00  0.00    -0.073 C 
ATOM     65  H20 LEU d   1      36.567  17.187  33.216  0.00  0.00     0.028 H 
ATOM     66  H21 LEU d   1      35.059  17.281  32.244  0.00  0.00     0.028 H 
ATOM     67  H22 LEU d   1      35.027  16.549  33.884  0.00  0.00     0.028 H 
ENDBRANCH  62  64
BRANCH  62  68
ATOM     68  CD2 LEU d   1      35.873  19.786  33.073  0.00  0.00    -0.073 C 
ATOM     69  H23 LEU d   1      35.638  20.759  33.529  0.00  0.00     0.028 H 
ATOM     70  H24 LEU d   1      35.521  19.775  32.031  0.00  0.00     0.028 H 
ATOM     71  H25 LEU d   1      36.961  19.624  33.095  0.00  0.00     0.028 H 
ENDBRANCH  62  68
ENDBRANCH  59  62
ENDBRANCH   1  59
TORSDOF 20
