REMARK  15 active torsions:
REMARK  status: ('A' for Active; 'I' for Inactive)
REMARK    1  A    between atoms: C1_1  and  C2_4 
REMARK    2  A    between atoms: C2_4  and  C3_5 
REMARK    3  A    between atoms: C3_5  and  O3_6 
REMARK    4  A    between atoms: C3_5  and  C4_7 
REMARK       I    between atoms: C4_7  and  N1_9 
REMARK    5  A    between atoms: N1_9  and  C6_10 
REMARK    6  A    between atoms: C6_10  and  C7_11 
REMARK    7  A    between atoms: C6_10  and  C11_15 
REMARK    8  A    between atoms: C7_11  and  C8_12 
REMARK    9  A    between atoms: C8_12  and  C9_13 
REMARK   10  A    between atoms: C8_12  and  C10_14 
REMARK       I    between atoms: C11_15  and  N2_17 
REMARK   11  A    between atoms: N2_17  and  C12_18 
REMARK   12  A    between atoms: C12_18  and  C13_19 
REMARK   13  A    between atoms: C13_19  and  C14_20 
REMARK   14  A    between atoms: C14_20  and  C15_21 
REMARK   15  A    between atoms: C15_21  and  N3_22 
REMARK       I    between atoms: N3_22  and  C16_23 
REMARK       I    between atoms: C16_23  and  N4_24 
REMARK       I    between atoms: C16_23  and  N5_25 
ROOT
ATOM      1  C6  E64 d   1       5.498  40.471  21.944  0.00  0.00     0.089 C 
ATOM      2  H6  E64 d   1       5.354  40.575  20.858  0.00  0.00     0.087 H 
ENDROOT
BRANCH   1   3
ATOM      3  N1  E64 d   1       6.888  40.520  22.149  0.00  0.00    -0.346 N 
ATOM      4  C4  E64 d   1       7.854  40.475  21.204  0.00  0.00     0.247 C 
ATOM      5  O4  E64 d   1       7.532  40.668  19.990  0.00  0.00    -0.271 OA
ATOM      6  H5  E64 d   1       7.196  40.596  23.097  0.00  0.00     0.163 HD
BRANCH   4   7
ATOM      7  C3  E64 d   1       9.266  40.182  21.792  0.00  0.00     0.121 C 
ATOM      8  H3  E64 d   1       9.916  41.044  21.583  0.00  0.00     0.098 H 
BRANCH   7   9
ATOM      9  C2  E64 d   1       9.856  38.871  21.081  0.00  0.00     0.048 C 
ATOM     10  H1  E64 d   1       9.351  37.992  21.508  0.00  0.00     0.053 H 
ATOM     11  H2  E64 d   1       9.635  38.935  20.005  0.00  0.00     0.053 H 
BRANCH   9  12
ATOM     12  C1  E64 d   1      11.356  38.684  21.247  0.00  0.00     0.175 C 
ATOM     13  O1  E64 d   1      12.059  39.160  20.264  0.00  0.00    -0.648 OA
ATOM     14  O2  E64 d   1      11.857  38.128  22.195  0.00  0.00    -0.648 OA
ENDBRANCH   9  12
ENDBRANCH   7   9
BRANCH   7  15
ATOM     15  O3  E64 d   1       9.268  39.951  23.116  0.00  0.00    -0.386 OA
ATOM     16  H4  E64 d   1       8.725  39.195  23.305  0.00  0.00     0.210 HD
ENDBRANCH   7  15
ENDBRANCH   4   7
ENDBRANCH   1   3
BRANCH   1  17
ATOM     17  C7  E64 d   1       4.827  39.211  22.362  0.00  0.00    -0.035 C 
ATOM     18  H7  E64 d   1       3.783  39.314  22.031  0.00  0.00     0.037 H 
ATOM     19  H8  E64 d   1       4.865  39.212  23.461  0.00  0.00     0.037 H 
BRANCH  17  20
ATOM     20  C8  E64 d   1       5.235  37.843  21.956  0.00  0.00    -0.059 C 
ATOM     21  H9  E64 d   1       6.258  37.619  22.291  0.00  0.00     0.038 H 
BRANCH  20  22
ATOM     22  C9  E64 d   1       4.222  36.843  22.659  0.00  0.00    -0.073 C 
ATOM     23  H10 E64 d   1       4.481  35.809  22.389  0.00  0.00     0.028 H 
ATOM     24  H11 E64 d   1       3.198  37.063  22.324  0.00  0.00     0.028 H 
ATOM     25  H12 E64 d   1       4.285  36.964  23.750  0.00  0.00     0.028 H 
ENDBRANCH  20  22
BRANCH  20  26
ATOM     26  C10 E64 d   1       5.186  37.833  20.380  0.00  0.00    -0.073 C 
ATOM     27  H13 E64 d   1       5.918  38.553  19.986  0.00  0.00     0.028 H 
ATOM     28  H14 E64 d   1       4.177  38.114  20.043  0.00  0.00     0.028 H 
ATOM     29  H15 E64 d   1       5.428  36.825  20.012  0.00  0.00     0.028 H 
ENDBRANCH  20  26
ENDBRANCH  17  20
ENDBRANCH   1  17
BRANCH   1  30
ATOM     30  C11 E64 d   1       4.706  41.609  22.633  0.00  0.00     0.240 C 
ATOM     31  O5  E64 d   1       5.117  41.899  23.750  0.00  0.00    -0.271 OA
ATOM     32  N2  E64 d   1       3.713  42.192  22.004  0.00  0.00    -0.359 N 
ATOM     33  H16 E64 d   1       3.496  41.834  21.096  0.00  0.00     0.162 HD
BRANCH  32  34
ATOM     34  C12 E64 d   1       2.894  43.291  22.467  0.00  0.00    -0.005 C 
ATOM     35  H17 E64 d   1       3.213  43.651  23.456  0.00  0.00     0.064 H 
ATOM     36  H18 E64 d   1       1.828  43.022  22.500  0.00  0.00     0.064 H 
BRANCH  34  37
ATOM     37  C13 E64 d   1       3.188  44.306  21.373  0.00  0.00    -0.049 C 
ATOM     38  H19 E64 d   1       3.308  43.806  20.401  0.00  0.00     0.035 H 
ATOM     39  H20 E64 d   1       4.099  44.876  21.607  0.00  0.00     0.035 H 
BRANCH  37  40
ATOM     40  C14 E64 d   1       1.997  45.200  21.361  0.00  0.00    -0.048 C 
ATOM     41  H21 E64 d   1       2.117  46.012  22.093  0.00  0.00     0.035 H 
ATOM     42  H22 E64 d   1       1.085  44.630  21.591  0.00  0.00     0.035 H 
BRANCH  40  43
ATOM     43  C15 E64 d   1       1.934  45.762  19.943  0.00  0.00     0.009 C 
ATOM     44  H23 E64 d   1       2.896  46.189  19.621  0.00  0.00     0.064 H 
ATOM     45  H24 E64 d   1       1.142  46.516  19.829  0.00  0.00     0.064 H 
BRANCH  43  46
ATOM     46  N3  E64 d   1       1.618  44.516  19.241  0.00  0.00    -0.227 N 
ATOM     47  C16 E64 d   1       1.382  44.160  17.812  0.00  0.00     0.665 C 
ATOM     48  N4  E64 d   1       1.129  42.813  17.785  0.00  0.00    -0.235 N 
ATOM     49  N5  E64 d   1       1.379  44.915  16.586  0.00  0.00    -0.235 N 
ATOM     50  H26 E64 d   1       0.935  42.343  16.889  0.00  0.00     0.174 HD
ATOM     51  H27 E64 d   1       1.133  42.271  18.661  0.00  0.00     0.174 HD
ATOM     52  H28 E64 d   1       1.569  45.927  16.604  0.00  0.00     0.174 HD
ATOM     53  H29 E64 d   1       1.187  44.443  15.691  0.00  0.00     0.174 HD
ATOM     54  H25 E64 d   1       1.542  43.707  19.874  0.00  0.00     0.177 HD
ENDBRANCH  43  46
ENDBRANCH  40  43
ENDBRANCH  37  40
ENDBRANCH  34  37
ENDBRANCH  32  34
ENDBRANCH   1  30
TORSDOF 15
