REMARK  12 active torsions:
REMARK  status: ('A' for Active; 'I' for Inactive)
REMARK    1  A    between atoms: C_1  and  O_2 
REMARK    2  A    between atoms: C_1  and  N_3 
REMARK    3  A    between atoms: N_3  and  CA_4 
REMARK    4  A    between atoms: CA_16  and  CB_19 
REMARK    5  A    between atoms: CB_19  and  CG_20 
REMARK    6  A    between atoms: CG_20  and  CD_21 
REMARK    7  A    between atoms: CD_21  and  NE_22 
REMARK       I    between atoms: NE_22  and  CZ_23 
REMARK       I    between atoms: CZ_23  and  NH2_25 
REMARK    8  A    between atoms: CA_29  and  CB_32 
REMARK    9  A    between atoms: CB_32  and  CG_33 
REMARK   10  A    between atoms: CA_40  and  CB_42 
REMARK   11  A    between atoms: CB_42  and  CG_43 
REMARK   12  A    between atoms: CZ_48  and  OH_49 
ROOT
ATOM      1  CA  0FL d   1      16.887 -16.118  22.980  0.00  0.00     0.195 C 
ATOM      2  C   0FL d   1      16.771 -14.665  22.486  0.00  0.00     0.253 C 
ATOM      3  O   0FL d   1      15.764 -14.039  22.857  0.00  0.00    -0.271 OA
ATOM      4  CB  0FL d   1      15.672 -16.872  22.421  0.00  0.00     0.030 C 
ATOM      5  N2  0FL d   1      15.609 -16.680  20.913  0.00  0.00    -0.355 N 
ATOM      6  H6  0FL d   1      17.820 -16.587  22.634  0.00  0.00     0.102 H 
ATOM      7  H7  0FL d   1      14.753 -16.479  22.880  0.00  0.00     0.068 H 
ATOM      8  H8  0FL d   1      15.767 -17.944  22.651  0.00  0.00     0.068 H 
ATOM      9  H49 0FL d   1      15.589 -15.762  20.517  0.00  0.00     0.162 HD
ATOM     10  N   PRO d   1      17.708 -14.250  21.682  0.00  0.00    -0.337 N 
ATOM     11  CA  PRO d   1      17.646 -12.865  21.150  0.00  0.00     0.091 A 
ATOM     12  C   PRO d   1      16.319 -12.779  20.384  0.00  0.00     0.241 C 
ATOM     13  O   PRO d   1      15.931 -13.821  19.811  0.00  0.00    -0.271 OA
ATOM     14  CB  PRO d   1      18.940 -12.676  20.426  0.00  0.00    -0.036 A 
ATOM     15  CG  PRO d   1      19.729 -13.954  20.524  0.00  0.00    -0.048 A 
ATOM     16  CD  PRO d   1      18.909 -14.986  21.267  0.00  0.00    -0.001 A 
ATOM     17  H9  PRO d   1      17.608 -12.132  21.969  0.00  0.00     0.087 H 
ATOM     18  H10 PRO d   1      19.507 -11.853  20.886  0.00  0.00     0.036 H 
ATOM     19  H11 PRO d   1      18.744 -12.440  19.370  0.00  0.00     0.036 H 
ATOM     20  H12 PRO d   1      20.667 -13.767  21.068  0.00  0.00     0.035 H 
ATOM     21  H13 PRO d   1      19.959 -14.324  19.514  0.00  0.00     0.035 H 
ATOM     22  H14 PRO d   1      18.645 -15.825  20.607  0.00  0.00     0.064 H 
ATOM     23  H15 PRO d   1      19.457 -15.366  22.142  0.00  0.00     0.064 H 
ATOM     24  N   0MG d   1      15.593 -11.678  20.385  0.00  0.00    -0.347 N 
ATOM     25  CA  0MG d   1      14.288 -11.534  19.713  0.00  0.00     0.079 C 
ATOM     26  C   0MG d   1      14.324 -10.968  18.294  0.00  0.00     0.238 C 
ATOM     27  O   0MG d   1      13.352 -10.317  17.880  0.00  0.00    -0.285 OA
ATOM     28  C   0MG d   1      15.476 -11.428  17.414  0.00  0.00     0.290 C 
ATOM     29  O   0MG d   1      16.663 -11.042  17.414  0.00  0.00    -0.264 OA
ATOM     30  H16 0MG d   1      15.953 -10.885  20.876  0.00  0.00     0.163 HD
ATOM     31  H17 0MG d   1      13.936 -12.569  19.595  0.00  0.00     0.085 H 
ATOM     32  N   DPN d   1      15.163 -12.493  16.667  0.00  0.00    -0.341 N 
ATOM     33  CA  DPN d   1      16.017 -13.178  15.690  0.00  0.00     0.093 C 
ATOM     34  C   DPN d   1      15.304 -14.557  15.735  0.00  0.00     0.241 C 
ATOM     35  O   DPN d   1      14.080 -14.573  15.529  0.00  0.00    -0.271 OA
ATOM     36  H29 DPN d   1      14.242 -12.864  16.788  0.00  0.00     0.163 HD
ATOM     37  H30 DPN d   1      17.049 -13.245  16.065  0.00  0.00     0.088 H 
ATOM     38  N   VLT d   1      16.098 -15.522  16.138  0.00  0.00    -0.351 N 
ATOM     39  CA  VLT d   1      15.503 -16.844  16.396  0.00  0.00     0.033 C 
ATOM     40  C   VLT d   1      15.559 -16.774  17.919  0.00  0.00    -0.076 C 
ATOM     41  C1  VLT d   1      15.559 -17.829  18.680  0.00  0.00    -0.019 C 
ATOM     42  C2  VLT d   1      15.581 -17.734  20.147  0.00  0.00     0.240 C 
ATOM     43  O2  VLT d   1      15.552 -18.855  20.642  0.00  0.00    -0.269 OA
ATOM     44  H38 VLT d   1      17.077 -15.364  16.266  0.00  0.00     0.163 HD
ATOM     45  H39 VLT d   1      14.465 -16.925  16.041  0.00  0.00     0.079 H 
ATOM     46  H40 VLT d   1      15.601 -15.794  18.392  0.00  0.00     0.080 H 
ATOM     47  H48 VLT d   1      15.542 -18.814  18.216  0.00  0.00     0.091 H 
ENDROOT
BRANCH  25  48
ATOM     48  CB  0MG d   1      13.184 -10.826  20.551  0.00  0.00    -0.038 C 
ATOM     49  H18 0MG d   1      12.386 -10.454  19.891  0.00  0.00     0.036 H 
ATOM     50  H19 0MG d   1      13.615  -9.986  21.115  0.00  0.00     0.036 H 
BRANCH  48  51
ATOM     51  CG  0MG d   1      12.624 -11.884  21.519  0.00  0.00    -0.048 C 
ATOM     52  H20 0MG d   1      13.447 -12.515  21.885  0.00  0.00     0.035 H 
ATOM     53  H21 0MG d   1      11.890 -12.509  20.990  0.00  0.00     0.035 H 
BRANCH  51  54
ATOM     54  CD  0MG d   1      11.968 -11.221  22.665  0.00  0.00     0.009 C 
ATOM     55  H22 0MG d   1      11.192 -10.543  22.279  0.00  0.00     0.064 H 
ATOM     56  H23 0MG d   1      12.725 -10.639  23.212  0.00  0.00     0.064 H 
BRANCH  54  57
ATOM     57  NE  0MG d   1      11.349 -12.152  23.587  0.00  0.00    -0.227 N 
ATOM     58  CZ  0MG d   1      10.456 -11.951  24.516  0.00  0.00     0.665 C 
ATOM     59  NH1 0MG d   1      10.091 -10.694  24.843  0.00  0.00    -0.235 N 
ATOM     60  NH2 0MG d   1       9.828 -12.981  25.176  0.00  0.00    -0.235 N 
ATOM     61  H25 0MG d   1       9.386 -10.537  25.577  0.00  0.00     0.174 HD
ATOM     62  H26 0MG d   1      10.518  -9.891  24.359  0.00  0.00     0.174 HD
ATOM     63  H27 0MG d   1      10.074 -13.957  24.959  0.00  0.00     0.174 HD
ATOM     64  H28 0MG d   1       9.111 -12.776  25.887  0.00  0.00     0.174 HD
ATOM     65  H24 0MG d   1      11.665 -13.128  23.494  0.00  0.00     0.177 HD
ENDBRANCH  54  57
ENDBRANCH  51  54
ENDBRANCH  48  51
ENDBRANCH  25  48
BRANCH  33  66
ATOM     66  CB  DPN d   1      16.076 -12.618  14.303  0.00  0.00    -0.014 C 
ATOM     67  H31 DPN d   1      16.537 -13.377  13.654  0.00  0.00     0.043 H 
ATOM     68  H32 DPN d   1      16.713 -11.722  14.329  0.00  0.00     0.043 H 
BRANCH  66  69
ATOM     69  CG  DPN d   1      14.757 -12.227  13.688  0.00  0.00    -0.056 A 
ATOM     70  CD1 DPN d   1      14.005 -13.135  12.943  0.00  0.00    -0.077 A 
ATOM     71  CE1 DPN d   1      12.815 -12.721  12.340  0.00  0.00    -0.082 A 
ATOM     72  H33 DPN d   1      14.343 -14.159  12.832  0.00  0.00     0.084 H 
ATOM     73  CZ  DPN d   1      12.383 -11.399  12.456  0.00  0.00    -0.083 A 
ATOM     74  H35 DPN d   1      12.222 -13.433  11.777  0.00  0.00     0.083 H 
ATOM     75  CE2 DPN d   1      13.134 -10.466  13.220  0.00  0.00    -0.082 A 
ATOM     76  H37 DPN d   1      11.472 -11.083  11.962  0.00  0.00     0.083 H 
ATOM     77  CD2 DPN d   1      14.296 -10.903  13.842  0.00  0.00    -0.077 A 
ATOM     78  H36 DPN d   1      12.807  -9.437  13.315  0.00  0.00     0.083 H 
ATOM     79  H34 DPN d   1      14.860 -10.213  14.458  0.00  0.00     0.084 H 
ENDBRANCH  66  69
ENDBRANCH  33  66
BRANCH   1  80
ATOM     80  N   0FL d   1      16.858 -16.056  24.418  0.00  0.00    -0.040 N 
ATOM     81  H4  0FL d   1      17.105 -15.111  24.667  0.00  0.00     0.280 HD
ATOM     82  H5  0FL d   1      15.905 -16.238  24.692  0.00  0.00     0.280 HD
BRANCH  80  83
ATOM     83  C   0FL d   1      17.623 -16.854  25.164  0.00  0.00     0.162 C 
ATOM     84  H1  0FL d   1      18.673 -16.544  25.055  0.00  0.00     0.118 H 
ATOM     85  H2  0FL d   1      17.319 -16.757  26.217  0.00  0.00     0.118 H 
BRANCH  83  86
ATOM     86  O   0FL d   1      17.513 -18.082  24.811  0.00  0.00    -0.375 OA
ATOM     87  H3  0FL d   1      17.779 -18.175  23.904  0.00  0.00     0.211 HD
ENDBRANCH  83  86
ENDBRANCH  80  83
ENDBRANCH   1  80
BRANCH  39  88
ATOM     88  CB  VLT d   1      16.364 -17.938  15.691  0.00  0.00    -0.019 C 
ATOM     89  H41 VLT d   1      15.932 -18.938  15.845  0.00  0.00     0.043 H 
ATOM     90  H42 VLT d   1      17.399 -17.924  16.064  0.00  0.00     0.043 H 
BRANCH  88  91
ATOM     91  CG  VLT d   1      16.309 -17.538  14.202  0.00  0.00    -0.056 A 
ATOM     92  CD1 VLT d   1      15.050 -17.678  13.579  0.00  0.00    -0.074 A 
ATOM     93  CE1 VLT d   1      14.842 -17.313  12.253  0.00  0.00    -0.051 A 
ATOM     94  H43 VLT d   1      14.222 -18.081  14.150  0.00  0.00     0.084 H 
ATOM     95  CZ  VLT d   1      15.921 -16.772  11.554  0.00  0.00     0.065 A 
ATOM     96  H45 VLT d   1      13.876 -17.444  11.780  0.00  0.00     0.087 H 
ATOM     97  CE2 VLT d   1      17.166 -16.611  12.151  0.00  0.00    -0.051 A 
ATOM     98  CD2 VLT d   1      17.368 -17.004  13.476  0.00  0.00    -0.074 A 
ATOM     99  H46 VLT d   1      17.984 -16.179  11.586  0.00  0.00     0.087 H 
ATOM    100  H44 VLT d   1      18.344 -16.893  13.935  0.00  0.00     0.084 H 
BRANCH  95 101
ATOM    101  OH  VLT d   1      15.716 -16.395  10.237  0.00  0.00    -0.361 OA
ATOM    102  H47 VLT d   1      14.815 -16.574   9.994  0.00  0.00     0.217 HD
ENDBRANCH  95 101
ENDBRANCH  88  91
ENDBRANCH  39  88
TORSDOF 12
