REMARK  11 active torsions:
REMARK  status: ('A' for Active; 'I' for Inactive)
REMARK    1  A    between atoms: O3B_8  and  PG_1 
REMARK    2  A    between atoms: PB_5  and  O3B_8 
REMARK    3  A    between atoms: C3A_12  and  PB_5 
REMARK    4  A    between atoms: PA_9  and  C3A_12 
REMARK    5  A    between atoms: PA_9  and  O5_13 
REMARK    6  A    between atoms: O5_13  and  C5_14 
REMARK    7  A    between atoms: C5_14  and  C4_15 
REMARK    8  A    between atoms: C3_17  and  O3_18 
REMARK    9  A    between atoms: C2_19  and  O2_20 
REMARK   10  A    between atoms: C1_21  and  N9_22 
REMARK   11  A    between atoms: C6_26  and  N6_27 
ROOT
ATOM      1  C4  APC d   1      13.155 -11.631   5.376  0.00  0.00     0.089 C 
ATOM      2  O4  APC d   1      13.834 -10.396   5.461  0.00  0.00    -0.353 OA
ATOM      3  C3  APC d   1      11.900 -11.405   6.105  0.00  0.00     0.091 C 
ATOM      4  C2  APC d   1      12.335 -10.471   7.251  0.00  0.00     0.105 C 
ATOM      5  C1  APC d   1      13.744 -10.085   6.881  0.00  0.00     0.139 C 
ATOM      6  H5  APC d   1      13.712 -12.446   5.861  0.00  0.00     0.090 H 
ATOM      7  H6  APC d   1      11.169 -10.886   5.468  0.00  0.00     0.091 H 
ATOM      8  H8  APC d   1      11.677  -9.593   7.336  0.00  0.00     0.093 H 
ATOM      9  H10 APC d   1      14.443 -10.713   7.453  0.00  0.00     0.122 H 
ENDROOT
BRANCH   1  10
ATOM     10  C5  APC d   1      13.074 -11.915   3.756  0.00  0.00     0.056 C 
ATOM     11  H3  APC d   1      14.084 -11.899   3.321  0.00  0.00     0.079 H 
ATOM     12  H4  APC d   1      12.609 -12.894   3.569  0.00  0.00     0.079 H 
BRANCH  10  13
ATOM     13  O5  APC d   1      12.292 -10.896   3.191  0.00  0.00    -0.309 OA
BRANCH  13  14
ATOM     14  PA  APC d   1      12.309 -10.803   1.603  0.00  0.00     0.261 P 
ATOM     15  O1A APC d   1      11.284  -9.785   1.273  0.00  0.00    -0.646 OA
ATOM     16  O2A APC d   1      12.128 -12.165   1.015  0.00  0.00    -0.646 OA
BRANCH  14  17
ATOM     17  C3A APC d   1      13.965 -10.139   1.181  0.00  0.00     0.127 C 
ATOM     18  H1  APC d   1      14.329  -9.516   2.012  0.00  0.00     0.072 H 
ATOM     19  H2  APC d   1      14.661 -10.975   1.018  0.00  0.00     0.072 H 
BRANCH  17  20
ATOM     20  PB  APC d   1      13.875  -9.151  -0.299  0.00  0.00     0.272 P 
ATOM     21  O1B APC d   1      13.116  -7.850  -0.016  0.00  0.00    -0.646 OA
ATOM     22  O2B APC d   1      13.377 -10.017  -1.389  0.00  0.00    -0.646 OA
BRANCH  20  23
ATOM     23  O3B APC d   1      15.429  -8.787  -0.569  0.00  0.00    -0.196 OA
BRANCH  23  24
ATOM     24  PG  APC d   1      16.158  -7.426  -0.176  0.00  0.00     0.430 P 
ATOM     25  O1G APC d   1      16.129  -7.342   1.336  0.00  0.00    -0.616 OA
ATOM     26  O2G APC d   1      17.572  -7.655  -0.721  0.00  0.00    -0.616 OA
ATOM     27  O3G APC d   1      15.453  -6.308  -0.885  0.00  0.00    -0.616 OA
ENDBRANCH  23  24
ENDBRANCH  20  23
ENDBRANCH  17  20
ENDBRANCH  14  17
ENDBRANCH  13  14
ENDBRANCH  10  13
ENDBRANCH   1  10
BRANCH   3  28
ATOM     28  O3  APC d   1      11.325 -12.676   6.505  0.00  0.00    -0.390 OA
ATOM     29  H7  APC d   1      11.937 -13.136   7.068  0.00  0.00     0.210 HD
ENDBRANCH   3  28
BRANCH   5  30
ATOM     30  N9  APC d   1      14.114  -8.718   7.092  0.00  0.00    -0.294 N 
ATOM     31  C8  APC d   1      15.270  -8.294   7.709  0.00  0.00     0.071 A 
ATOM     32  N7  APC d   1      15.356  -6.940   7.704  0.00  0.00    -0.236 NA
ATOM     33  H11 APC d   1      16.016  -8.958   8.143  0.00  0.00     0.144 H 
ATOM     34  C5  APC d   1      14.168  -6.555   7.039  0.00  0.00     0.149 A 
ATOM     35  C6  APC d   1      13.796  -5.235   6.784  0.00  0.00     0.155 A 
ATOM     36  C4  APC d   1      13.434  -7.617   6.677  0.00  0.00     0.167 A 
ATOM     37  N1  APC d   1      12.626  -5.104   6.138  0.00  0.00    -0.222 NA
ATOM     38  C2  APC d   1      11.918  -6.214   5.792  0.00  0.00     0.091 A 
ATOM     39  N3  APC d   1      12.242  -7.470   6.018  0.00  0.00    -0.222 NA
ATOM     40  H14 APC d   1      10.982  -6.045   5.272  0.00  0.00     0.146 H 
BRANCH  35  41
ATOM     41  N6  APC d   1      14.478  -4.128   7.115  0.00  0.00    -0.382 N 
ATOM     42  H12 APC d   1      14.102  -3.200   6.873  0.00  0.00     0.157 HD
ATOM     43  H13 APC d   1      15.377  -4.206   7.611  0.00  0.00     0.157 HD
ENDBRANCH  35  41
ENDBRANCH   5  30
BRANCH   4  44
ATOM     44  O2  APC d   1      12.363 -11.239   8.531  0.00  0.00    -0.388 OA
ATOM     45  H9  APC d   1      11.496 -11.582   8.712  0.00  0.00     0.210 HD
ENDBRANCH   4  44
TORSDOF 11
