REMARK  3 active torsions:
REMARK  status: ('A' for Active; 'I' for Inactive)
REMARK    1  A    between atoms: C1'_1  and  C2_7 
REMARK    2  A    between atoms: C2_7  and  C1_8 
REMARK    3  A    between atoms: C1_8  and  N_9 
ROOT
ATOM      1  C1' PEA d   1      29.498  14.964  16.424  0.00  0.00    -0.057 A 
ATOM      2  C6' PEA d   1      28.883  15.453  17.564  0.00  0.00    -0.077 A 
ATOM      3  C5' PEA d   1      28.685  14.620  18.658  0.00  0.00    -0.082 A 
ATOM      4  C4' PEA d   1      29.102  13.296  18.607  0.00  0.00    -0.083 A 
ATOM      5  C3' PEA d   1      29.717  12.804  17.458  0.00  0.00    -0.082 A 
ATOM      6  C2' PEA d   1      29.912  13.637  16.367  0.00  0.00    -0.077 A 
ATOM      7  H1  PEA d   1      28.556  16.486  17.603  0.00  0.00     0.084 H 
ATOM      8  H2  PEA d   1      28.205  15.003  19.551  0.00  0.00     0.083 H 
ATOM      9  H3  PEA d   1      28.949  12.646  19.461  0.00  0.00     0.083 H 
ATOM     10  H4  PEA d   1      30.043  11.771  17.417  0.00  0.00     0.083 H 
ATOM     11  H5  PEA d   1      30.387  13.255  15.470  0.00  0.00     0.084 H 
ENDROOT
BRANCH   1  12
ATOM     12  C2  PEA d   1      29.739  15.890  15.257  0.00  0.00    -0.019 C 
ATOM     13  H6  PEA d   1      30.824  15.966  15.093  0.00  0.00     0.042 H 
ATOM     14  H7  PEA d   1      29.337  16.881  15.513  0.00  0.00     0.042 H 
BRANCH  12  15
ATOM     15  C1  PEA d   1      29.095  15.433  13.971  0.00  0.00     0.083 C 
ATOM     16  H8  PEA d   1      28.561  16.293  13.539  0.00  0.00     0.075 H 
ATOM     17  H9  PEA d   1      28.373  14.641  14.220  0.00  0.00     0.075 H 
BRANCH  15  18
ATOM     18  N   PEA d   1      29.990  14.912  12.955  0.00  0.00    -0.079 N 
ATOM     19  H10 PEA d   1      29.456  14.639  12.145  0.00  0.00     0.274 HD
ATOM     20  H11 PEA d   1      30.482  14.111  13.319  0.00  0.00     0.274 HD
ATOM     21  H12 PEA d   1      30.654  15.624  12.695  0.00  0.00     0.274 HD
ENDBRANCH  15  18
ENDBRANCH  12  15
ENDBRANCH   1  12
TORSDOF 3
