REMARK  4 active torsions:
REMARK  status: ('A' for Active; 'I' for Inactive)
REMARK    1  A    between atoms: C2_2  and  C1_1 
REMARK    2  A    between atoms: C1_1  and  N_10 
REMARK    3  A    between atoms: C2_2  and  C3_3 
REMARK    4  A    between atoms: C3_3  and  C1'_4 
ROOT
ATOM      1  C3  PRA d   1      29.362  14.520  16.161  0.00  0.00    -0.040 C 
ATOM      2  H5  PRA d   1      30.075  13.806  15.723  0.00  0.00     0.040 H 
ATOM      3  H6  PRA d   1      28.349  14.299  15.793  0.00  0.00     0.040 H 
ENDROOT
BRANCH   1   4
ATOM      4  C2  PRA d   1      29.736  15.891  15.722  0.00  0.00    -0.039 C 
ATOM      5  H3  PRA d   1      29.276  16.654  16.367  0.00  0.00     0.035 H 
ATOM      6  H4  PRA d   1      30.828  16.023  15.720  0.00  0.00     0.035 H 
BRANCH   4   7
ATOM      7  C1  PRA d   1      29.185  15.953  14.341  0.00  0.00     0.080 C 
ATOM      8  H1  PRA d   1      29.311  16.986  13.984  0.00  0.00     0.075 H 
ATOM      9  H2  PRA d   1      28.113  15.715  14.405  0.00  0.00     0.075 H 
BRANCH   7  10
ATOM     10  N   PRA d   1      29.769  15.069  13.334  0.00  0.00    -0.079 N 
ATOM     11  H12 PRA d   1      29.305  15.213  12.451  0.00  0.00     0.274 HD
ATOM     12  H13 PRA d   1      29.653  14.110  13.621  0.00  0.00     0.274 HD
ATOM     13  H14 PRA d   1      30.751  15.274  13.236  0.00  0.00     0.274 HD
ENDBRANCH   7  10
ENDBRANCH   4   7
ENDBRANCH   1   4
BRANCH   1  14
ATOM     14  C1' PRA d   1      29.374  14.352  17.650  0.00  0.00    -0.058 A 
ATOM     15  C2' PRA d   1      29.750  13.100  18.107  0.00  0.00    -0.077 A 
ATOM     16  C3' PRA d   1      29.217  12.610  19.283  0.00  0.00    -0.082 A 
ATOM     17  H7  PRA d   1      30.461  12.506  17.543  0.00  0.00     0.084 H 
ATOM     18  C4' PRA d   1      28.315  13.371  20.002  0.00  0.00    -0.083 A 
ATOM     19  H8  PRA d   1      29.506  11.629  19.642  0.00  0.00     0.083 H 
ATOM     20  C5' PRA d   1      27.948  14.629  19.547  0.00  0.00    -0.082 A 
ATOM     21  H9  PRA d   1      27.894  12.984  20.923  0.00  0.00     0.083 H 
ATOM     22  C6' PRA d   1      28.478  15.124  18.370  0.00  0.00    -0.077 A 
ATOM     23  H10 PRA d   1      27.244  15.225  20.116  0.00  0.00     0.083 H 
ATOM     24  H11 PRA d   1      28.195  16.108  18.014  0.00  0.00     0.084 H 
ENDBRANCH   1  14
TORSDOF 4
