REMARK  2 active torsions:
REMARK  status: ('A' for Active; 'I' for Inactive)
REMARK    1  A    between atoms: C1_1  and  N_10 
REMARK    2  A    between atoms: C2_2  and  C1'_4 
ROOT
ATOM      1  C1  TPA d   1      30.190  15.461  14.843  0.00  0.00     0.108 A 
ATOM      2  C2  TPA d   1      28.949  15.184  15.618  0.00  0.00     0.001 A 
ATOM      3  C3  TPA d   1      29.347  16.596  15.400  0.00  0.00    -0.029 A 
ATOM      4  H1  TPA d   1      31.215  15.242  15.177  0.00  0.00     0.085 H 
ATOM      5  H2  TPA d   1      28.059  14.743  15.146  0.00  0.00     0.050 H 
ATOM      6  H3  TPA d   1      28.764  17.235  14.720  0.00  0.00     0.037 H 
ATOM      7  H4  TPA d   1      29.721  17.200  16.240  0.00  0.00     0.037 H 
ENDROOT
BRANCH   2   8
ATOM      8  C1' TPA d   1      29.143  14.706  17.031  0.00  0.00    -0.052 A 
ATOM      9  C2' TPA d   1      28.682  15.481  18.086  0.00  0.00    -0.076 A 
ATOM     10  C3' TPA d   1      28.743  14.972  19.368  0.00  0.00    -0.082 A 
ATOM     11  H5  TPA d   1      28.280  16.471  17.906  0.00  0.00     0.084 H 
ATOM     12  C4' TPA d   1      29.264  13.699  19.579  0.00  0.00    -0.083 A 
ATOM     13  H6  TPA d   1      28.387  15.561  20.206  0.00  0.00     0.083 H 
ATOM     14  C5' TPA d   1      29.735  12.935  18.516  0.00  0.00    -0.082 A 
ATOM     15  H7  TPA d   1      29.303  13.297  20.585  0.00  0.00     0.083 H 
ATOM     16  C6' TPA d   1      29.677  13.439  17.231  0.00  0.00    -0.076 A 
ATOM     17  H8  TPA d   1      30.146  11.948  18.695  0.00  0.00     0.083 H 
ATOM     18  H9  TPA d   1      30.042  12.856  16.393  0.00  0.00     0.084 H 
ENDBRANCH   2   8
BRANCH   1  19
ATOM     19  N   TPA d   1      29.922  15.163  13.435  0.00  0.00    -0.074 N 
ATOM     20  H10 TPA d   1      30.513  14.404  13.134  0.00  0.00     0.274 HD
ATOM     21  H11 TPA d   1      30.113  15.980  12.876  0.00  0.00     0.274 HD
ATOM     22  H12 TPA d   1      28.955  14.900  13.325  0.00  0.00     0.274 HD
ENDBRANCH   1  19
TORSDOF 2
