REMARK  3 active torsions:
REMARK  status: ('A' for Active; 'I' for Inactive)
REMARK    1  A    between atoms: C1_1  and  C2_4 
REMARK    2  A    between atoms: C2_4  and  C3_5 
REMARK    3  A    between atoms: C3_5  and  C1'_6 
ROOT
ATOM      1  C1' HCI d   1      48.403  90.107 -12.343  0.00  0.00    -0.058 A 
ATOM      2  C2' HCI d   1      48.542  89.848 -10.977  0.00  0.00    -0.077 A 
ATOM      3  C3' HCI d   1      47.752  88.868 -10.370  0.00  0.00    -0.082 A 
ATOM      4  C4' HCI d   1      46.806  88.136 -11.109  0.00  0.00    -0.083 A 
ATOM      5  C5' HCI d   1      46.641  88.403 -12.477  0.00  0.00    -0.082 A 
ATOM      6  C6' HCI d   1      47.456  89.381 -13.078  0.00  0.00    -0.077 A 
ATOM      7  H5  HCI d   1      49.261  90.406 -10.389  0.00  0.00     0.084 H 
ATOM      8  H6  HCI d   1      47.871  88.669  -9.311  0.00  0.00     0.083 H 
ATOM      9  H7  HCI d   1      46.209  87.371 -10.626  0.00  0.00     0.083 H 
ATOM     10  H8  HCI d   1      45.901  87.867 -13.059  0.00  0.00     0.083 H 
ATOM     11  H9  HCI d   1      47.348  89.578 -14.139  0.00  0.00     0.084 H 
ENDROOT
BRANCH   1  12
ATOM     12  C3  HCI d   1      49.280  91.150 -13.029  0.00  0.00    -0.032 C 
ATOM     13  H3  HCI d   1      50.144  91.360 -12.381  0.00  0.00     0.040 H 
ATOM     14  H4  HCI d   1      49.632  90.736 -13.985  0.00  0.00     0.040 H 
BRANCH  12  15
ATOM     15  C2  HCI d   1      48.546  92.476 -13.311  0.00  0.00     0.019 C 
ATOM     16  H1  HCI d   1      47.987  92.752 -12.405  0.00  0.00     0.049 H 
ATOM     17  H2  HCI d   1      49.305  93.244 -13.523  0.00  0.00     0.049 H 
BRANCH  15  18
ATOM     18  C1  HCI d   1      47.563  92.453 -14.479  0.00  0.00     0.172 C 
ATOM     19  O1  HCI d   1      47.865  92.074 -15.619  0.00  0.00    -0.648 OA
ATOM     20  O2  HCI d   1      46.317  92.879 -14.267  0.00  0.00    -0.648 OA
ENDBRANCH  15  18
ENDBRANCH  12  15
ENDBRANCH   1  12
TORSDOF 3
