REMARK  3 active torsions:
REMARK  status: ('A' for Active; 'I' for Inactive)
REMARK    1  A    between atoms: C1_1  and  C2_4 
REMARK    2  A    between atoms: C2_4  and  C3_5 
REMARK    3  A    between atoms: C3_5  and  C1'_6 
ROOT
ATOM      1  C1' HCI d   1      74.695  53.918  31.379  0.00  0.00    -0.058 A 
ATOM      2  C2' HCI d   1      75.919  53.898  30.710  0.00  0.00    -0.077 A 
ATOM      3  C3' HCI d   1      76.206  52.891  29.789  0.00  0.00    -0.082 A 
ATOM      4  C4' HCI d   1      75.275  51.878  29.568  0.00  0.00    -0.083 A 
ATOM      5  C5' HCI d   1      74.054  51.880  30.244  0.00  0.00    -0.082 A 
ATOM      6  C6' HCI d   1      73.760  52.897  31.150  0.00  0.00    -0.077 A 
ATOM      7  H5  HCI d   1      76.653  54.671  30.908  0.00  0.00     0.084 H 
ATOM      8  H6  HCI d   1      77.146  52.896  29.249  0.00  0.00     0.083 H 
ATOM      9  H7  HCI d   1      75.501  51.083  28.866  0.00  0.00     0.083 H 
ATOM     10  H8  HCI d   1      73.334  51.090  30.064  0.00  0.00     0.083 H 
ATOM     11  H9  HCI d   1      72.812  52.900  31.676  0.00  0.00     0.084 H 
ENDROOT
BRANCH   1  12
ATOM     12  C3  HCI d   1      74.408  55.038  32.364  0.00  0.00    -0.032 C 
ATOM     13  H3  HCI d   1      75.133  55.852  32.218  0.00  0.00     0.040 H 
ATOM     14  H4  HCI d   1      73.389  55.420  32.202  0.00  0.00     0.040 H 
BRANCH  12  15
ATOM     15  C2  HCI d   1      74.530  54.490  33.787  0.00  0.00     0.019 C 
ATOM     16  H1  HCI d   1      75.393  53.810  33.836  0.00  0.00     0.049 H 
ATOM     17  H2  HCI d   1      74.684  55.329  34.482  0.00  0.00     0.049 H 
BRANCH  15  18
ATOM     18  C1  HCI d   1      73.282  53.734  34.195  0.00  0.00     0.172 C 
ATOM     19  O1  HCI d   1      72.153  54.197  34.041  0.00  0.00    -0.648 OA
ATOM     20  O2  HCI d   1      73.429  52.553  34.774  0.00  0.00    -0.648 OA
ENDBRANCH  15  18
ENDBRANCH  12  15
ENDBRANCH   1  12
TORSDOF 3
