REMARK  3 active torsions:
REMARK  status: ('A' for Active; 'I' for Inactive)
REMARK    1  A    between atoms: C1_1  and  C2_4 
REMARK    2  A    between atoms: C2_4  and  C3_5 
REMARK    3  A    between atoms: C3_5  and  C1'_6 
ROOT
ATOM      1  C1' HCI d   1      32.609  23.505   7.624  0.00  0.00    -0.058 A 
ATOM      2  C2' HCI d   1      33.830  23.564   8.314  0.00  0.00    -0.077 A 
ATOM      3  C3' HCI d   1      34.055  24.593   9.245  0.00  0.00    -0.082 A 
ATOM      4  C4' HCI d   1      33.078  25.566   9.464  0.00  0.00    -0.083 A 
ATOM      5  C5' HCI d   1      31.858  25.513   8.772  0.00  0.00    -0.082 A 
ATOM      6  C6' HCI d   1      31.628  24.487   7.857  0.00  0.00    -0.077 A 
ATOM      7  H5  HCI d   1      34.596  22.819   8.130  0.00  0.00     0.084 H 
ATOM      8  H6  HCI d   1      34.989  24.631   9.794  0.00  0.00     0.083 H 
ATOM      9  H7  HCI d   1      33.263  26.366  10.172  0.00  0.00     0.083 H 
ATOM     10  H8  HCI d   1      31.099  26.266   8.948  0.00  0.00     0.083 H 
ATOM     11  H9  HCI d   1      30.687  24.445   7.321  0.00  0.00     0.084 H 
ENDROOT
BRANCH   1  12
ATOM     12  C3  HCI d   1      32.359  22.402   6.610  0.00  0.00    -0.032 C 
ATOM     13  H3  HCI d   1      33.101  21.603   6.755  0.00  0.00     0.040 H 
ATOM     14  H4  HCI d   1      31.348  21.995   6.761  0.00  0.00     0.040 H 
BRANCH  12  15
ATOM     15  C2  HCI d   1      32.476  22.944   5.179  0.00  0.00     0.019 C 
ATOM     16  H1  HCI d   1      33.339  23.625   5.130  0.00  0.00     0.049 H 
ATOM     17  H2  HCI d   1      32.638  22.098   4.495  0.00  0.00     0.049 H 
BRANCH  15  18
ATOM     18  C1  HCI d   1      31.241  23.696   4.735  0.00  0.00     0.172 C 
ATOM     19  O1  HCI d   1      30.115  23.223   4.874  0.00  0.00    -0.648 OA
ATOM     20  O2  HCI d   1      31.386  24.883   4.158  0.00  0.00    -0.648 OA
ENDBRANCH  15  18
ENDBRANCH  12  15
ENDBRANCH   1  12
TORSDOF 3
