REMARK  2 active torsions:
REMARK  status: ('A' for Active; 'I' for Inactive)
REMARK    1  A    between atoms: C1_1  and  C2_4 
REMARK    2  A    between atoms: C3_5  and  C4_6 
ROOT
ATOM      1  C2  MAE d   1      36.705  19.396  -5.314  0.00  0.00    -0.003 C 
ATOM      2  C3  MAE d   1      36.472  18.333  -6.092  0.00  0.00    -0.003 C 
ATOM      3  H1  MAE d   1      36.822  20.347  -5.832  0.00  0.00     0.094 H 
ATOM      4  H2  MAE d   1      36.265  18.526  -7.144  0.00  0.00     0.094 H 
ENDROOT
BRANCH   1   5
ATOM      5  C1  MAE d   1      36.825  19.447  -3.826  0.00  0.00     0.198 C 
ATOM      6  O1  MAE d   1      36.753  20.578  -3.283  0.00  0.00    -0.645 OA
ATOM      7  O2  MAE d   1      36.922  18.438  -3.083  0.00  0.00    -0.645 OA
ENDBRANCH   1   5
BRANCH   2   8
ATOM      8  C4  MAE d   1      36.470  16.922  -5.656  0.00  0.00     0.198 C 
ATOM      9  O3  MAE d   1      35.552  16.354  -4.995  0.00  0.00    -0.645 OA
ATOM     10  O4  MAE d   1      37.469  16.272  -6.006  0.00  0.00    -0.645 OA
ENDBRANCH   2   8
TORSDOF 2
