REMARK  4 active torsions:
REMARK  status: ('A' for Active; 'I' for Inactive)
REMARK    1  A    between atoms: C24_2  and  C9_5 
REMARK    2  A    between atoms: C1_11  and  S14_12 
REMARK    3  A    between atoms: S14_12  and  C15_13 
REMARK    4  A    between atoms: C15_13  and  C16_14 
REMARK       I    between atoms: C16_14  and  N17_16 
ROOT
ATOM      1  C16 B1V d   1      22.416   3.990  -0.169  0.00  0.00     0.209 C 
ATOM      2  O23 B1V d   1      22.621   4.646  -1.183  0.00  0.00    -0.279 OA
ATOM      3  N17 B1V d   1      23.475   3.806   0.761  0.00  0.00    -0.253 NA
ATOM      4  C18 B1V d   1      23.024   3.854   2.166  0.00  0.00    -0.014 C 
ATOM      5  C19 B1V d   1      24.151   3.395   3.096  0.00  0.00    -0.054 C 
ATOM      6  C20 B1V d   1      25.489   4.096   2.810  0.00  0.00    -0.063 C 
ATOM      7  C21 B1V d   1      25.787   4.378   1.332  0.00  0.00    -0.054 C 
ATOM      8  C22 B1V d   1      24.550   4.796   0.548  0.00  0.00    -0.014 C 
ATOM      9  H5  B1V d   1      22.155   3.191   2.292  0.00  0.00     0.056 H 
ATOM     10  H6  B1V d   1      22.739   4.885   2.422  0.00  0.00     0.056 H 
ATOM     11  H7  B1V d   1      24.289   2.311   2.970  0.00  0.00     0.034 H 
ATOM     12  H8  B1V d   1      23.858   3.610   4.134  0.00  0.00     0.034 H 
ATOM     13  H9  B1V d   1      26.295   3.459   3.202  0.00  0.00     0.033 H 
ATOM     14  H10 B1V d   1      25.488   5.057   3.345  0.00  0.00     0.033 H 
ATOM     15  H11 B1V d   1      26.200   3.466   0.877  0.00  0.00     0.034 H 
ATOM     16  H12 B1V d   1      26.531   5.186   1.272  0.00  0.00     0.034 H 
ATOM     17  H13 B1V d   1      24.213   5.784   0.895  0.00  0.00     0.056 H 
ATOM     18  H14 B1V d   1      24.795   4.847  -0.523  0.00  0.00     0.056 H 
ENDROOT
BRANCH   1  19
ATOM     19  C15 B1V d   1      21.066   3.337   0.070  0.00  0.00     0.053 C 
ATOM     20  H3  B1V d   1      21.000   2.417  -0.530  0.00  0.00     0.063 H 
ATOM     21  H4  B1V d   1      20.971   3.087   1.137  0.00  0.00     0.063 H 
BRANCH  19  22
ATOM     22  S14 B1V d   1      19.716   4.453  -0.402  0.00  0.00    -0.083 SA
BRANCH  22  23
ATOM     23  C1  B1V d   1      19.291   5.197   1.121  0.00  0.00     0.169 A 
ATOM     24  N11 B1V d   1      19.925   4.853   2.250  0.00  0.00    -0.220 NA
ATOM     25  C9  B1V d   1      19.587   5.422   3.430  0.00  0.00     0.147 A 
ATOM     26  C7  B1V d   1      18.577   6.384   3.460  0.00  0.00     0.002 A 
ATOM     27  C5  B1V d   1      17.933   6.711   2.270  0.00  0.00     0.182 A 
ATOM     28  H1  B1V d   1      18.298   6.869   4.394  0.00  0.00     0.093 H 
ATOM     29  O13 B1V d   1      16.936   7.635   2.246  0.00  0.00    -0.172 OA
ATOM     30  N3  B1V d   1      18.300   6.119   1.125  0.00  0.00    -0.314 N 
ATOM     31  H2  B1V d   1      17.840   6.359   0.270  0.00  0.00     0.170 HD
BRANCH  25  32
ATOM     32  C24 B1V d   1      20.312   5.057   4.636  0.00  0.00     0.434 C 
ATOM     33  F27 B1V d   1      21.491   5.646   4.624  0.00  0.00    -0.165 F 
ATOM     34  F25 B1V d   1      19.673   5.436   5.648  0.00  0.00    -0.165 F 
ATOM     35  F26 B1V d   1      20.480   3.746   4.679  0.00  0.00    -0.165 F 
ENDBRANCH  25  32
ENDBRANCH  22  23
ENDBRANCH  19  22
ENDBRANCH   1  19
TORSDOF 4
