REMARK  4 active torsions:
REMARK  status: ('A' for Active; 'I' for Inactive)
REMARK    1  A    between atoms: C1_2  and  C2_4 
REMARK    2  A    between atoms: C2_4  and  C3_5 
REMARK    3  A    between atoms: C3_5  and  C4_6 
REMARK    4  A    between atoms: C4_6  and  N5_7 
ROOT
ATOM      1  N5  CRZ d   1      21.033   4.335   2.146  0.00  0.00    -0.345 N 
ATOM      2  C6  CRZ d   1      20.615   4.517   0.849  0.00  0.00     0.046 A 
ATOM      3  C17 CRZ d   1      19.382   4.610   0.201  0.00  0.00    -0.056 A 
ATOM      4  C7  CRZ d   1      21.827   4.658   0.011  0.00  0.00     0.003 A 
ATOM      5  C14 CRZ d   1      21.787   4.862  -1.362  0.00  0.00    -0.070 A 
ATOM      6  C15 CRZ d   1      20.519   4.952  -1.953  0.00  0.00    -0.082 A 
ATOM      7  C16 CRZ d   1      19.348   4.822  -1.188  0.00  0.00    -0.081 A 
ATOM      8  C8  CRZ d   1      22.960   4.525   0.906  0.00  0.00     0.003 A 
ATOM      9  C9  CRZ d   1      22.398   4.321   2.256  0.00  0.00     0.046 A 
ATOM     10  C10 CRZ d   1      23.306   4.174   3.311  0.00  0.00    -0.056 A 
ATOM     11  C13 CRZ d   1      24.329   4.570   0.641  0.00  0.00    -0.070 A 
ATOM     12  C12 CRZ d   1      25.183   4.405   1.738  0.00  0.00    -0.082 A 
ATOM     13  C11 CRZ d   1      24.677   4.215   3.032  0.00  0.00    -0.081 A 
ATOM     14  H7  CRZ d   1      18.460   4.520   0.764  0.00  0.00     0.087 H 
ATOM     15  H8  CRZ d   1      22.694   4.948  -1.949  0.00  0.00     0.084 H 
ATOM     16  H9  CRZ d   1      20.441   5.125  -3.020  0.00  0.00     0.083 H 
ATOM     17  H10 CRZ d   1      18.387   4.887  -1.685  0.00  0.00     0.083 H 
ATOM     18  H11 CRZ d   1      22.954   4.031   4.326  0.00  0.00     0.087 H 
ATOM     19  H12 CRZ d   1      24.711   4.725  -0.361  0.00  0.00     0.084 H 
ATOM     20  H13 CRZ d   1      26.256   4.425   1.584  0.00  0.00     0.083 H 
ATOM     21  H14 CRZ d   1      25.377   4.095   3.851  0.00  0.00     0.083 H 
ENDROOT
BRANCH   1  22
ATOM     22  C4  CRZ d   1      20.133   4.117   3.289  0.00  0.00     0.001 C 
ATOM     23  H5  CRZ d   1      19.182   3.712   2.913  0.00  0.00     0.065 H 
ATOM     24  H6  CRZ d   1      20.600   3.388   3.968  0.00  0.00     0.065 H 
BRANCH  22  25
ATOM     25  C3  CRZ d   1      19.838   5.404   4.081  0.00  0.00    -0.041 C 
ATOM     26  H3  CRZ d   1      19.049   5.188   4.817  0.00  0.00     0.036 H 
ATOM     27  H4  CRZ d   1      20.755   5.709   4.606  0.00  0.00     0.036 H 
BRANCH  25  28
ATOM     28  C2  CRZ d   1      19.371   6.573   3.192  0.00  0.00     0.017 C 
ATOM     29  H1  CRZ d   1      19.477   7.511   3.756  0.00  0.00     0.049 H 
ATOM     30  H2  CRZ d   1      20.006   6.611   2.295  0.00  0.00     0.049 H 
BRANCH  28  31
ATOM     31  C1  CRZ d   1      17.928   6.424   2.761  0.00  0.00     0.172 C 
ATOM     32  O19 CRZ d   1      17.408   7.229   2.002  0.00  0.00    -0.648 OA
ATOM     33  O18 CRZ d   1      17.192   5.406   3.196  0.00  0.00    -0.648 OA
ENDBRANCH  28  31
ENDBRANCH  25  28
ENDBRANCH  22  25
ENDBRANCH   1  22
TORSDOF 4
