REMARK  30 active torsions:
REMARK  status: ('A' for Active; 'I' for Inactive)
REMARK    1  A    between atoms: C2_2  and  C28_28 
REMARK    2  A    between atoms: C5_5  and  C36_36 
REMARK    3  A    between atoms: N6_6  and  C44_44 
REMARK    4  A    between atoms: C8_8  and  C45_45 
REMARK    5  A    between atoms: C14_14  and  C53_53 
REMARK    6  A    between atoms: C17_17  and  N20_20 
REMARK    7  A    between atoms: C18_18  and  C60_60 
REMARK       I    between atoms: N20_20  and  C21_21 
REMARK    8  A    between atoms: C21_21  and  C22_22 
REMARK    9  A    between atoms: C22_22  and  N23_23 
REMARK   10  A    between atoms: C22_22  and  C62_62 
REMARK       I    between atoms: N23_23  and  C24_24 
REMARK   11  A    between atoms: C24_24  and  C25_25 
REMARK   12  A    between atoms: C25_25  and  C26_26 
REMARK   13  A    between atoms: C25_25  and  O67_67 
REMARK   14  A    between atoms: C26_26  and  O68_68 
REMARK   15  A    between atoms: C28_28  and  C29_29 
REMARK   16  A    between atoms: C28_28  and  C30_30 
REMARK   17  A    between atoms: C36_36  and  C37_37 
REMARK   18  A    between atoms: C40_40  and  O41_41 
REMARK   19  A    between atoms: C45_45  and  C46_46 
REMARK   20  A    between atoms: C46_46  and  C47_47 
REMARK   21  A    between atoms: C46_46  and  C48_48 
REMARK   22  A    between atoms: C51_51  and  O52_52 
REMARK   23  A    between atoms: C53_53  and  C54_54 
REMARK   24  A    between atoms: C54_54  and  C55_55 
REMARK   25  A    between atoms: C55_55  and  N56_56 
REMARK       I    between atoms: N56_56  and  C57_57 
REMARK       I    between atoms: C57_57  and  N58_58 
REMARK   26  A    between atoms: C62_62  and  C63_63 
REMARK   27  A    between atoms: C63_63  and  C64_64 
REMARK   28  A    between atoms: C63_63  and  C65_65 
REMARK   29  A    between atoms: O68_68  and  S69_69 
REMARK   30  A    between atoms: S69_69  and  O72_72 
ROOT
ATOM      1  C1  VAL d   1      23.088   0.026  33.588  0.00  0.00     0.282 C 
ATOM      2  C2  VAL d   1      23.492   0.424  35.009  0.00  0.00     0.099 C 
ATOM      3  N3  VAL d   1      22.314   0.804  35.778  0.00  0.00    -0.345 N 
ATOM      4  O27 VAL d   1      21.942  -0.360  33.340  0.00  0.00    -0.263 OA
ATOM      5  H1  VAL d   1      24.160   1.296  34.950  0.00  0.00     0.089 H 
ATOM      6  H2  VAL d   1      21.781   0.096  36.242  0.00  0.00     0.163 HD
ATOM      7  C4  YNM d   1      21.935   2.072  35.874  0.00  0.00     0.241 C 
ATOM      8  C5  YNM d   1      20.556   2.326  36.462  0.00  0.00     0.095 C 
ATOM      9  N6  YNM d   1      20.327   1.524  37.661  0.00  0.00    -0.341 N 
ATOM     10  O31 YNM d   1      22.654   3.014  35.533  0.00  0.00    -0.271 OA
ATOM     11  H3  YNM d   1      19.801   2.048  35.712  0.00  0.00     0.088 H 
ATOM     12  C7  LEU d   1      19.238   0.773  37.835  0.00  0.00     0.243 C 
ATOM     13  C8  LEU d   1      18.204   0.715  36.695  0.00  0.00     0.095 C 
ATOM     14  N9  LEU d   1      18.446  -0.335  35.682  0.00  0.00    -0.310 N 
ATOM     15  O32 LEU d   1      19.031   0.150  38.879  0.00  0.00    -0.271 OA
ATOM     16  H4  LEU d   1      18.181   1.698  36.201  0.00  0.00     0.088 H 
ATOM     17  C10 GLU d   1      18.476   0.069  34.390  0.00  0.00     0.245 C 
ATOM     18  C11 GLU d   1      18.620  -0.999  33.317  0.00  0.00     0.090 C 
ATOM     19  N12 GLU d   1      19.380  -0.450  32.195  0.00  0.00    -0.346 N 
ATOM     20  O33 GLU d   1      18.372   1.257  34.068  0.00  0.00    -0.271 OA
ATOM     21  C49 GLU d   1      19.282  -2.259  33.868  0.00  0.00    -0.034 C 
ATOM     22  C50 GLU d   1      18.716  -2.638  35.211  0.00  0.00    -0.022 C 
ATOM     23  C51 GLU d   1      18.975  -1.576  36.282  0.00  0.00     0.106 C 
ATOM     24  H5  GLU d   1      17.616  -1.271  32.959  0.00  0.00     0.087 H 
ATOM     25  H6  GLU d   1      20.377  -0.405  32.251  0.00  0.00     0.163 HD
ATOM     26  H43 GLU d   1      20.362  -2.078  33.973  0.00  0.00     0.036 H 
ATOM     27  H44 GLU d   1      19.116  -3.087  33.163  0.00  0.00     0.036 H 
ATOM     28  H45 GLU d   1      19.178  -3.583  35.533  0.00  0.00     0.039 H 
ATOM     29  H46 GLU d   1      17.630  -2.777  35.109  0.00  0.00     0.039 H 
ATOM     30  H47 GLU d   1      18.478  -1.814  37.234  0.00  0.00     0.117 H 
ATOM     31  C13 ARG d   1      18.764  -0.010  31.102  0.00  0.00     0.241 C 
ATOM     32  C14 ARG d   1      19.607   0.836  30.149  0.00  0.00     0.089 C 
ATOM     33  N15 ARG d   1      20.985   0.380  30.094  0.00  0.00    -0.346 N 
ATOM     34  O34 ARG d   1      17.588  -0.274  30.858  0.00  0.00    -0.271 OA
ATOM     35  H7  ARG d   1      19.612   1.861  30.548  0.00  0.00     0.087 H 
ATOM     36  H8  ARG d   1      21.218  -0.477  29.635  0.00  0.00     0.163 HD
ATOM     37  C16 THR d   1      21.930   1.117  30.661  0.00  0.00     0.243 C 
ATOM     38  C17 THR d   1      23.377   0.719  30.372  0.00  0.00     0.114 C 
ATOM     39  C18 THR d   1      23.808  -0.411  31.337  0.00  0.00     0.072 C 
ATOM     40  O19 THR d   1      24.001   0.117  32.664  0.00  0.00    -0.312 OA
ATOM     41  O35 THR d   1      21.665   2.115  31.346  0.00  0.00    -0.271 OA
ATOM     42  H9  THR d   1      23.446   0.339  29.342  0.00  0.00     0.091 H 
ATOM     43  H10 THR d   1      23.011  -1.169  31.366  0.00  0.00     0.087 H 
ENDROOT
BRANCH  38  44
ATOM     44  N20 THR d   1      24.222   1.898  30.486  0.00  0.00    -0.344 N 
ATOM     45  C21 DLE d   1      24.120   2.897  29.615  0.00  0.00     0.241 C 
ATOM     46  O61 DLE d   1      23.298   2.910  28.698  0.00  0.00    -0.271 OA
ATOM     47  H11 THR d   1      24.888   1.958  31.229  0.00  0.00     0.163 HD
BRANCH  45  48
ATOM     48  C22 DLE d   1      25.095   4.048  29.776  0.00  0.00     0.089 C 
ATOM     49  H12 DLE d   1      25.603   3.967  30.748  0.00  0.00     0.087 H 
BRANCH  48  50
ATOM     50  N23 DLE d   1      24.362   5.309  29.715  0.00  0.00    -0.346 N 
ATOM     51  C24 OSL d   1      24.327   6.157  30.732  0.00  0.00     0.249 C 
ATOM     52  O66 OSL d   1      24.959   5.977  31.772  0.00  0.00    -0.271 OA
ATOM     53  H13 DLE d   1      23.869   5.541  28.876  0.00  0.00     0.163 HD
BRANCH  51  54
ATOM     54  C25 OSL d   1      23.484   7.405  30.539  0.00  0.00     0.134 C 
ATOM     55  H14 OSL d   1      22.834   7.566  31.412  0.00  0.00     0.101 H 
BRANCH  54  56
ATOM     56  C26 OSL d   1      24.392   8.619  30.336  0.00  0.00     0.071 C 
ATOM     57  H15 OSL d   1      24.986   8.806  31.243  0.00  0.00     0.081 H 
ATOM     58  H16 OSL d   1      23.790   9.510  30.102  0.00  0.00     0.081 H 
BRANCH  56  59
ATOM     59  O68 OSL d   1      25.271   8.292  29.213  0.00  0.00    -0.261 OA
BRANCH  59  60
ATOM     60  S69 OSL d   1      26.476   9.245  28.884  0.00  0.00     0.240 S 
ATOM     61  O70 OSL d   1      25.869  10.570  28.556  0.00  0.00    -0.579 OA
ATOM     62  O71 OSL d   1      27.381   9.339  30.060  0.00  0.00    -0.579 OA
BRANCH  60  63
ATOM     63  O72 OSL d   1      27.243   8.681  27.713  0.00  0.00    -0.274 OA
ATOM     64  H73 OSL d   1      26.668   8.619  26.959  0.00  0.00     0.234 HD
ENDBRANCH  60  63
ENDBRANCH  59  60
ENDBRANCH  56  59
ENDBRANCH  54  56
BRANCH  54  65
ATOM     65  O67 OSL d   1      22.701   7.202  29.367  0.00  0.00    -0.384 OA
ATOM     66  H72 OSL d   1      22.171   7.973  29.204  0.00  0.00     0.210 HD
ENDBRANCH  54  65
ENDBRANCH  51  54
ENDBRANCH  48  50
BRANCH  48  67
ATOM     67  C62 DLE d   1      26.132   3.988  28.654  0.00  0.00    -0.035 C 
ATOM     68  H63 DLE d   1      25.603   4.089  27.695  0.00  0.00     0.037 H 
ATOM     69  H64 DLE d   1      26.627   3.007  28.698  0.00  0.00     0.037 H 
BRANCH  67  70
ATOM     70  C63 DLE d   1      27.211   5.066  28.716  0.00  0.00    -0.059 C 
ATOM     71  H65 DLE d   1      26.732   6.031  28.936  0.00  0.00     0.038 H 
BRANCH  70  72
ATOM     72  C64 DLE d   1      28.174   4.736  29.836  0.00  0.00    -0.073 C 
ATOM     73  H66 DLE d   1      28.955   5.509  29.887  0.00  0.00     0.028 H 
ATOM     74  H67 DLE d   1      28.638   3.757  29.644  0.00  0.00     0.028 H 
ATOM     75  H68 DLE d   1      27.628   4.702  30.791  0.00  0.00     0.028 H 
ENDBRANCH  70  72
BRANCH  70  76
ATOM     76  C65 DLE d   1      27.942   5.188  27.386  0.00  0.00    -0.073 C 
ATOM     77  H69 DLE d   1      27.220   5.428  26.591  0.00  0.00     0.028 H 
ATOM     78  H70 DLE d   1      28.441   4.236  27.153  0.00  0.00     0.028 H 
ATOM     79  H71 DLE d   1      28.693   5.989  27.453  0.00  0.00     0.028 H 
ENDBRANCH  70  76
ENDBRANCH  67  70
ENDBRANCH  48  67
ENDBRANCH  45  48
ENDBRANCH  38  44
BRANCH  39  80
ATOM     80  C60 THR d   1      25.107  -1.079  30.868  0.00  0.00    -0.049 C 
ATOM     81  H60 THR d   1      25.385  -1.876  31.574  0.00  0.00     0.031 H 
ATOM     82  H61 THR d   1      25.911  -0.329  30.826  0.00  0.00     0.031 H 
ATOM     83  H62 THR d   1      24.957  -1.511  29.868  0.00  0.00     0.031 H 
ENDBRANCH  39  80
BRANCH  32  84
ATOM     84  C53 ARG d   1      19.022   0.899  28.736  0.00  0.00    -0.036 C 
ATOM     85  H49 ARG d   1      17.930   1.016  28.803  0.00  0.00     0.036 H 
ATOM     86  H50 ARG d   1      19.259  -0.035  28.206  0.00  0.00     0.036 H 
BRANCH  84  87
ATOM     87  C54 ARG d   1      19.599   2.065  27.966  0.00  0.00    -0.048 C 
ATOM     88  H51 ARG d   1      20.692   2.046  28.088  0.00  0.00     0.035 H 
ATOM     89  H52 ARG d   1      19.197   2.992  28.400  0.00  0.00     0.035 H 
BRANCH  87  90
ATOM     90  C55 ARG d   1      19.292   2.071  26.478  0.00  0.00     0.009 C 
ATOM     91  H53 ARG d   1      18.211   1.941  26.321  0.00  0.00     0.064 H 
ATOM     92  H54 ARG d   1      19.836   1.253  25.983  0.00  0.00     0.064 H 
BRANCH  90  93
ATOM     93  N56 ARG d   1      19.721   3.356  25.924  0.00  0.00    -0.227 N 
ATOM     94  C57 ARG d   1      19.486   3.779  24.682  0.00  0.00     0.665 C 
ATOM     95  N58 ARG d   1      18.813   3.022  23.823  0.00  0.00    -0.235 N 
ATOM     96  N59 ARG d   1      19.879   4.994  24.319  0.00  0.00    -0.235 N 
ATOM     97  H56 ARG d   1      18.638   3.360  22.866  0.00  0.00     0.174 HD
ATOM     98  H57 ARG d   1      18.466   2.097  24.114  0.00  0.00     0.174 HD
ATOM     99  H58 ARG d   1      20.401   5.586  24.981  0.00  0.00     0.174 HD
ATOM    100  H59 ARG d   1      19.662   5.345  23.375  0.00  0.00     0.174 HD
ATOM    101  H55 ARG d   1      20.248   3.986  26.546  0.00  0.00     0.177 HD
ENDBRANCH  90  93
ENDBRANCH  87  90
ENDBRANCH  84  87
ENDBRANCH  32  84
BRANCH   2 102
ATOM    102  C28 VAL d   1      24.269  -0.736  35.687  0.00  0.00    -0.032 C 
ATOM    103  H17 VAL d   1      25.249  -0.833  35.197  0.00  0.00     0.042 H 
BRANCH 102 104
ATOM    104  C29 VAL d   1      24.489  -0.415  37.152  0.00  0.00    -0.071 C 
ATOM    105  H18 VAL d   1      25.040  -1.239  37.629  0.00  0.00     0.028 H 
ATOM    106  H19 VAL d   1      23.516  -0.288  37.650  0.00  0.00     0.028 H 
ATOM    107  H20 VAL d   1      25.071   0.514  37.240  0.00  0.00     0.028 H 
ENDBRANCH 102 104
BRANCH 102 108
ATOM    108  C30 VAL d   1      23.530  -2.049  35.541  0.00  0.00    -0.071 C 
ATOM    109  H21 VAL d   1      23.378  -2.268  34.474  0.00  0.00     0.028 H 
ATOM    110  H22 VAL d   1      22.554  -1.978  36.043  0.00  0.00     0.028 H 
ATOM    111  H23 VAL d   1      24.121  -2.855  36.000  0.00  0.00     0.028 H 
ENDBRANCH 102 108
ENDBRANCH   2 102
BRANCH   8 112
ATOM    112  C36 YNM d   1      20.404   3.816  36.781  0.00  0.00    -0.014 C 
ATOM    113  H24 YNM d   1      20.787   4.396  35.929  0.00  0.00     0.043 H 
ATOM    114  H25 YNM d   1      20.999   4.044  37.677  0.00  0.00     0.043 H 
BRANCH 112 115
ATOM    115  C37 YNM d   1      18.978   4.227  37.037  0.00  0.00    -0.056 A 
ATOM    116  C38 YNM d   1      18.376   4.016  38.282  0.00  0.00    -0.074 A 
ATOM    117  C39 YNM d   1      17.040   4.360  38.500  0.00  0.00    -0.051 A 
ATOM    118  H26 YNM d   1      18.954   3.580  39.088  0.00  0.00     0.084 H 
ATOM    119  C40 YNM d   1      16.303   4.920  37.462  0.00  0.00     0.065 A 
ATOM    120  H27 YNM d   1      16.582   4.192  39.468  0.00  0.00     0.087 H 
ATOM    121  C42 YNM d   1      16.888   5.136  36.225  0.00  0.00    -0.051 A 
ATOM    122  C43 YNM d   1      18.215   4.789  36.021  0.00  0.00    -0.074 A 
ATOM    123  H29 YNM d   1      16.311   5.575  35.419  0.00  0.00     0.087 H 
ATOM    124  H30 YNM d   1      18.666   4.960  35.050  0.00  0.00     0.084 H 
BRANCH 119 125
ATOM    125  O41 YNM d   1      14.994   5.304  37.646  0.00  0.00    -0.361 OA
ATOM    126  H28 YNM d   1      14.653   5.663  36.835  0.00  0.00     0.217 HD
ENDBRANCH 119 125
ENDBRANCH 112 115
ENDBRANCH   8 112
BRANCH   9 127
ATOM    127  C44 YNM d   1      21.347   1.586  38.707  0.00  0.00    -0.015 C 
ATOM    128  H31 YNM d   1      21.051   0.940  39.547  0.00  0.00     0.056 H 
ATOM    129  H32 YNM d   1      21.448   2.623  39.060  0.00  0.00     0.056 H 
ATOM    130  H33 YNM d   1      22.310   1.242  38.301  0.00  0.00     0.056 H 
ENDBRANCH   9 127
BRANCH  13 131
ATOM    131  C45 LEU d   1      16.821   0.371  37.268  0.00  0.00    -0.035 C 
ATOM    132  H34 LEU d   1      16.650   1.083  38.089  0.00  0.00     0.037 H 
ATOM    133  H35 LEU d   1      16.910  -0.646  37.677  0.00  0.00     0.037 H 
BRANCH 131 134
ATOM    134  C46 LEU d   1      15.536   0.376  36.436  0.00  0.00    -0.059 C 
ATOM    135  H36 LEU d   1      15.565  -0.455  35.715  0.00  0.00     0.038 H 
BRANCH 134 136
ATOM    136  C47 LEU d   1      14.364   0.184  37.390  0.00  0.00    -0.073 C 
ATOM    137  H37 LEU d   1      13.423   0.183  36.820  0.00  0.00     0.028 H 
ATOM    138  H38 LEU d   1      14.348   1.005  38.122  0.00  0.00     0.028 H 
ATOM    139  H39 LEU d   1      14.474  -0.775  37.917  0.00  0.00     0.028 H 
ENDBRANCH 134 136
BRANCH 134 140
ATOM    140  C48 LEU d   1      15.379   1.671  35.682  0.00  0.00    -0.073 C 
ATOM    141  H40 LEU d   1      16.229   1.801  34.996  0.00  0.00     0.028 H 
ATOM    142  H41 LEU d   1      15.351   2.509  36.394  0.00  0.00     0.028 H 
ATOM    143  H42 LEU d   1      14.443   1.648  35.105  0.00  0.00     0.028 H 
ENDBRANCH 134 140
ENDBRANCH 131 134
ENDBRANCH  13 131
BRANCH  23 144
ATOM    144  O52 GLU d   1      20.393  -1.468  36.456  0.00  0.00    -0.377 OA
ATOM    145  H48 GLU d   1      20.726  -2.270  36.842  0.00  0.00     0.212 HD
ENDBRANCH  23 144
TORSDOF 30
