REMARK  8 active torsions:
REMARK  status: ('A' for Active; 'I' for Inactive)
REMARK    1  A    between atoms: PB_1  and  O3A_5 
REMARK    2  A    between atoms: O3A_5  and  PA_6 
REMARK    3  A    between atoms: PA_6  and  O5_9 
REMARK    4  A    between atoms: O5_9  and  C5_10 
REMARK    5  A    between atoms: C5_10  and  C4_11 
REMARK    6  A    between atoms: C3_13  and  O3_14 
REMARK    7  A    between atoms: C2_15  and  O2_16 
REMARK    8  A    between atoms: C1_17  and  N9_18 
ROOT
ATOM      1  C4  GDP d   1       0.167   8.845  31.511  0.00  0.00     0.089 C 
ATOM      2  O4  GDP d   1      -0.055  10.017  32.377  0.00  0.00    -0.353 OA
ATOM      3  C3  GDP d   1       0.402   9.553  30.128  0.00  0.00     0.091 C 
ATOM      4  C2  GDP d   1       1.012  10.917  30.474  0.00  0.00     0.105 C 
ATOM      5  C1  GDP d   1       0.391  11.228  31.804  0.00  0.00     0.139 C 
ATOM      6  H3  GDP d   1      -0.768   8.268  31.451  0.00  0.00     0.090 H 
ATOM      7  H4  GDP d   1       1.066   8.980  29.464  0.00  0.00     0.091 H 
ATOM      8  H6  GDP d   1       2.099  10.801  30.597  0.00  0.00     0.093 H 
ATOM      9  H8  GDP d   1      -0.471  11.888  31.628  0.00  0.00     0.122 H 
ENDROOT
BRANCH   5  10
ATOM     10  N9  GDP d   1       1.299  11.907  32.798  0.00  0.00    -0.293 N 
ATOM     11  C8  GDP d   1       2.565  11.642  33.263  0.00  0.00     0.071 A 
ATOM     12  N7  GDP d   1       2.983  12.509  34.140  0.00  0.00    -0.234 NA
ATOM     13  H9  GDP d   1       3.159  10.792  32.931  0.00  0.00     0.144 H 
ATOM     14  C5  GDP d   1       1.945  13.416  34.284  0.00  0.00     0.173 A 
ATOM     15  C6  GDP d   1       1.776  14.609  35.102  0.00  0.00     0.292 A 
ATOM     16  C4  GDP d   1       0.872  13.064  33.452  0.00  0.00     0.186 A 
ATOM     17  O6  GDP d   1       2.600  15.095  35.906  0.00  0.00    -0.265 OA
ATOM     18  N1  GDP d   1       0.491  15.250  34.914  0.00  0.00    -0.152 N 
ATOM     19  C2  GDP d   1      -0.511  14.802  34.046  0.00  0.00     0.703 A 
ATOM     20  H10 GDP d   1       0.305  16.076  35.446  0.00  0.00     0.187 HD
ATOM     21  N2  GDP d   1      -1.628  15.523  34.006  0.00  0.00    -0.233 N 
ATOM     22  N3  GDP d   1      -0.364  13.679  33.270  0.00  0.00    -0.044 NA
ATOM     23  H11 GDP d   1      -2.401  15.242  33.386  0.00  0.00     0.174 HD
ATOM     24  H12 GDP d   1      -1.720  16.363  34.596  0.00  0.00     0.174 HD
ENDBRANCH   5  10
BRANCH   4  25
ATOM     25  O2  GDP d   1       0.813  11.938  29.504  0.00  0.00    -0.388 OA
ATOM     26  H7  GDP d   1      -0.118  12.082  29.384  0.00  0.00     0.210 HD
ENDBRANCH   4  25
BRANCH   1  27
ATOM     27  C5  GDP d   1       1.242   7.841  31.992  0.00  0.00     0.058 C 
ATOM     28  H1  GDP d   1       1.050   7.555  33.037  0.00  0.00     0.079 H 
ATOM     29  H2  GDP d   1       1.229   6.942  31.358  0.00  0.00     0.079 H 
BRANCH  27  30
ATOM     30  O5  GDP d   1       2.500   8.491  31.889  0.00  0.00    -0.287 OA
BRANCH  30  31
ATOM     31  PA  GDP d   1       3.833   7.844  31.363  0.00  0.00     0.418 P 
ATOM     32  O1A GDP d   1       4.861   8.916  31.429  0.00  0.00    -0.624 OA
ATOM     33  O2A GDP d   1       3.856   7.113  30.068  0.00  0.00    -0.624 OA
BRANCH  31  34
ATOM     34  O3A GDP d   1       4.351   7.103  32.711  0.00  0.00    -0.173 OA
BRANCH  34  35
ATOM     35  PB  GDP d   1       4.951   5.519  32.704  0.00  0.00     0.431 P 
ATOM     36  O1B GDP d   1       3.922   4.598  32.229  0.00  0.00    -0.616 OA
ATOM     37  O2B GDP d   1       5.336   5.364  34.141  0.00  0.00    -0.616 OA
ATOM     38  O3B GDP d   1       6.309   5.434  31.997  0.00  0.00    -0.616 OA
ENDBRANCH  34  35
ENDBRANCH  31  34
ENDBRANCH  30  31
ENDBRANCH  27  30
ENDBRANCH   1  27
BRANCH   3  39
ATOM     39  O3  GDP d   1      -0.938   9.676  29.561  0.00  0.00    -0.390 OA
ATOM     40  H5  GDP d   1      -0.884  10.100  28.712  0.00  0.00     0.210 HD
ENDBRANCH   3  39
TORSDOF 8
