REMARK  17 active torsions:
REMARK  status: ('A' for Active; 'I' for Inactive)
REMARK    1  A    between atoms: C7_11  and  C5_5 
REMARK    2  A    between atoms: O1_8  and  S1_7 
REMARK    3  A    between atoms: S1_7  and  C7_11 
REMARK    4  A    between atoms: C8_12  and  O1_8 
REMARK    5  A    between atoms: O4_18  and  C10_14 
REMARK    6  A    between atoms: C12_16  and  C14_19 
REMARK    7  A    between atoms: C15_20  and  O4_18 
REMARK       I    between atoms: C14_19  and  N2_24 
REMARK    8  A    between atoms: C16_21  and  C15_20 
REMARK       I    between atoms: N1_22  and  C16_21 
REMARK    9  A    between atoms: C22_31  and  N1_22 
REMARK   10  A    between atoms: N2_24  and  C17_26 
REMARK   11  A    between atoms: C17_26  and  C18_27 
REMARK   12  A    between atoms: C17_26  and  C25_35 
REMARK   13  A    between atoms: C20_29  and  C19_28 
REMARK   14  A    between atoms: C19_28  and  C23_33 
REMARK   15  A    between atoms: C21_30  and  C20_29 
REMARK   16  A    between atoms: C21_30  and  C22_31 
REMARK   17  A    between atoms: C23_33  and  N3_32 
ROOT
ATOM      1  C8  32P d   1      27.908  43.922   0.535  0.00  0.00     0.093 A 
ATOM      2  C9  32P d   1      27.911  42.488   0.571  0.00  0.00    -0.017 A 
ATOM      3  C10 32P d   1      29.041  41.764   1.076  0.00  0.00     0.073 A 
ATOM      4  C11 32P d   1      30.170  42.509   1.570  0.00  0.00    -0.035 A 
ATOM      5  C12 32P d   1      30.195  43.943   1.568  0.00  0.00     0.037 A 
ATOM      6  C13 32P d   1      29.056  44.643   1.039  0.00  0.00    -0.034 A 
ATOM      7  H8  32P d   1      27.046  41.943   0.211  0.00  0.00     0.092 H 
ATOM      8  H9  32P d   1      31.027  41.969   1.955  0.00  0.00     0.089 H 
ATOM      9  H10 32P d   1      29.058  45.727   1.018  0.00  0.00     0.089 H 
ENDROOT
BRANCH   3  10
ATOM     10  O4  32P d   1      28.957  40.380   0.975  0.00  0.00    -0.342 OA
BRANCH  10  11
ATOM     11  C15 32P d   1      29.855  39.489   1.680  0.00  0.00     0.099 C 
ATOM     12  H11 32P d   1      29.434  38.473   1.674  0.00  0.00     0.089 H 
ATOM     13  H12 32P d   1      29.965  39.835   2.719  0.00  0.00     0.089 H 
BRANCH  11  14
ATOM     14  C16 32P d   1      31.221  39.466   1.015  0.00  0.00     0.241 C 
ATOM     15  N1  32P d   1      32.179  38.948   1.810  0.00  0.00    -0.359 N 
ATOM     16  H13 32P d   1      31.939  38.733   2.756  0.00  0.00     0.162 HD
ATOM     17  O5  32P d   1      31.368  39.870  -0.140  0.00  0.00    -0.271 OA
BRANCH  15  18
ATOM     18  C22 32P d   1      33.544  38.683   1.373  0.00  0.00    -0.005 C 
ATOM     19  H25 32P d   1      33.606  38.845   0.287  0.00  0.00     0.064 H 
ATOM     20  H26 32P d   1      33.792  37.636   1.603  0.00  0.00     0.064 H 
BRANCH  18  21
ATOM     21  C21 32P d   1      34.556  39.590   2.062  0.00  0.00    -0.050 C 
ATOM     22  H23 32P d   1      34.413  39.523   3.151  0.00  0.00     0.035 H 
ATOM     23  H24 32P d   1      35.571  39.254   1.804  0.00  0.00     0.035 H 
BRANCH  21  24
ATOM     24  C20 32P d   1      34.390  41.036   1.631  0.00  0.00    -0.062 C 
ATOM     25  H21 32P d   1      33.358  41.353   1.840  0.00  0.00     0.033 H 
ATOM     26  H22 32P d   1      35.089  41.661   2.206  0.00  0.00     0.033 H 
BRANCH  24  27
ATOM     27  C19 32P d   1      34.672  41.222   0.143  0.00  0.00    -0.043 C 
ATOM     28  H19 32P d   1      33.994  40.577  -0.435  0.00  0.00     0.035 H 
ATOM     29  H20 32P d   1      35.714  40.937  -0.064  0.00  0.00     0.035 H 
BRANCH  27  30
ATOM     30  C23 32P d   1      34.459  42.672  -0.275  0.00  0.00     0.080 C 
ATOM     31  H30 32P d   1      35.142  43.324   0.289  0.00  0.00     0.075 H 
ATOM     32  H31 32P d   1      33.419  42.967  -0.071  0.00  0.00     0.075 H 
BRANCH  30  33
ATOM     33  N3  32P d   1      34.735  42.794  -1.716  0.00  0.00    -0.079 N 
ATOM     34  H27 32P d   1      34.597  43.750  -2.005  0.00  0.00     0.274 HD
ATOM     35  H28 32P d   1      34.109  42.194  -2.230  0.00  0.00     0.274 HD
ATOM     36  H29 32P d   1      35.688  42.521  -1.900  0.00  0.00     0.274 HD
ENDBRANCH  30  33
ENDBRANCH  27  30
ENDBRANCH  24  27
ENDBRANCH  21  24
ENDBRANCH  18  21
ENDBRANCH  15  18
ENDBRANCH  11  14
ENDBRANCH  10  11
ENDBRANCH   3  10
BRANCH   1  37
ATOM     37  O1  32P d   1      26.807  44.543  -0.052  0.00  0.00    -0.233 OA
BRANCH  37  38
ATOM     38  S1  32P d   1      25.784  45.361   0.868  0.00  0.00     0.274 S 
ATOM     39  O2  32P d   1      24.480  44.768   0.746  0.00  0.00    -0.198 OA
ATOM     40  O3  32P d   1      26.350  45.506   2.158  0.00  0.00    -0.198 OA
BRANCH  38  41
ATOM     41  C7  32P d   1      25.700  46.951   0.057  0.00  0.00     0.076 C 
ATOM     42  H6  32P d   1      25.268  46.820  -0.946  0.00  0.00     0.067 H 
ATOM     43  H7  32P d   1      25.059  47.622   0.648  0.00  0.00     0.067 H 
BRANCH  41  44
ATOM     44  C5  32P d   1      27.073  47.570  -0.074  0.00  0.00    -0.042 A 
ATOM     45  C4  32P d   1      27.611  48.343   1.050  0.00  0.00    -0.076 A 
ATOM     46  C3  32P d   1      28.944  48.912   0.934  0.00  0.00    -0.082 A 
ATOM     47  H4  32P d   1      27.026  48.488   1.951  0.00  0.00     0.084 H 
ATOM     48  C2  32P d   1      29.683  48.686  -0.304  0.00  0.00    -0.083 A 
ATOM     49  H3  32P d   1      29.377  49.488   1.744  0.00  0.00     0.083 H 
ATOM     50  C1  32P d   1      29.145  47.938  -1.433  0.00  0.00    -0.082 A 
ATOM     51  H2  32P d   1      30.683  49.096  -0.388  0.00  0.00     0.083 H 
ATOM     52  C6  32P d   1      27.815  47.369  -1.318  0.00  0.00    -0.076 A 
ATOM     53  H1  32P d   1      29.726  47.809  -2.339  0.00  0.00     0.083 H 
ATOM     54  H5  32P d   1      27.381  46.807  -2.137  0.00  0.00     0.084 H 
ENDBRANCH  41  44
ENDBRANCH  38  41
ENDBRANCH  37  38
ENDBRANCH   1  37
BRANCH   5  55
ATOM     55  C14 32P d   1      31.356  44.711   2.060  0.00  0.00     0.252 C 
ATOM     56  N2  32P d   1      32.096  44.118   3.016  0.00  0.00    -0.349 N 
ATOM     57  H14 32P d   1      31.944  43.157   3.246  0.00  0.00     0.163 HD
ATOM     58  O6  32P d   1      31.665  45.827   1.638  0.00  0.00    -0.268 OA
BRANCH  56  59
ATOM     59  C17 32P d   1      33.122  44.887   3.714  0.00  0.00     0.034 C 
ATOM     60  H15 32P d   1      33.375  45.763   3.099  0.00  0.00     0.079 H 
BRANCH  59  61
ATOM     61  C18 32P d   1      34.368  44.005   3.841  0.00  0.00    -0.053 C 
ATOM     62  H16 32P d   1      35.159  44.561   4.365  0.00  0.00     0.030 H 
ATOM     63  H17 32P d   1      34.721  43.722   2.838  0.00  0.00     0.030 H 
ATOM     64  H18 32P d   1      34.119  43.098   4.411  0.00  0.00     0.030 H 
ENDBRANCH  59  61
BRANCH  59  65
ATOM     65  C25 32P d   1      32.668  45.385   5.038  0.00  0.00    -0.036 A 
ATOM     66  C24 32P d   1      32.283  44.475   6.133  0.00  0.00    -0.072 A 
ATOM     67  C29 32P d   1      31.915  45.058   7.394  0.00  0.00    -0.045 A 
ATOM     68  H32 32P d   1      32.278  43.400   5.991  0.00  0.00     0.084 H 
ATOM     69  C28 32P d   1      31.908  46.504   7.468  0.00  0.00     0.116 A 
ATOM     70  H35 32P d   1      31.655  44.444   8.249  0.00  0.00     0.088 H 
ATOM     71  C27 32P d   1      32.232  47.413   6.388  0.00  0.00    -0.045 A 
ATOM     72  F1  32P d   1      31.567  47.059   8.620  0.00  0.00    -0.206 F 
ATOM     73  C26 32P d   1      32.639  46.835   5.145  0.00  0.00    -0.072 A 
ATOM     74  H34 32P d   1      32.169  48.487   6.517  0.00  0.00     0.088 H 
ATOM     75  H33 32P d   1      32.918  47.461   4.305  0.00  0.00     0.084 H 
ENDBRANCH  59  65
ENDBRANCH  56  59
ENDBRANCH   5  55
TORSDOF 17
