REMARK  10 active torsions:
REMARK  status: ('A' for Active; 'I' for Inactive)
REMARK    1  A    between atoms: C3'_1  and  C4'_2 
REMARK    2  A    between atoms: C2'_4  and  C3'_1 
REMARK    3  A    between atoms: C1'_3  and  C2'_4 
REMARK    4  A    between atoms: O1_15  and  C1'_3 
REMARK    5  A    between atoms: C2_5  and  O2_6 
REMARK    6  A    between atoms: C3_7  and  O3_8 
REMARK    7  A    between atoms: C4_9  and  O4_10 
REMARK    8  A    between atoms: C5_11  and  C6_13 
REMARK    9  A    between atoms: C6_13  and  O6_14 
REMARK   10  A    between atoms: O1_15  and  C1_16 
ROOT
ATOM      1  C2  DEG d   1      54.060 -12.726  22.077  0.00  0.00     0.110 C 
ATOM      2  C3  DEG d   1      55.159 -11.842  21.442  0.00  0.00     0.092 C 
ATOM      3  C4  DEG d   1      55.330 -10.540  22.253  0.00  0.00     0.090 C 
ATOM      4  C5  DEG d   1      55.594 -10.787  23.775  0.00  0.00     0.089 C 
ATOM      5  O5  DEG d   1      54.644 -11.666  24.410  0.00  0.00    -0.348 OA
ATOM      6  C1  DEG d   1      54.412 -12.762  23.536  0.00  0.00     0.158 C 
ATOM      7  H10 DEG d   1      54.057 -13.731  21.629  0.00  0.00     0.094 H 
ATOM      8  H12 DEG d   1      56.114 -12.388  21.464  0.00  0.00     0.091 H 
ATOM      9  H14 DEG d   1      54.394  -9.967  22.171  0.00  0.00     0.091 H 
ATOM     10  H16 DEG d   1      56.592 -11.243  23.855  0.00  0.00     0.090 H 
ATOM     11  H20 DEG d   1      53.557 -13.276  23.999  0.00  0.00     0.133 H 
ENDROOT
BRANCH   6  12
ATOM     12  O1  DEG d   1      55.536 -13.626  23.613  0.00  0.00    -0.359 OA
BRANCH  12  13
ATOM     13  C1' DEG d   1      55.601 -14.318  24.853  0.00  0.00     0.023 C 
ATOM     14  H6  DEG d   1      55.706 -13.594  25.674  0.00  0.00     0.074 H 
ATOM     15  H7  DEG d   1      54.681 -14.904  24.996  0.00  0.00     0.074 H 
BRANCH  13  16
ATOM     16  C2' DEG d   1      56.794 -15.244  24.840  0.00  0.00    -0.045 C 
ATOM     17  H8  DEG d   1      56.811 -15.819  25.777  0.00  0.00     0.036 H 
ATOM     18  H9  DEG d   1      56.703 -15.934  23.988  0.00  0.00     0.036 H 
BRANCH  16  19
ATOM     19  C3' DEG d   1      58.094 -14.470  24.712  0.00  0.00    -0.067 C 
ATOM     20  H1  DEG d   1      58.239 -14.154  23.668  0.00  0.00     0.032 H 
ATOM     21  H2  DEG d   1      58.066 -13.584  25.363  0.00  0.00     0.032 H 
BRANCH  19  22
ATOM     22  C4' DEG d   1      59.225 -15.380  25.134  0.00  0.00    -0.076 C 
ATOM     23  H3  DEG d   1      60.180 -14.841  25.050  0.00  0.00     0.027 H 
ATOM     24  H4  DEG d   1      59.245 -16.266  24.482  0.00  0.00     0.027 H 
ATOM     25  H5  DEG d   1      59.072 -15.695  26.177  0.00  0.00     0.027 H 
ENDBRANCH  19  22
ENDBRANCH  16  19
ENDBRANCH  13  16
ENDBRANCH  12  13
ENDBRANCH   6  12
BRANCH   1  26
ATOM     26  O2  DEG d   1      52.782 -12.140  21.976  0.00  0.00    -0.388 OA
ATOM     27  H11 DEG d   1      52.566 -12.011  21.060  0.00  0.00     0.210 HD
ENDBRANCH   1  26
BRANCH   2  28
ATOM     28  O3  DEG d   1      54.813 -11.592  20.088  0.00  0.00    -0.390 OA
ATOM     29  H13 DEG d   1      54.751 -12.417  19.621  0.00  0.00     0.210 HD
ENDBRANCH   2  28
BRANCH   4  30
ATOM     30  C6  DEG d   1      55.582  -9.512  24.591  0.00  0.00     0.043 C 
ATOM     31  H17 DEG d   1      56.379  -8.844  24.232  0.00  0.00     0.078 H 
ATOM     32  H18 DEG d   1      55.758  -9.757  25.649  0.00  0.00     0.078 H 
BRANCH  30  33
ATOM     33  O6  DEG d   1      54.310  -8.847  24.462  0.00  0.00    -0.398 OA
ATOM     34  H19 DEG d   1      54.317  -8.050  24.979  0.00  0.00     0.209 HD
ENDBRANCH  30  33
ENDBRANCH   4  30
BRANCH   3  35
ATOM     35  O4  DEG d   1      56.375  -9.772  21.670  0.00  0.00    -0.390 OA
ATOM     36  H15 DEG d   1      56.488  -8.968  22.163  0.00  0.00     0.210 HD
ENDBRANCH   3  35
TORSDOF 10
