REMARK  4 active torsions:
REMARK  status: ('A' for Active; 'I' for Inactive)
REMARK    1  A    between atoms: C19_24  and  C12_17 
REMARK    2  A    between atoms: C12_17  and  C13_18 
REMARK    3  A    between atoms: C16_21  and  O3_32 
REMARK    4  A    between atoms: C22_27  and  O4_33 
ROOT
ATOM      1  H1  A15 d   1      19.247  56.083 -59.679  0.00  0.00     0.085 H 
ATOM      2  H2  A15 d   1      19.149  58.474 -60.265  0.00  0.00     0.083 H 
ATOM      3  H3  A15 d   1      20.654  60.097 -59.163  0.00  0.00     0.084 H 
ATOM      4  H4  A15 d   1      22.555  60.585 -57.549  0.00  0.00     0.084 H 
ATOM      5  H5  A15 d   1      24.323  59.768 -56.035  0.00  0.00     0.083 H 
ATOM      6  C1  A15 d   1      20.896  54.880 -57.854  0.00  0.00     0.296 A 
ATOM      7  C2  A15 d   1      20.804  56.299 -58.121  0.00  0.00     0.051 A 
ATOM      8  C3  A15 d   1      19.892  56.786 -59.165  0.00  0.00    -0.066 A 
ATOM      9  C4  A15 d   1      19.843  58.135 -59.505  0.00  0.00    -0.081 A 
ATOM     10  C5  A15 d   1      20.683  59.053 -58.872  0.00  0.00    -0.072 A 
ATOM     11  C6  A15 d   1      21.601  58.621 -57.821  0.00  0.00    -0.024 A 
ATOM     12  C7  A15 d   1      22.581  59.538 -57.268  0.00  0.00    -0.072 A 
ATOM     13  C8  A15 d   1      23.554  59.087 -56.380  0.00  0.00    -0.082 A 
ATOM     14  C9  A15 d   1      23.548  57.770 -55.931  0.00  0.00    -0.072 A 
ATOM     15  C10 A15 d   1      22.569  56.777 -56.445  0.00  0.00    -0.002 A 
ATOM     16  C11 A15 d   1      21.637  57.228 -57.436  0.00  0.00     0.000 A 
ATOM     17  C12 A15 d   1      22.670  55.379 -56.096  0.00  0.00     0.153 A 
ATOM     18  O1  A15 d   1      21.794  54.449 -56.911  0.00  0.00    -0.291 OA
ATOM     19  O2  A15 d   1      20.205  54.066 -58.468  0.00  0.00    -0.259 OA
ATOM     20  H6  A15 d   1      24.275  57.461 -55.188  0.00  0.00     0.084 H 
ENDROOT
BRANCH  17  21
ATOM     21  C19 A15 d   1      22.214  55.121 -54.742  0.00  0.00    -0.012 A 
ATOM     22  C24 A15 d   1      21.781  53.806 -54.402  0.00  0.00    -0.070 A 
ATOM     23  C23 A15 d   1      21.339  53.500 -53.119  0.00  0.00    -0.049 A 
ATOM     24  H12 A15 d   1      21.797  53.029 -55.158  0.00  0.00     0.084 H 
ATOM     25  C22 A15 d   1      21.307  54.498 -52.131  0.00  0.00     0.087 A 
ATOM     26  H11 A15 d   1      21.019  52.492 -52.882  0.00  0.00     0.087 H 
ATOM     27  C21 A15 d   1      21.711  55.807 -52.436  0.00  0.00     0.067 A 
ATOM     28 CL2  A15 d   1      21.586  57.036 -51.242  0.00  0.00    -0.081 Cl
ATOM     29  C20 A15 d   1      22.174  56.120 -53.730  0.00  0.00    -0.050 A 
ATOM     30  H10 A15 d   1      22.502  57.128 -53.956  0.00  0.00     0.087 H 
BRANCH  25  31
ATOM     31  O4  A15 d   1      20.865  54.177 -50.813  0.00  0.00    -0.359 OA
ATOM     32  H14 A15 d   1      21.564  54.352 -50.194  0.00  0.00     0.217 HD
ENDBRANCH  25  31
ENDBRANCH  17  21
BRANCH  17  33
ATOM     33  C13 A15 d   1      24.036  54.975 -56.225  0.00  0.00    -0.012 A 
ATOM     34  C18 A15 d   1      24.924  54.992 -55.110  0.00  0.00    -0.070 A 
ATOM     35  C17 A15 d   1      26.249  54.607 -55.248  0.00  0.00    -0.049 A 
ATOM     36  H9  A15 d   1      24.558  55.310 -54.141  0.00  0.00     0.084 H 
ATOM     37  C16 A15 d   1      26.721  54.172 -56.487  0.00  0.00     0.087 A 
ATOM     38  H8  A15 d   1      26.917  54.644 -54.395  0.00  0.00     0.087 H 
ATOM     39  C15 A15 d   1      25.876  54.171 -57.607  0.00  0.00     0.067 A 
ATOM     40 CL1  A15 d   1      26.482  53.683 -59.141  0.00  0.00    -0.081 Cl
ATOM     41  C14 A15 d   1      24.535  54.572 -57.477  0.00  0.00    -0.050 A 
ATOM     42  H7  A15 d   1      23.884  54.571 -58.344  0.00  0.00     0.087 H 
BRANCH  37  43
ATOM     43  O3  A15 d   1      28.044  53.683 -56.593  0.00  0.00    -0.359 OA
ATOM     44  H13 A15 d   1      28.519  54.194 -57.238  0.00  0.00     0.217 HD
ENDBRANCH  37  43
ENDBRANCH  17  33
TORSDOF 4
