REMARK  5 active torsions:
REMARK  status: ('A' for Active; 'I' for Inactive)
REMARK    1  A    between atoms: C7_7  and  N1_25 
REMARK    2  A    between atoms: C12_12  and  C13_13 
REMARK    3  A    between atoms: C12_12  and  C19_19 
REMARK    4  A    between atoms: C16_16  and  O3_28 
REMARK    5  A    between atoms: C22_22  and  O4_29 
ROOT
ATOM      1  C1  MR2 d   1      19.140  52.365 -54.511  0.00  0.00     0.296 A 
ATOM      2  C2  MR2 d   1      19.249  51.307 -53.675  0.00  0.00     0.051 A 
ATOM      3  C3  MR2 d   1      19.182  49.976 -54.222  0.00  0.00    -0.066 A 
ATOM      4  C4  MR2 d   1      19.152  48.877 -53.346  0.00  0.00    -0.081 A 
ATOM      5  C5  MR2 d   1      19.209  49.077 -51.951  0.00  0.00    -0.070 A 
ATOM      6  C6  MR2 d   1      19.307  50.436 -51.429  0.00  0.00     0.009 A 
ATOM      7  C7  MR2 d   1      19.263  50.641 -49.995  0.00  0.00     0.114 A 
ATOM      8  C8  MR2 d   1      19.198  52.012 -49.488  0.00  0.00    -0.049 A 
ATOM      9  C9  MR2 d   1      19.213  53.078 -50.344  0.00  0.00    -0.070 A 
ATOM     10  C10 MR2 d   1      19.295  52.830 -51.818  0.00  0.00    -0.002 A 
ATOM     11  C11 MR2 d   1      19.315  51.510 -52.307  0.00  0.00     0.003 A 
ATOM     12  C12 MR2 d   1      19.162  53.925 -52.717  0.00  0.00     0.153 A 
ATOM     13  O1  MR2 d   1      19.084  53.512 -54.116  0.00  0.00    -0.291 OA
ATOM     14  O2  MR2 d   1      19.124  52.117 -55.707  0.00  0.00    -0.259 OA
ATOM     15  H1  MR2 d   1      19.155  49.824 -55.295  0.00  0.00     0.085 H 
ATOM     16  H2  MR2 d   1      19.085  47.871 -53.745  0.00  0.00     0.083 H 
ATOM     17  H3  MR2 d   1      19.180  48.231 -51.274  0.00  0.00     0.084 H 
ATOM     18  H4  MR2 d   1      19.137  52.185 -48.420  0.00  0.00     0.087 H 
ATOM     19  H5  MR2 d   1      19.166  54.091 -49.960  0.00  0.00     0.084 H 
ENDROOT
BRANCH  12  20
ATOM     20  C13 MR2 d   1      17.946  54.620 -52.475  0.00  0.00    -0.014 A 
ATOM     21  C14 MR2 d   1      16.790  53.921 -51.975  0.00  0.00    -0.071 A 
ATOM     22  C15 MR2 d   1      15.638  54.610 -51.626  0.00  0.00    -0.050 A 
ATOM     23  H6  MR2 d   1      16.821  52.843 -51.870  0.00  0.00     0.084 H 
ATOM     24  C16 MR2 d   1      15.579  55.986 -51.894  0.00  0.00     0.065 A 
ATOM     25  H7  MR2 d   1      14.805  54.099 -51.158  0.00  0.00     0.087 H 
ATOM     26  C17 MR2 d   1      16.699  56.687 -52.359  0.00  0.00    -0.050 A 
ATOM     27  C18 MR2 d   1      17.861  56.024 -52.688  0.00  0.00    -0.071 A 
ATOM     28  H8  MR2 d   1      16.651  57.765 -52.461  0.00  0.00     0.087 H 
ATOM     29  H9  MR2 d   1      18.702  56.566 -53.105  0.00  0.00     0.084 H 
BRANCH  24  30
ATOM     30  O3  MR2 d   1      14.310  56.603 -51.867  0.00  0.00    -0.361 OA
ATOM     31  H14 MR2 d   1      13.669  55.991 -51.526  0.00  0.00     0.217 HD
ENDBRANCH  24  30
ENDBRANCH  12  20
BRANCH  12  32
ATOM     32  C19 MR2 d   1      20.299  54.855 -52.716  0.00  0.00    -0.014 A 
ATOM     33  C20 MR2 d   1      20.902  55.220 -53.952  0.00  0.00    -0.071 A 
ATOM     34  C21 MR2 d   1      21.971  56.114 -54.019  0.00  0.00    -0.050 A 
ATOM     35  H10 MR2 d   1      20.519  54.790 -54.870  0.00  0.00     0.084 H 
ATOM     36  C22 MR2 d   1      22.435  56.720 -52.844  0.00  0.00     0.065 A 
ATOM     37  H11 MR2 d   1      22.438  56.338 -54.971  0.00  0.00     0.087 H 
ATOM     38  C23 MR2 d   1      21.788  56.472 -51.625  0.00  0.00    -0.050 A 
ATOM     39  C24 MR2 d   1      20.765  55.533 -51.529  0.00  0.00    -0.071 A 
ATOM     40  H12 MR2 d   1      22.090  57.022 -50.741  0.00  0.00     0.087 H 
ATOM     41  H13 MR2 d   1      20.319  55.311 -50.566  0.00  0.00     0.084 H 
BRANCH  36  42
ATOM     42  O4  MR2 d   1      23.601  57.534 -52.886  0.00  0.00    -0.361 OA
ATOM     43  H15 MR2 d   1      23.392  58.401 -52.559  0.00  0.00     0.217 HD
ENDBRANCH  36  42
ENDBRANCH  12  32
BRANCH   7  44
ATOM     44  N1  MR2 d   1      19.280  49.416 -48.960  0.00  0.00    -0.115 N 
ATOM     45  O5  MR2 d   1      18.819  49.615 -47.825  0.00  0.00    -0.532 OA
ATOM     46  O6  MR2 d   1      19.741  48.429 -49.373  0.00  0.00    -0.532 OA
ENDBRANCH   7  44
TORSDOF 5
