REMARK  9 active torsions:
REMARK  status: ('A' for Active; 'I' for Inactive)
REMARK    1  A    between atoms: C34_22  and  C1_1 
REMARK    2  A    between atoms: C3_3  and  C13_6 
REMARK    3  A    between atoms: C4_4  and  C19_18 
REMARK    4  A    between atoms: C29_21  and  O3_26 
REMARK    5  A    between atoms: C27_25  and  O2_30 
REMARK    6  A    between atoms: O3_26  and  C31_27 
REMARK    7  A    between atoms: C31_27  and  C32_28 
REMARK    8  A    between atoms: C31_27  and  C33_29 
REMARK    9  A    between atoms: O2_30  and  C30_31 
ROOT
ATOM      1  C1  IMY d   1       0.644 -11.196  -5.444  0.00  0.00     0.133 C 
ATOM      2  N2  IMY d   1       1.424 -10.467  -4.657  0.00  0.00    -0.260 NA
ATOM      3  C3  IMY d   1       0.976  -9.042  -4.724  0.00  0.00     0.083 C 
ATOM      4  C4  IMY d   1       0.306  -9.046  -6.142  0.00  0.00     0.062 C 
ATOM      5  N5  IMY d   1      -0.099 -10.451  -6.261  0.00  0.00    -0.363 N 
ATOM      6  H1  IMY d   1       1.835  -8.356  -4.704  0.00  0.00     0.087 H 
ATOM      7  H2  IMY d   1       1.103  -8.839  -6.872  0.00  0.00     0.084 H 
ATOM      8  H3  IMY d   1      -0.842 -10.806  -6.880  0.00  0.00     0.162 HD
ENDROOT
BRANCH   1   9
ATOM      9  C34 IMY d   1       0.493 -12.659  -5.520  0.00  0.00     0.043 A 
ATOM     10  C29 IMY d   1       0.960 -13.557  -4.536  0.00  0.00     0.086 A 
ATOM     11  C28 IMY d   1       0.643 -14.925  -4.643  0.00  0.00    -0.018 A 
ATOM     12  C27 IMY d   1      -0.126 -15.406  -5.702  0.00  0.00     0.070 A 
ATOM     13  H12 IMY d   1       1.003 -15.616  -3.889  0.00  0.00     0.092 H 
ATOM     14  C26 IMY d   1      -0.578 -14.528  -6.686  0.00  0.00    -0.050 A 
ATOM     15  C25 IMY d   1      -0.270 -13.174  -6.594  0.00  0.00    -0.064 A 
ATOM     16  H14 IMY d   1      -1.166 -14.898  -7.518  0.00  0.00     0.087 H 
ATOM     17  H13 IMY d   1      -0.623 -12.498  -7.364  0.00  0.00     0.085 H 
BRANCH  10  18
ATOM     18  O3  IMY d   1       1.706 -13.023  -3.489  0.00  0.00    -0.346 OA
BRANCH  18  19
ATOM     19  C31 IMY d   1       1.823 -13.769  -2.252  0.00  0.00     0.038 C 
ATOM     20  H15 IMY d   1       2.510 -14.617  -2.390  0.00  0.00     0.082 H 
BRANCH  19  21
ATOM     21  C32 IMY d   1       2.336 -12.877  -1.120  0.00  0.00    -0.052 C 
ATOM     22  H16 IMY d   1       2.415 -13.467  -0.195  0.00  0.00     0.030 H 
ATOM     23  H17 IMY d   1       1.636 -12.043  -0.964  0.00  0.00     0.030 H 
ATOM     24  H18 IMY d   1       3.326 -12.479  -1.387  0.00  0.00     0.030 H 
ENDBRANCH  19  21
BRANCH  19  25
ATOM     25  C33 IMY d   1       0.427 -14.271  -1.901  0.00  0.00    -0.052 C 
ATOM     26  H19 IMY d   1       0.469 -14.846  -0.964  0.00  0.00     0.030 H 
ATOM     27  H20 IMY d   1       0.055 -14.916  -2.711  0.00  0.00     0.030 H 
ATOM     28  H21 IMY d   1      -0.250 -13.413  -1.775  0.00  0.00     0.030 H 
ENDBRANCH  19  25
ENDBRANCH  18  19
ENDBRANCH  10  18
BRANCH  12  29
ATOM     29  O2  IMY d   1      -0.406 -16.763  -5.650  0.00  0.00    -0.356 OA
BRANCH  29  30
ATOM     30  C30 IMY d   1      -0.874 -17.361  -6.865  0.00  0.00     0.010 C 
ATOM     31  H22 IMY d   1      -1.060 -18.432  -6.698  0.00  0.00     0.066 H 
ATOM     32  H23 IMY d   1      -0.114 -17.239  -7.651  0.00  0.00     0.066 H 
ATOM     33  H24 IMY d   1      -1.808 -16.871  -7.179  0.00  0.00     0.066 H 
ENDBRANCH  29  30
ENDBRANCH  12  29
ENDBRANCH   1   9
BRANCH   3  34
ATOM     34  C13 IMY d   1       0.045  -8.667  -3.581  0.00  0.00    -0.031 A 
ATOM     35  C14 IMY d   1      -0.162  -7.310  -3.283  0.00  0.00    -0.073 A 
ATOM     36  C15 IMY d   1      -1.092  -6.920  -2.314  0.00  0.00    -0.061 A 
ATOM     37  H4  IMY d   1       0.407  -6.554  -3.812  0.00  0.00     0.084 H 
ATOM     38  C16 IMY d   1      -1.844  -7.873  -1.648  0.00  0.00     0.034 A 
ATOM     39  H5  IMY d   1      -1.224  -5.869  -2.084  0.00  0.00     0.086 H 
ATOM     40  C17 IMY d   1      -1.623  -9.217  -1.897  0.00  0.00    -0.061 A 
ATOM     41 CL16 IMY d   1      -3.040  -7.396  -0.513  0.00  0.00    -0.084 Cl
ATOM     42  C18 IMY d   1      -0.687  -9.619  -2.848  0.00  0.00    -0.073 A 
ATOM     43  H6  IMY d   1      -2.184  -9.964  -1.347  0.00  0.00     0.086 H 
ATOM     44  H7  IMY d   1      -0.521 -10.676  -3.025  0.00  0.00     0.084 H 
ENDBRANCH   3  34
BRANCH   4  45
ATOM     45  C19 IMY d   1      -0.813  -8.100  -6.512  0.00  0.00    -0.033 A 
ATOM     46  C20 IMY d   1      -0.506  -6.776  -6.877  0.00  0.00    -0.073 A 
ATOM     47  C21 IMY d   1      -1.512  -5.868  -7.205  0.00  0.00    -0.061 A 
ATOM     48  H8  IMY d   1       0.530  -6.457  -6.904  0.00  0.00     0.084 H 
ATOM     49  C22 IMY d   1      -2.844  -6.260  -7.147  0.00  0.00     0.034 A 
ATOM     50  H9  IMY d   1      -1.256  -4.858  -7.505  0.00  0.00     0.086 H 
ATOM     51  C23 IMY d   1      -3.176  -7.554  -6.766  0.00  0.00    -0.061 A 
ATOM     52 CL22 IMY d   1      -4.087  -5.149  -7.554  0.00  0.00    -0.084 Cl
ATOM     53  C24 IMY d   1      -2.167  -8.479  -6.494  0.00  0.00    -0.073 A 
ATOM     54  H10 IMY d   1      -4.217  -7.845  -6.680  0.00  0.00     0.086 H 
ATOM     55  H11 IMY d   1      -2.431  -9.505  -6.265  0.00  0.00     0.084 H 
ENDBRANCH   4  45
TORSDOF 9
