REMARK  14 active torsions:
REMARK  status: ('A' for Active; 'I' for Inactive)
REMARK    1  A    between atoms: C2_2  and  C1_1 
REMARK    2  A    between atoms: C3_3  and  C2_2 
REMARK    3  A    between atoms: C4_4  and  C3_3 
REMARK    4  A    between atoms: C5_5  and  C4_4 
REMARK    5  A    between atoms: C5_5  and  N6_6 
REMARK    6  A    between atoms: C23_31  and  C5_5 
REMARK       I    between atoms: N6_6  and  C7_7 
REMARK    7  A    between atoms: C7_7  and  O9_9 
REMARK    8  A    between atoms: O9_9  and  C10_10 
REMARK    9  A    between atoms: C10_10  and  C11_11 
REMARK   10  A    between atoms: C11_11  and  C12_12 
REMARK   11  A    between atoms: C12_12  and  C13_13 
REMARK       I    between atoms: C25_23  and  N27_25 
REMARK   12  A    between atoms: C25_23  and  C23_31 
REMARK   13  A    between atoms: N27_25  and  C28_26 
REMARK   14  A    between atoms: C23_31  and  O24_32 
ROOT
ATOM      1  N6  FSP d   1      59.510 -74.635 146.777  0.00  0.00    -0.329 N 
ATOM      2  C7  FSP d   1      58.907 -75.103 147.867  0.00  0.00     0.360 C 
ATOM      3  O8  FSP d   1      58.811 -76.318 148.048  0.00  0.00    -0.239 OA
ATOM      4  H11 FSP d   1      59.307 -73.710 146.455  0.00  0.00     0.165 HD
ENDROOT
BRANCH   1   5
ATOM      5  C5  FSP d   1      60.447 -75.447 146.062  0.00  0.00     0.047 C 
ATOM      6  H10 FSP d   1      60.521 -76.449 146.510  0.00  0.00     0.077 H 
BRANCH   5   7
ATOM      7  C4  FSP d   1      60.006 -75.519 144.544  0.00  0.00    -0.043 C 
ATOM      8  H8  FSP d   1      60.382 -74.626 144.023  0.00  0.00     0.036 H 
ATOM      9  H9  FSP d   1      60.445 -76.420 144.090  0.00  0.00     0.036 H 
BRANCH   7  10
ATOM     10  C3  FSP d   1      58.474 -75.579 144.385  0.00  0.00    -0.063 C 
ATOM     11  H6  FSP d   1      58.105 -76.546 144.756  0.00  0.00     0.033 H 
ATOM     12  H7  FSP d   1      58.013 -74.764 144.963  0.00  0.00     0.033 H 
BRANCH  10  13
ATOM     13  C2  FSP d   1      58.106 -75.425 142.900  0.00  0.00    -0.068 C 
ATOM     14  H4  FSP d   1      57.027 -75.594 142.773  0.00  0.00     0.032 H 
ATOM     15  H5  FSP d   1      58.359 -74.408 142.565  0.00  0.00     0.032 H 
BRANCH  13  16
ATOM     16  C1  FSP d   1      58.893 -76.458 142.049  0.00  0.00    -0.077 C 
ATOM     17  H1  FSP d   1      58.624 -76.341 140.989  0.00  0.00     0.027 H 
ATOM     18  H2  FSP d   1      58.640 -77.476 142.381  0.00  0.00     0.027 H 
ATOM     19  H3  FSP d   1      59.973 -76.289 142.174  0.00  0.00     0.027 H 
ENDBRANCH  13  16
ENDBRANCH  10  13
ENDBRANCH   7  10
ENDBRANCH   5   7
BRANCH   5  20
ATOM     20  C23 FSP d   1      61.791 -74.736 146.054  0.00  0.00     0.132 C 
ATOM     21  H30 FSP d   1      62.158 -75.071 147.035  0.00  0.00     0.101 H 
BRANCH  20  22
ATOM     22  C25 FSP d   1      62.847 -75.390 145.172  0.00  0.00     0.254 C 
ATOM     23  O26 FSP d   1      63.033 -76.604 145.203  0.00  0.00    -0.270 OA
ATOM     24  N27 FSP d   1      63.518 -74.608 144.300  0.00  0.00    -0.308 N 
ATOM     25  H26 FSP d   1      63.523 -73.617 144.433  0.00  0.00     0.170 HD
BRANCH  24  26
ATOM     26  C28 FSP d   1      64.188 -75.143 143.244  0.00  0.00     0.151 A 
ATOM     27  C29 FSP d   1      63.590 -75.730 142.167  0.00  0.00    -0.021 A 
ATOM     28  C30 FSP d   1      64.596 -76.133 141.341  0.00  0.00    -0.001 A 
ATOM     29  H27 FSP d   1      62.521 -75.852 142.001  0.00  0.00     0.091 H 
ATOM     30  N31 FSP d   1      65.806 -75.776 141.943  0.00  0.00    -0.287 N 
ATOM     31  H28 FSP d   1      64.479 -76.641 140.385  0.00  0.00     0.113 H 
ATOM     32  N32 FSP d   1      65.549 -75.154 143.137  0.00  0.00    -0.157 NA
ATOM     33  H29 FSP d   1      66.742 -75.952 141.551  0.00  0.00     0.188 HD
ENDBRANCH  24  26
ENDBRANCH  20  22
BRANCH  20  34
ATOM     34  O24 FSP d   1      61.863 -73.425 146.275  0.00  0.00    -0.384 OA
ATOM     35  H31 FSP d   1      62.689 -73.221 146.697  0.00  0.00     0.210 HD
ENDBRANCH  20  34
ENDBRANCH   5  20
ENDBRANCH   1   5
BRANCH   2  36
ATOM     36  O9  FSP d   1      58.444 -74.265 148.733  0.00  0.00    -0.303 OA
BRANCH  36  37
ATOM     37  C10 FSP d   1      57.696 -74.874 149.756  0.00  0.00     0.038 C 
ATOM     38  H12 FSP d   1      58.363 -75.191 150.571  0.00  0.00     0.076 H 
ATOM     39  H13 FSP d   1      57.160 -75.749 149.359  0.00  0.00     0.076 H 
BRANCH  37  40
ATOM     40  C11 FSP d   1      56.705 -73.848 150.268  0.00  0.00    -0.014 A 
ATOM     41  C20 FSP d   1      56.117 -74.221 151.625  0.00  0.00    -0.056 A 
ATOM     42  C21 FSP d   1      56.849 -73.033 152.257  0.00  0.00    -0.064 A 
ATOM     43  H20 FSP d   1      56.441 -75.202 152.002  0.00  0.00     0.034 H 
ATOM     44  H21 FSP d   1      55.020 -74.153 151.675  0.00  0.00     0.034 H 
ATOM     45  C22 FSP d   1      57.412 -72.644 150.869  0.00  0.00    -0.056 A 
ATOM     46  H22 FSP d   1      57.618 -73.317 152.990  0.00  0.00     0.033 H 
ATOM     47  H23 FSP d   1      56.182 -72.278 152.699  0.00  0.00     0.033 H 
ATOM     48  H24 FSP d   1      57.054 -71.675 150.492  0.00  0.00     0.034 H 
ATOM     49  H25 FSP d   1      58.509 -72.683 150.799  0.00  0.00     0.034 H 
BRANCH  40  50
ATOM     50  C12 FSP d   1      55.621 -73.433 149.205  0.00  0.00    -0.032 C 
ATOM     51  H14 FSP d   1      56.078 -72.758 148.467  0.00  0.00     0.041 H 
ATOM     52  H15 FSP d   1      54.795 -72.915 149.714  0.00  0.00     0.041 H 
BRANCH  50  53
ATOM     53  C13 FSP d   1      55.075 -74.661 148.489  0.00  0.00    -0.057 A 
ATOM     54  C14 FSP d   1      55.346 -74.854 147.146  0.00  0.00    -0.074 A 
ATOM     55  C15 FSP d   1      54.851 -75.971 146.492  0.00  0.00    -0.045 A 
ATOM     56  H16 FSP d   1      55.946 -74.131 146.605  0.00  0.00     0.084 H 
ATOM     57  C16 FSP d   1      54.085 -76.890 147.178  0.00  0.00     0.116 A 
ATOM     58  H17 FSP d   1      55.066 -76.123 145.440  0.00  0.00     0.088 H 
ATOM     59  F17 FSP d   1      53.608 -77.967 146.544  0.00  0.00    -0.206 F 
ATOM     60  C18 FSP d   1      53.810 -76.701 148.526  0.00  0.00    -0.045 A 
ATOM     61  C19 FSP d   1      54.300 -75.590 149.180  0.00  0.00    -0.074 A 
ATOM     62  H18 FSP d   1      53.211 -77.426 149.064  0.00  0.00     0.088 H 
ATOM     63  H19 FSP d   1      54.082 -75.440 150.231  0.00  0.00     0.084 H 
ENDBRANCH  50  53
ENDBRANCH  40  50
ENDBRANCH  37  40
ENDBRANCH  36  37
ENDBRANCH   2  36
TORSDOF 14
