REMARK  8 active torsions:
REMARK  status: ('A' for Active; 'I' for Inactive)
REMARK    1  A    between atoms: C1_1  and  C2_2 
REMARK    2  A    between atoms: C2_2  and  C3_3 
REMARK    3  A    between atoms: C3_3  and  C4_4 
REMARK    4  A    between atoms: C4_4  and  C5_5 
REMARK    5  A    between atoms: C5_5  and  C6_6 
REMARK    6  A    between atoms: C6_6  and  C7_7 
REMARK    7  A    between atoms: C7_7  and  C8_8 
REMARK    8  A    between atoms: C8_8  and  C9_9 
ROOT
ATOM      1  C5  AZ1 d   1      60.495  11.984  21.653  0.00  0.00    -0.065 C 
ATOM      2  H7  AZ1 d   1      60.110  11.514  20.736  0.00  0.00     0.033 H 
ATOM      3  H8  AZ1 d   1      60.413  11.276  22.491  0.00  0.00     0.033 H 
ENDROOT
BRANCH   1   4
ATOM      4  C4  AZ1 d   1      59.603  13.179  21.969  0.00  0.00    -0.065 C 
ATOM      5  H5  AZ1 d   1      59.573  13.241  23.067  0.00  0.00     0.033 H 
ATOM      6  H6  AZ1 d   1      60.132  14.055  21.566  0.00  0.00     0.033 H 
BRANCH   4   7
ATOM      7  C3  AZ1 d   1      58.150  13.332  21.511  0.00  0.00    -0.056 C 
ATOM      8  H3  AZ1 d   1      57.611  13.591  22.435  0.00  0.00     0.033 H 
ATOM      9  H4  AZ1 d   1      58.177  14.207  20.845  0.00  0.00     0.033 H 
BRANCH   7  10
ATOM     10  C2  AZ1 d   1      57.202  12.362  20.797  0.00  0.00     0.016 C 
ATOM     11  H1  AZ1 d   1      57.822  12.146  19.914  0.00  0.00     0.049 H 
ATOM     12  H2  AZ1 d   1      57.264  11.521  21.503  0.00  0.00     0.049 H 
BRANCH  10  13
ATOM     13  C1  AZ1 d   1      55.827  12.053  20.193  0.00  0.00     0.172 C 
ATOM     14  O1  AZ1 d   1      55.561  10.847  19.628  0.00  0.00    -0.648 OA
ATOM     15  O2  AZ1 d   1      54.947  12.913  20.224  0.00  0.00    -0.648 OA
ENDBRANCH  10  13
ENDBRANCH   7  10
ENDBRANCH   4   7
ENDBRANCH   1   4
BRANCH   1  16
ATOM     16  C6  AZ1 d   1      61.983  12.275  21.435  0.00  0.00    -0.065 C 
ATOM     17  H9  AZ1 d   1      62.494  11.443  21.942  0.00  0.00     0.033 H 
ATOM     18  H10 AZ1 d   1      62.157  13.207  21.993  0.00  0.00     0.033 H 
BRANCH  16  19
ATOM     19  C7  AZ1 d   1      62.780  12.465  20.136  0.00  0.00    -0.056 C 
ATOM     20  H11 AZ1 d   1      62.145  13.080  19.482  0.00  0.00     0.033 H 
ATOM     21  H12 AZ1 d   1      62.890  11.460  19.701  0.00  0.00     0.033 H 
BRANCH  19  22
ATOM     22  C8  AZ1 d   1      64.171  13.097  20.082  0.00  0.00     0.016 C 
ATOM     23  H13 AZ1 d   1      64.129  14.051  20.628  0.00  0.00     0.049 H 
ATOM     24  H14 AZ1 d   1      64.413  13.289  19.026  0.00  0.00     0.049 H 
BRANCH  22  25
ATOM     25  C9  AZ1 d   1      65.297  12.271  20.674  0.00  0.00     0.172 C 
ATOM     26  O3  AZ1 d   1      65.609  11.073  20.078  0.00  0.00    -0.648 OA
ATOM     27  O4  AZ1 d   1      65.872  12.720  21.680  0.00  0.00    -0.648 OA
ENDBRANCH  22  25
ENDBRANCH  19  22
ENDBRANCH  16  19
ENDBRANCH   1  16
TORSDOF 8
