REMARK  4 active torsions:
REMARK  status: ('A' for Active; 'I' for Inactive)
REMARK    1  A    between atoms: N3_3  and  C10_10 
REMARK    2  A    between atoms: C10_10  and  C11_11 
REMARK    3  A    between atoms: C14_14  and  N17_17 
REMARK    4  A    between atoms: C18_18  and  C26_26 
ROOT
ATOM      1  C11 CP9 d   1     142.526 -25.939  76.054  0.00  0.00    -0.040 A 
ATOM      2  C12 CP9 d   1     142.955 -27.235  76.312  0.00  0.00    -0.073 A 
ATOM      3  C13 CP9 d   1     142.608 -28.311  75.463  0.00  0.00    -0.056 A 
ATOM      4  C14 CP9 d   1     141.802 -28.097  74.304  0.00  0.00     0.041 A 
ATOM      5  C15 CP9 d   1     141.368 -26.773  74.046  0.00  0.00    -0.056 A 
ATOM      6  C16 CP9 d   1     141.727 -25.720  74.912  0.00  0.00    -0.073 A 
ATOM      7  H7  CP9 d   1     143.570 -27.426  77.184  0.00  0.00     0.084 H 
ATOM      8  H8  CP9 d   1     142.958 -29.310  75.695  0.00  0.00     0.087 H 
ATOM      9  H9  CP9 d   1     140.755 -26.568  73.176  0.00  0.00     0.087 H 
ATOM     10  H10 CP9 d   1     141.380 -24.716  74.695  0.00  0.00     0.084 H 
ENDROOT
BRANCH   1  11
ATOM     11  C10 CP9 d   1     142.856 -24.756  76.941  0.00  0.00     0.027 C 
ATOM     12  H5  CP9 d   1     141.971 -24.103  76.954  0.00  0.00     0.072 H 
ATOM     13  H6  CP9 d   1     143.036 -25.149  77.953  0.00  0.00     0.072 H 
BRANCH  11  14
ATOM     14  N3  CP9 d   1     144.018 -23.910  76.588  0.00  0.00    -0.303 N 
ATOM     15  C2  CP9 d   1     145.290 -24.208  77.079  0.00  0.00     0.291 A 
ATOM     16  S1  CP9 d   1     146.445 -23.010  76.492  0.00  0.00    -0.027 SA
ATOM     17  O27 CP9 d   1     145.590 -25.150  77.804  0.00  0.00    -0.259 OA
ATOM     18  C5  CP9 d   1     145.199 -22.143  75.608  0.00  0.00     0.037 A 
ATOM     19  C4  CP9 d   1     143.948 -22.763  75.777  0.00  0.00     0.055 A 
ATOM     20  C6  CP9 d   1     145.334 -20.972  74.822  0.00  0.00    -0.064 A 
ATOM     21  C9  CP9 d   1     142.789 -22.235  75.140  0.00  0.00    -0.056 A 
ATOM     22  C8  CP9 d   1     142.928 -21.079  74.360  0.00  0.00    -0.081 A 
ATOM     23  H4  CP9 d   1     141.824 -22.715  75.255  0.00  0.00     0.087 H 
ATOM     24  C7  CP9 d   1     144.186 -20.447  74.195  0.00  0.00    -0.082 A 
ATOM     25  H3  CP9 d   1     142.055 -20.659  73.873  0.00  0.00     0.083 H 
ATOM     26  H2  CP9 d   1     144.266 -19.555  73.584  0.00  0.00     0.083 H 
ATOM     27  H1  CP9 d   1     146.298 -20.491  74.706  0.00  0.00     0.085 H 
ENDBRANCH  11  14
ENDBRANCH   1  11
BRANCH   4  28
ATOM     28  N17 CP9 d   1     141.412 -29.237  73.377  0.00  0.00    -0.298 N 
ATOM     29  C18 CP9 d   1     140.624 -29.231  72.161  0.00  0.00     0.108 A 
ATOM     30  N19 CP9 d   1     140.501 -30.424  71.623  0.00  0.00    -0.232 NA
ATOM     31  C20 CP9 d   1     141.194 -31.290  72.443  0.00  0.00     0.103 A 
ATOM     32  C21 CP9 d   1     141.784 -30.612  73.552  0.00  0.00     0.072 A 
ATOM     33  C25 CP9 d   1     141.396 -32.677  72.331  0.00  0.00     0.032 A 
ATOM     34  C22 CP9 d   1     142.543 -31.329  74.523  0.00  0.00    -0.037 A 
ATOM     35  C23 CP9 d   1     142.668 -32.712  74.296  0.00  0.00     0.004 A 
ATOM     36  H11 CP9 d   1     142.994 -30.841  75.379  0.00  0.00     0.089 H 
ATOM     37  N24 CP9 d   1     142.120 -33.382  73.242  0.00  0.00    -0.271 NA
ATOM     38  H12 CP9 d   1     143.243 -33.288  75.012  0.00  0.00     0.114 H 
ATOM     39  H13 CP9 d   1     140.960 -33.203  71.490  0.00  0.00     0.118 H 
BRANCH  29  40
ATOM     40  C26 CP9 d   1     139.998 -28.033  71.529  0.00  0.00    -0.021 C 
ATOM     41  H14 CP9 d   1     139.463 -28.337  70.617  0.00  0.00     0.037 H 
ATOM     42  H15 CP9 d   1     140.780 -27.304  71.269  0.00  0.00     0.037 H 
ATOM     43  H16 CP9 d   1     139.289 -27.575  72.234  0.00  0.00     0.037 H 
ENDBRANCH  29  40
ENDBRANCH   4  28
TORSDOF 4
