REMARK  10 active torsions:
REMARK  status: ('A' for Active; 'I' for Inactive)
REMARK    1  A    between atoms: C1_2  and  O_1 
REMARK    2  A    between atoms: C2_3  and  C2A_4 
REMARK    3  A    between atoms: C2A_4  and  C2B_5 
REMARK    4  A    between atoms: C2A_4  and  C2G_6 
REMARK    5  A    between atoms: S_11  and  C4_8 
REMARK    6  A    between atoms: C4'_19  and  S_11 
REMARK    7  A    between atoms: C1'_13  and  O'_12 
REMARK    8  A    between atoms: C2'_14  and  C2X_15 
REMARK    9  A    between atoms: C2X_15  and  C2Y_16 
REMARK   10  A    between atoms: C2X_15  and  C2Z_17 
ROOT
ATOM      1  S   178 d   1      -1.142  39.770 -17.789  0.00  0.00    -0.091 SA
ENDROOT
BRANCH   1   2
ATOM      2  C4  178 d   1      -2.221  38.495 -18.102  0.00  0.00     0.006 A 
ATOM      3  C3  178 d   1      -1.724  37.208 -18.383  0.00  0.00    -0.057 A 
ATOM      4  C2  178 d   1      -2.614  36.152 -18.641  0.00  0.00    -0.020 A 
ATOM      5  H9  178 d   1      -0.654  37.032 -18.400  0.00  0.00     0.086 H 
ATOM      6  C1  178 d   1      -4.013  36.390 -18.615  0.00  0.00     0.072 A 
ATOM      7  C6  178 d   1      -4.500  37.685 -18.332  0.00  0.00    -0.049 A 
ATOM      8  C5  178 d   1      -3.608  38.727 -18.077  0.00  0.00    -0.064 A 
ATOM      9  H11 178 d   1      -5.568  37.870 -18.313  0.00  0.00     0.087 H 
ATOM     10  H10 178 d   1      -3.985  39.719 -17.859  0.00  0.00     0.085 H 
BRANCH   4  11
ATOM     11  C2A 178 d   1      -2.089  34.778 -18.942  0.00  0.00    -0.033 C 
ATOM     12  H2  178 d   1      -2.936  34.097 -19.112  0.00  0.00     0.046 H 
BRANCH  11  13
ATOM     13  C2B 178 d   1      -1.268  34.270 -17.768  0.00  0.00    -0.069 C 
ATOM     14  H3  178 d   1      -0.887  33.264 -17.995  0.00  0.00     0.028 H 
ATOM     15  H4  178 d   1      -1.901  34.228 -16.869  0.00  0.00     0.028 H 
ATOM     16  H5  178 d   1      -0.422  34.951 -17.590  0.00  0.00     0.028 H 
ENDBRANCH  11  13
BRANCH  11  17
ATOM     17  C2G 178 d   1      -1.226  34.819 -20.188  0.00  0.00    -0.069 C 
ATOM     18  H6  178 d   1      -1.823  35.187 -21.035  0.00  0.00     0.028 H 
ATOM     19  H7  178 d   1      -0.857  33.807 -20.412  0.00  0.00     0.028 H 
ATOM     20  H8  178 d   1      -0.372  35.492 -20.021  0.00  0.00     0.028 H 
ENDBRANCH  11  17
ENDBRANCH   4  11
BRANCH   6  21
ATOM     21  O   178 d   1      -4.895  35.363 -18.867  0.00  0.00    -0.360 OA
ATOM     22  H1  178 d   1      -5.785  35.690 -18.810  0.00  0.00     0.217 HD
ENDBRANCH   6  21
ENDBRANCH   1   2
BRANCH   1  23
ATOM     23  C4' 178 d   1      -0.481  39.308 -16.293  0.00  0.00     0.006 A 
ATOM     24  C3' 178 d   1      -1.309  39.208 -15.159  0.00  0.00    -0.057 A 
ATOM     25  C2' 178 d   1      -0.767  38.827 -13.923  0.00  0.00    -0.020 A 
ATOM     26  H20 178 d   1      -2.368  39.426 -15.241  0.00  0.00     0.086 H 
ATOM     27  C1' 178 d   1       0.618  38.544 -13.821  0.00  0.00     0.072 A 
ATOM     28  C6' 178 d   1       1.442  38.647 -14.966  0.00  0.00    -0.049 A 
ATOM     29  C5' 178 d   1       0.893  39.027 -16.190  0.00  0.00    -0.064 A 
ATOM     30  H22 178 d   1       2.502  38.430 -14.892  0.00  0.00     0.087 H 
ATOM     31  H21 178 d   1       1.528  39.106 -17.065  0.00  0.00     0.085 H 
BRANCH  25  32
ATOM     32  C2X 178 d   1      -1.650  38.719 -12.713  0.00  0.00    -0.033 C 
ATOM     33  H13 178 d   1      -1.040  38.426 -11.846  0.00  0.00     0.046 H 
BRANCH  32  34
ATOM     34  C2Y 178 d   1      -2.305  40.061 -12.433  0.00  0.00    -0.069 C 
ATOM     35  H14 178 d   1      -2.950  39.976 -11.546  0.00  0.00     0.028 H 
ATOM     36  H15 178 d   1      -2.911  40.361 -13.300  0.00  0.00     0.028 H 
ATOM     37  H16 178 d   1      -1.528  40.817 -12.250  0.00  0.00     0.028 H 
ENDBRANCH  32  34
BRANCH  32  38
ATOM     38  C2Z 178 d   1      -2.720  37.670 -12.947  0.00  0.00    -0.069 C 
ATOM     39  H17 178 d   1      -2.244  36.699 -13.149  0.00  0.00     0.028 H 
ATOM     40  H18 178 d   1      -3.338  37.962 -13.809  0.00  0.00     0.028 H 
ATOM     41  H19 178 d   1      -3.354  37.587 -12.052  0.00  0.00     0.028 H 
ENDBRANCH  32  38
ENDBRANCH  25  32
BRANCH  27  42
ATOM     42  O'  178 d   1       1.163  38.169 -12.614  0.00  0.00    -0.360 OA
ATOM     43  H12 178 d   1       2.095  38.018 -12.722  0.00  0.00     0.217 HD
ENDBRANCH  27  42
ENDBRANCH   1  23
TORSDOF 10
