REMARK  3 active torsions:
REMARK  status: ('A' for Active; 'I' for Inactive)
REMARK    1  A    between atoms: C8_8  and  C11_11 
REMARK    2  A    between atoms: C9_9  and  C10_10 
REMARK    3  A    between atoms: C27_22  and  N30_25 
ROOT
ATOM      1  C1  FRZ d   1      11.504  -5.724  14.446  0.00  0.00    -0.066 A 
ATOM      2  C2  FRZ d   1      11.156  -5.258  15.778  0.00  0.00     0.002 A 
ATOM      3  N3  FRZ d   1       9.805  -4.989  16.094  0.00  0.00    -0.266 N 
ATOM      4  C4  FRZ d   1       8.711  -5.128  15.210  0.00  0.00     0.070 A 
ATOM      5  C5  FRZ d   1       9.018  -5.561  13.853  0.00  0.00    -0.054 A 
ATOM      6  C6  FRZ d   1      10.402  -5.857  13.496  0.00  0.00    -0.079 A 
ATOM      7  N7  FRZ d   1       9.348  -4.591  17.425  0.00  0.00    -0.292 N 
ATOM      8  C8  FRZ d   1       7.941  -4.520  17.318  0.00  0.00     0.073 A 
ATOM      9  C9  FRZ d   1       7.501  -4.836  15.962  0.00  0.00     0.052 A 
ATOM     10  H1  FRZ d   1      12.526  -5.960  14.172  0.00  0.00     0.085 H 
ATOM     11  H2  FRZ d   1      11.929  -5.117  16.525  0.00  0.00     0.114 H 
ATOM     12  H3  FRZ d   1       8.228  -5.662  13.117  0.00  0.00     0.087 H 
ATOM     13  H4  FRZ d   1      10.621  -6.188  12.487  0.00  0.00     0.083 H 
ATOM     14  H5  FRZ d   1       9.925  -4.404  18.257  0.00  0.00     0.187 HD
ENDROOT
BRANCH   9  15
ATOM     15  C10 FRZ d   1       6.139  -4.820  15.429  0.00  0.00     0.095 A 
ATOM     16  C22 FRZ d   1       5.224  -3.686  15.609  0.00  0.00    -0.035 A 
ATOM     17  C23 FRZ d   1       3.783  -3.715  15.405  0.00  0.00     0.062 A 
ATOM     18  H11 FRZ d   1       5.660  -2.744  15.921  0.00  0.00     0.088 H 
ATOM     19  C24 FRZ d   1       3.098  -4.909  14.975  0.00  0.00     0.180 A 
ATOM     20  C27 FRZ d   1       2.743  -2.744  15.632  0.00  0.00     0.155 A 
ATOM     21  N25 FRZ d   1       3.930  -6.035  14.741  0.00  0.00    -0.129 NA
ATOM     22  N29 FRZ d   1       1.712  -4.651  14.957  0.00  0.00    -0.257 N 
ATOM     23  N26 FRZ d   1       5.509  -6.006  14.966  0.00  0.00    -0.147 NA
ATOM     24  N28 FRZ d   1       1.471  -3.292  15.370  0.00  0.00    -0.154 NA
ATOM     25  H12 FRZ d   1       0.984  -5.329  14.690  0.00  0.00     0.191 HD
BRANCH  20  26
ATOM     26  N30 FRZ d   1       2.901  -1.433  16.117  0.00  0.00    -0.382 N 
ATOM     27  H13 FRZ d   1       2.078  -0.826  16.239  0.00  0.00     0.157 HD
ATOM     28  H14 FRZ d   1       3.840  -1.080  16.350  0.00  0.00     0.157 HD
ENDBRANCH  20  26
ENDBRANCH   9  15
BRANCH   8  29
ATOM     29  C11 FRZ d   1       7.243  -4.158  18.546  0.00  0.00    -0.007 A 
ATOM     30  C12 FRZ d   1       7.809  -3.167  19.458  0.00  0.00    -0.071 A 
ATOM     31  C13 FRZ d   1       7.064  -2.602  20.578  0.00  0.00    -0.082 A 
ATOM     32  H6  FRZ d   1       8.829  -2.837  19.295  0.00  0.00     0.084 H 
ATOM     33  C14 FRZ d   1       5.699  -3.009  20.854  0.00  0.00    -0.083 A 
ATOM     34  H7  FRZ d   1       7.539  -1.865  21.215  0.00  0.00     0.083 H 
ATOM     35  C15 FRZ d   1       5.122  -4.026  19.993  0.00  0.00    -0.082 A 
ATOM     36  H8  FRZ d   1       5.133  -2.572  21.669  0.00  0.00     0.083 H 
ATOM     37  C16 FRZ d   1       5.890  -4.579  18.887  0.00  0.00    -0.071 A 
ATOM     38  H9  FRZ d   1       4.112  -4.376  20.175  0.00  0.00     0.083 H 
ATOM     39  H10 FRZ d   1       5.428  -5.350  18.281  0.00  0.00     0.084 H 
ENDBRANCH   8  29
TORSDOF 3
