REMARK  5 active torsions:
REMARK  status: ('A' for Active; 'I' for Inactive)
REMARK    1  A    between atoms: C5_8  and  C11_16 
REMARK    2  A    between atoms: N6_9  and  C12_17 
REMARK    3  A    between atoms: C12_17  and  C13_18 
REMARK    4  A    between atoms: C14_19  and  C15_20 
REMARK    5  A    between atoms: C14_19  and  C16_21 
ROOT
ATOM      1  N1  TB9 d   1     141.567 -25.832  71.018  0.00  0.00    -0.334 N 
ATOM      2  C1A TB9 d   1     142.176 -26.178  72.229  0.00  0.00     0.063 A 
ATOM      3  C2  TB9 d   1     142.371 -24.823  70.368  0.00  0.00     0.159 A 
ATOM      4  S2  TB9 d   1     141.988 -24.110  68.793  0.00  0.00    -0.013 SA
ATOM      5  N3  TB9 d   1     143.529 -24.547  71.242  0.00  0.00    -0.322 N 
ATOM      6  C3A TB9 d   1     143.328 -25.415  72.350  0.00  0.00     0.071 A 
ATOM      7  C4  TB9 d   1     144.687 -23.773  70.823  0.00  0.00     0.029 C 
ATOM      8  C5  TB9 d   1     145.323 -22.819  71.842  0.00  0.00     0.117 C 
ATOM      9  N6  TB9 d   1     145.646 -23.279  73.210  0.00  0.00    -0.059 N 
ATOM     10  C7  TB9 d   1     145.588 -24.707  73.500  0.00  0.00     0.110 C 
ATOM     11  C7A TB9 d   1     144.239 -25.443  73.460  0.00  0.00    -0.002 A 
ATOM     12  C8  TB9 d   1     143.893 -26.364  74.528  0.00  0.00    -0.052 A 
ATOM     13 CL9  TB9 d   1     142.252 -28.401  75.586  0.00  0.00    -0.084 Cl
ATOM     14  C9  TB9 d   1     142.663 -27.174  74.396  0.00  0.00     0.036 A 
ATOM     15  C10 TB9 d   1     141.830 -27.056  73.235  0.00  0.00    -0.034 A 
ATOM     16  H1  TB9 d   1     140.716 -26.219  70.662  0.00  0.00     0.168 HD
ATOM     17  H2  TB9 d   1     144.380 -23.169  69.957  0.00  0.00     0.068 H 
ATOM     18  H3  TB9 d   1     145.464 -24.488  70.515  0.00  0.00     0.068 H 
ATOM     19  H4  TB9 d   1     144.700 -21.916  71.922  0.00  0.00     0.086 H 
ATOM     20  H5  TB9 d   1     146.638 -23.302  73.031  0.00  0.00     0.281 HD
ATOM     21  H6  TB9 d   1     145.994 -24.843  74.513  0.00  0.00     0.083 H 
ATOM     22  H7  TB9 d   1     146.244 -25.206  72.772  0.00  0.00     0.083 H 
ATOM     23  H8  TB9 d   1     144.524 -26.456  75.405  0.00  0.00     0.087 H 
ATOM     24  H9  TB9 d   1     140.931 -27.655  73.148  0.00  0.00     0.089 H 
ENDROOT
BRANCH   9  25
ATOM     25  C12 TB9 d   1     145.791 -22.290  74.291  0.00  0.00     0.100 C 
ATOM     26  H13 TB9 d   1     146.048 -21.305  73.875  0.00  0.00     0.082 H 
ATOM     27  H14 TB9 d   1     146.574 -22.606  74.996  0.00  0.00     0.082 H 
BRANCH  25  28
ATOM     28  C13 TB9 d   1     144.500 -22.235  74.961  0.00  0.00    -0.077 C 
ATOM     29  C14 TB9 d   1     144.188 -21.788  76.185  0.00  0.00    -0.090 C 
ATOM     30  H15 TB9 d   1     143.661 -22.614  74.380  0.00  0.00     0.079 H 
BRANCH  29  31
ATOM     31  C15 TB9 d   1     142.644 -21.899  76.348  0.00  0.00    -0.055 C 
ATOM     32  H16 TB9 d   1     142.354 -21.539  77.346  0.00  0.00     0.033 H 
ATOM     33  H17 TB9 d   1     142.338 -22.949  76.234  0.00  0.00     0.033 H 
ATOM     34  H18 TB9 d   1     142.149 -21.287  75.579  0.00  0.00     0.033 H 
ENDBRANCH  29  31
BRANCH  29  35
ATOM     35  C16 TB9 d   1     145.354 -21.258  77.059  0.00  0.00    -0.055 C 
ATOM     36  H19 TB9 d   1     146.304 -21.386  76.520  0.00  0.00     0.033 H 
ATOM     37  H20 TB9 d   1     145.390 -21.821  78.003  0.00  0.00     0.033 H 
ATOM     38  H21 TB9 d   1     145.196 -20.191  77.274  0.00  0.00     0.033 H 
ENDBRANCH  29  35
ENDBRANCH  25  28
ENDBRANCH   9  25
BRANCH   8  39
ATOM     39  C11 TB9 d   1     146.652 -22.536  71.197  0.00  0.00    -0.048 C 
ATOM     40  H10 TB9 d   1     146.492 -22.186  70.166  0.00  0.00     0.030 H 
ATOM     41  H11 TB9 d   1     147.256 -23.455  71.182  0.00  0.00     0.030 H 
ATOM     42  H12 TB9 d   1     147.180 -21.760  71.770  0.00  0.00     0.030 H 
ENDBRANCH   8  39
TORSDOF 5
