REMARK  11 active torsions:
REMARK  status: ('A' for Active; 'I' for Inactive)
REMARK    1  A    between atoms: C4_4  and  C24_24 
REMARK    2  A    between atoms: C7_7  and  C33_33 
REMARK    3  A    between atoms: C10_10  and  O41_41 
REMARK    4  A    between atoms: C11_11  and  C42_42 
REMARK    5  A    between atoms: C20_20  and  N51_51 
REMARK    6  A    between atoms: C24_24  and  C25_25 
REMARK    7  A    between atoms: C28_28  and  O31_31 
REMARK    8  A    between atoms: C33_33  and  C34_34 
REMARK    9  A    between atoms: C42_42  and  C43_43 
REMARK   10  A    between atoms: C43_43  and  C44_44 
REMARK   11  A    between atoms: C44_44  and  N45_45 
REMARK       I    between atoms: N45_45  and  C46_46 
REMARK       I    between atoms: C46_46  and  N47_47 
REMARK       I    between atoms: N51_51  and  C52_52 
ROOT
ATOM      1  C1  CTA d   1      93.175 -10.451  59.003  0.00  0.00     0.240 C 
ATOM      2  C2  CTA d   1      91.984 -11.302  58.938  0.00  0.00    -0.019 C 
ATOM      3  C3  CTA d   1      91.730 -12.137  59.949  0.00  0.00    -0.076 C 
ATOM      4  C4  CTA d   1      90.458 -12.923  60.065  0.00  0.00     0.033 C 
ATOM      5  N5  CTA d   1      90.039 -13.362  58.739  0.00  0.00    -0.351 N 
ATOM      6  C6  CTA d   1      88.880 -12.978  58.224  0.00  0.00     0.241 C 
ATOM      7  C7  CTA d   1      88.613 -13.361  56.771  0.00  0.00     0.093 C 
ATOM      8  N8  CTA d   1      88.371 -12.130  56.028  0.00  0.00    -0.345 N 
ATOM      9  C9  CTA d   1      88.888 -11.911  54.827  0.00  0.00     0.249 C 
ATOM     10  C10 CTA d   1      88.343 -10.610  54.194  0.00  0.00     0.131 C 
ATOM     11  C11 CTA d   1      89.330  -9.449  54.420  0.00  0.00     0.045 C 
ATOM     12  N12 CTA d   1      90.651  -9.772  53.905  0.00  0.00    -0.352 N 
ATOM     13  C13 CTA d   1      91.658 -10.095  54.708  0.00  0.00     0.241 C 
ATOM     14  C14 CTA d   1      93.000 -10.332  54.028  0.00  0.00     0.091 C 
ATOM     15  C15 CTA d   1      93.237 -11.809  53.778  0.00  0.00    -0.036 C 
ATOM     16  C16 CTA d   1      94.231 -12.297  54.782  0.00  0.00    -0.048 C 
ATOM     17  C17 CTA d   1      95.089 -11.101  55.133  0.00  0.00    -0.001 C 
ATOM     18  N18 CTA d   1      94.121  -9.970  54.906  0.00  0.00    -0.337 N 
ATOM     19  C19 CTA d   1      94.229  -8.745  55.441  0.00  0.00     0.245 C 
ATOM     20  C20 CTA d   1      95.184  -8.584  56.617  0.00  0.00     0.104 C 
ATOM     21  C21 CTA d   1      94.392  -8.597  57.929  0.00  0.00     0.022 C 
ATOM     22  N22 CTA d   1      93.433  -9.697  57.945  0.00  0.00    -0.355 N 
ATOM     23  O23 CTA d   1      93.885 -10.457  60.004  0.00  0.00    -0.269 OA
ATOM     24  O32 CTA d   1      88.064 -12.303  58.851  0.00  0.00    -0.271 OA
ATOM     25  O40 CTA d   1      89.714 -12.652  54.299  0.00  0.00    -0.271 OA
ATOM     26  O49 CTA d   1      91.541 -10.206  55.936  0.00  0.00    -0.271 OA
ATOM     27  O50 CTA d   1      93.566  -7.783  55.024  0.00  0.00    -0.271 OA
ATOM     28  H1  CTA d   1      91.316 -11.254  58.079  0.00  0.00     0.091 H 
ATOM     29  H2  CTA d   1      92.483 -12.253  60.727  0.00  0.00     0.080 H 
ATOM     30  H3  CTA d   1      89.677 -12.273  60.487  0.00  0.00     0.079 H 
ATOM     31  H4  CTA d   1      90.637 -13.963  58.209  0.00  0.00     0.163 HD
ATOM     32  H5  CTA d   1      89.484 -13.889  56.355  0.00  0.00     0.088 H 
ATOM     33  H6  CTA d   1      87.794 -11.425  56.440  0.00  0.00     0.163 HD
ATOM     34  H7  CTA d   1      88.337 -10.786  53.108  0.00  0.00     0.101 H 
ATOM     35  H8  CTA d   1      89.417  -9.316  55.508  0.00  0.00     0.077 H 
ATOM     36  H9  CTA d   1      90.806  -9.750  52.917  0.00  0.00     0.163 HD
ATOM     37  H10 CTA d   1      93.036  -9.762  53.088  0.00  0.00     0.087 H 
ATOM     38  H11 CTA d   1      93.631 -11.957  52.762  0.00  0.00     0.036 H 
ATOM     39  H12 CTA d   1      92.293 -12.362  53.889  0.00  0.00     0.036 H 
ATOM     40  H13 CTA d   1      94.849 -13.098  54.350  0.00  0.00     0.035 H 
ATOM     41  H14 CTA d   1      93.716 -12.674  55.678  0.00  0.00     0.035 H 
ATOM     42  H15 CTA d   1      95.963 -11.023  54.469  0.00  0.00     0.064 H 
ATOM     43  H16 CTA d   1      95.426 -11.139  56.179  0.00  0.00     0.064 H 
ATOM     44  H17 CTA d   1      95.900  -9.419  56.622  0.00  0.00     0.090 H 
ATOM     45  H18 CTA d   1      93.851  -7.645  58.033  0.00  0.00     0.068 H 
ATOM     46  H19 CTA d   1      95.090  -8.715  58.771  0.00  0.00     0.068 H 
ATOM     47  H20 CTA d   1      92.937  -9.895  57.100  0.00  0.00     0.162 HD
ENDROOT
BRANCH  11  48
ATOM     48  C42 CTA d   1      88.883  -8.105  53.836  0.00  0.00    -0.042 C 
ATOM     49  H36 CTA d   1      87.810  -7.971  54.035  0.00  0.00     0.036 H 
ATOM     50  H37 CTA d   1      89.056  -8.115  52.750  0.00  0.00     0.036 H 
BRANCH  48  51
ATOM     51  C43 CTA d   1      89.642  -6.941  54.441  0.00  0.00    -0.048 C 
ATOM     52  H38 CTA d   1      90.719  -7.148  54.361  0.00  0.00     0.035 H 
ATOM     53  H39 CTA d   1      89.362  -6.856  55.502  0.00  0.00     0.035 H 
BRANCH  51  54
ATOM     54  C44 CTA d   1      89.355  -5.620  53.761  0.00  0.00     0.009 C 
ATOM     55  H40 CTA d   1      88.270  -5.440  53.761  0.00  0.00     0.064 H 
ATOM     56  H41 CTA d   1      89.721  -5.658  52.724  0.00  0.00     0.064 H 
BRANCH  54  57
ATOM     57  N45 CTA d   1      90.025  -4.532  54.470  0.00  0.00    -0.227 N 
ATOM     58  C46 CTA d   1      90.050  -3.270  54.066  0.00  0.00     0.665 C 
ATOM     59  N47 CTA d   1      89.422  -2.919  52.949  0.00  0.00    -0.235 N 
ATOM     60  N48 CTA d   1      90.692  -2.358  54.789  0.00  0.00    -0.235 N 
ATOM     61  H43 CTA d   1      89.441  -1.938  52.634  0.00  0.00     0.174 HD
ATOM     62  H44 CTA d   1      88.916  -3.627  52.398  0.00  0.00     0.174 HD
ATOM     63  H45 CTA d   1      91.177  -2.635  55.654  0.00  0.00     0.174 HD
ATOM     64  H46 CTA d   1      90.704  -1.374  54.484  0.00  0.00     0.174 HD
ATOM     65  H42 CTA d   1      90.513  -4.763  55.347  0.00  0.00     0.177 HD
ENDBRANCH  54  57
ENDBRANCH  51  54
ENDBRANCH  48  51
ENDBRANCH  11  48
BRANCH  10  66
ATOM     66  O41 CTA d   1      87.017 -10.330  54.518  0.00  0.00    -0.384 OA
ATOM     67  H35 CTA d   1      86.709  -9.604  53.988  0.00  0.00     0.210 HD
ENDBRANCH  10  66
BRANCH   7  68
ATOM     68  C33 CTA d   1      87.378 -14.259  56.685  0.00  0.00    -0.014 C 
ATOM     69  H28 CTA d   1      87.089 -14.358  55.628  0.00  0.00     0.043 H 
ATOM     70  H29 CTA d   1      86.559 -13.785  57.247  0.00  0.00     0.043 H 
BRANCH  68  71
ATOM     71  C34 CTA d   1      87.616 -15.644  57.253  0.00  0.00    -0.056 A 
ATOM     72  C35 CTA d   1      88.452 -16.530  56.590  0.00  0.00    -0.077 A 
ATOM     73  C36 CTA d   1      88.649 -17.805  57.101  0.00  0.00    -0.082 A 
ATOM     74  H30 CTA d   1      88.950 -16.227  55.676  0.00  0.00     0.084 H 
ATOM     75  C37 CTA d   1      88.009 -18.191  58.268  0.00  0.00    -0.083 A 
ATOM     76  H31 CTA d   1      89.304 -18.499  56.587  0.00  0.00     0.083 H 
ATOM     77  C38 CTA d   1      87.175 -17.302  58.927  0.00  0.00    -0.082 A 
ATOM     78  H32 CTA d   1      88.161 -19.188  58.665  0.00  0.00     0.083 H 
ATOM     79  C39 CTA d   1      86.976 -16.028  58.422  0.00  0.00    -0.077 A 
ATOM     80  H33 CTA d   1      86.677 -17.605  59.841  0.00  0.00     0.083 H 
ATOM     81  H34 CTA d   1      86.323 -15.334  58.938  0.00  0.00     0.084 H 
ENDBRANCH  68  71
ENDBRANCH   7  68
BRANCH  20  82
ATOM     82  N51 CTA d   1      95.912  -7.331  56.467  0.00  0.00    -0.353 N 
ATOM     83  C52 CTA d   1      96.957  -7.018  57.229  0.00  0.00     0.169 C 
ATOM     84  O53 CTA d   1      97.375  -7.731  58.150  0.00  0.00    -0.284 OA
ATOM     85  H48 CTA d   1      97.474  -6.080  57.031  0.00  0.00     0.180 H 
ATOM     86  H47 CTA d   1      95.616  -6.683  55.766  0.00  0.00     0.162 HD
ENDBRANCH  20  82
BRANCH   4  87
ATOM     87  C24 CTA d   1      90.648 -14.127  60.998  0.00  0.00    -0.019 C 
ATOM     88  H21 CTA d   1      89.679 -14.633  61.123  0.00  0.00     0.043 H 
ATOM     89  H22 CTA d   1      91.001 -13.764  61.975  0.00  0.00     0.043 H 
BRANCH  87  90
ATOM     90  C25 CTA d   1      91.649 -15.124  60.461  0.00  0.00    -0.056 A 
ATOM     91  C26 CTA d   1      91.211 -16.137  59.630  0.00  0.00    -0.074 A 
ATOM     92  C27 CTA d   1      92.109 -17.040  59.099  0.00  0.00    -0.051 A 
ATOM     93  H23 CTA d   1      90.156 -16.223  59.394  0.00  0.00     0.084 H 
ATOM     94  C28 CTA d   1      93.446 -16.913  59.413  0.00  0.00     0.065 A 
ATOM     95  H24 CTA d   1      91.769 -17.836  58.446  0.00  0.00     0.087 H 
ATOM     96  C29 CTA d   1      93.896 -15.905  60.247  0.00  0.00    -0.051 A 
ATOM     97  C30 CTA d   1      92.989 -15.005  60.775  0.00  0.00    -0.074 A 
ATOM     98  H25 CTA d   1      94.950 -15.822  60.484  0.00  0.00     0.087 H 
ATOM     99  H26 CTA d   1      93.327 -14.211  61.431  0.00  0.00     0.084 H 
BRANCH  94 100
ATOM    100  O31 CTA d   1      94.298 -17.762  58.910  0.00  0.00    -0.361 OA
ATOM    101  H27 CTA d   1      93.836 -18.387  58.364  0.00  0.00     0.217 HD
ENDBRANCH  94 100
ENDBRANCH  87  90
ENDBRANCH   4  87
TORSDOF 11
