REMARK  11 active torsions:
REMARK  status: ('A' for Active; 'I' for Inactive)
REMARK    1  A    between atoms: C1_1  and  C16_16 
REMARK    2  A    between atoms: C1_1  and  C17_17 
REMARK    3  A    between atoms: C5_5  and  C18_18 
REMARK    4  A    between atoms: C6_6  and  C7_7 
REMARK    5  A    between atoms: C7_7  and  C8_8 
REMARK    6  A    between atoms: C8_8  and  C9_9 
REMARK    7  A    between atoms: C9_9  and  C19_19 
REMARK    8  A    between atoms: C10_10  and  C11_11 
REMARK    9  A    between atoms: C12_12  and  C13_13 
REMARK   10  A    between atoms: C13_13  and  C20_20 
REMARK   11  A    between atoms: C14_14  and  C15_15 
ROOT
ATOM      1  C7  REA d   1      20.883  43.237  58.319  0.00  0.00    -0.075 C 
ATOM      2  H7  REA d   1      19.856  43.431  58.624  0.00  0.00     0.084 H 
ENDROOT
BRANCH   1   3
ATOM      3  C6  REA d   1      21.148  43.355  56.852  0.00  0.00    -0.048 C 
ATOM      4  C1  REA d   1      21.125  44.867  56.300  0.00  0.00    -0.020 C 
ATOM      5  C2  REA d   1      21.064  44.852  54.765  0.00  0.00    -0.054 C 
ATOM      6  C3  REA d   1      21.829  43.820  54.125  0.00  0.00    -0.061 C 
ATOM      7  H1  REA d   1      21.434  45.822  54.402  0.00  0.00     0.034 H 
ATOM      8  H2  REA d   1      20.012  44.727  54.469  0.00  0.00     0.034 H 
ATOM      9  C4  REA d   1      21.365  42.423  54.498  0.00  0.00    -0.044 C 
ATOM     10  H3  REA d   1      22.883  43.930  54.420  0.00  0.00     0.033 H 
ATOM     11  H4  REA d   1      21.739  43.941  53.035  0.00  0.00     0.033 H 
ATOM     12  C5  REA d   1      21.265  42.262  55.999  0.00  0.00    -0.077 C 
ATOM     13  H5  REA d   1      22.084  41.689  54.106  0.00  0.00     0.039 H 
ATOM     14  H6  REA d   1      20.376  42.242  54.051  0.00  0.00     0.039 H 
BRANCH   4  15
ATOM     15  C16 REA d   1      19.890  45.648  56.812  0.00  0.00    -0.065 C 
ATOM     16  H13 REA d   1      19.904  45.677  57.911  0.00  0.00     0.028 H 
ATOM     17  H14 REA d   1      18.972  45.147  56.470  0.00  0.00     0.028 H 
ATOM     18  H15 REA d   1      19.916  46.675  56.418  0.00  0.00     0.028 H 
ENDBRANCH   4  15
BRANCH   4  19
ATOM     19  C17 REA d   1      22.392  45.607  56.744  0.00  0.00    -0.065 C 
ATOM     20  H16 REA d   1      23.279  45.063  56.387  0.00  0.00     0.028 H 
ATOM     21  H17 REA d   1      22.416  45.666  57.842  0.00  0.00     0.028 H 
ATOM     22  H18 REA d   1      22.390  46.623  56.322  0.00  0.00     0.028 H 
ENDBRANCH   4  19
BRANCH  12  23
ATOM     23  C18 REA d   1      21.433  40.795  56.403  0.00  0.00    -0.054 C 
ATOM     24  H19 REA d   1      21.356  40.705  57.497  0.00  0.00     0.033 H 
ATOM     25  H20 REA d   1      22.419  40.434  56.074  0.00  0.00     0.033 H 
ATOM     26  H21 REA d   1      20.645  40.192  55.929  0.00  0.00     0.033 H 
ENDBRANCH  12  23
ENDBRANCH   1   3
BRANCH   1  27
ATOM     27  C8  REA d   1      21.819  42.893  59.422  0.00  0.00    -0.077 C 
ATOM     28  H8  REA d   1      22.850  42.748  59.102  0.00  0.00     0.084 H 
BRANCH  27  29
ATOM     29  C9  REA d   1      21.613  42.717  60.832  0.00  0.00    -0.062 C 
ATOM     30  C10 REA d   1      22.711  42.364  61.556  0.00  0.00    -0.077 C 
ATOM     31  H9  REA d   1      23.646  42.279  61.004  0.00  0.00     0.084 H 
BRANCH  30  32
ATOM     32  C11 REA d   1      22.778  42.089  62.977  0.00  0.00    -0.082 C 
ATOM     33  C12 REA d   1      23.903  41.613  63.576  0.00  0.00    -0.077 C 
ATOM     34  H11 REA d   1      23.888  41.488  64.658  0.00  0.00     0.084 H 
ATOM     35  H10 REA d   1      21.895  42.270  63.588  0.00  0.00     0.083 H 
BRANCH  33  36
ATOM     36  C13 REA d   1      25.126  41.259  62.869  0.00  0.00    -0.056 C 
ATOM     37  C14 REA d   1      26.186  40.793  63.578  0.00  0.00    -0.004 C 
ATOM     38  H12 REA d   1      26.478  39.749  63.472  0.00  0.00     0.094 H 
BRANCH  37  39
ATOM     39  C15 REA d   1      26.942  41.653  64.476  0.00  0.00     0.199 C 
ATOM     40  O1  REA d   1      26.616  41.832  65.848  0.00  0.00    -0.644 OA
ATOM     41  O2  REA d   1      28.026  42.520  64.528  0.00  0.00    -0.644 OA
ENDBRANCH  37  39
BRANCH  36  42
ATOM     42  C20 REA d   1      25.083  41.216  61.295  0.00  0.00    -0.051 C 
ATOM     43  H25 REA d   1      24.133  41.645  60.942  0.00  0.00     0.033 H 
ATOM     44  H26 REA d   1      25.163  40.173  60.954  0.00  0.00     0.033 H 
ATOM     45  H27 REA d   1      25.922  41.800  60.889  0.00  0.00     0.033 H 
ENDBRANCH  36  42
ENDBRANCH  33  36
ENDBRANCH  30  32
BRANCH  29  46
ATOM     46  C19 REA d   1      20.177  42.865  61.376  0.00  0.00    -0.051 C 
ATOM     47  H22 REA d   1      19.504  43.160  60.558  0.00  0.00     0.033 H 
ATOM     48  H23 REA d   1      20.160  43.635  62.161  0.00  0.00     0.033 H 
ATOM     49  H24 REA d   1      19.844  41.905  61.797  0.00  0.00     0.033 H 
ENDBRANCH  29  46
ENDBRANCH  27  29
ENDBRANCH   1  27
TORSDOF 11
