REMARK  6 active torsions:
REMARK  status: ('A' for Active; 'I' for Inactive)
REMARK    1  A    between atoms: P_1  and  O5_5 
REMARK    2  A    between atoms: O5_5  and  C5_6 
REMARK    3  A    between atoms: C5_6  and  C4_7 
REMARK    4  A    between atoms: C3_9  and  O3_10 
REMARK    5  A    between atoms: C1_12  and  N1_13 
REMARK    6  A    between atoms: C5_19  and  C5M_20 
ROOT
ATOM      1  C4  TMP d   1      29.317 -16.172  33.441  0.00  0.00     0.087 C 
ATOM      2  O4  TMP d   1      29.202 -16.602  34.825  0.00  0.00    -0.356 OA
ATOM      3  C3  TMP d   1      28.049 -15.347  33.171  0.00  0.00     0.066 C 
ATOM      4  C2  TMP d   1      27.797 -14.649  34.510  0.00  0.00     0.002 C 
ATOM      5  C1  TMP d   1      28.444 -15.599  35.521  0.00  0.00     0.116 C 
ATOM      6  H3  TMP d   1      29.341 -17.037  32.761  0.00  0.00     0.090 H 
ATOM      7  H4  TMP d   1      28.164 -14.637  32.339  0.00  0.00     0.087 H 
ATOM      8  H6  TMP d   1      26.720 -14.541  34.703  0.00  0.00     0.043 H 
ATOM      9  H7  TMP d   1      28.275 -13.659  34.536  0.00  0.00     0.043 H 
ATOM     10  H8  TMP d   1      27.539 -16.202  35.685  0.00  0.00     0.118 H 
ENDROOT
BRANCH   5  11
ATOM     11  N1  TMP d   1      28.670 -15.391  36.947  0.00  0.00    -0.282 N 
ATOM     12  C2  TMP d   1      27.642 -15.062  37.816  0.00  0.00     0.331 A 
ATOM     13  O2  TMP d   1      26.470 -14.902  37.460  0.00  0.00    -0.246 OA
ATOM     14  N3  TMP d   1      28.051 -14.893  39.130  0.00  0.00    -0.275 N 
ATOM     15  C4  TMP d   1      29.357 -15.012  39.600  0.00  0.00     0.256 A 
ATOM     16  H9  TMP d   1      27.345 -14.665  39.801  0.00  0.00     0.173 HD
ATOM     17  O4  TMP d   1      29.630 -14.794  40.777  0.00  0.00    -0.267 OA
ATOM     18  C5  TMP d   1      30.358 -15.355  38.621  0.00  0.00     0.022 A 
ATOM     19  C6  TMP d   1      29.950 -15.531  37.306  0.00  0.00    -0.002 A 
ATOM     20  H13 TMP d   1      30.690 -15.789  36.550  0.00  0.00     0.113 H 
BRANCH  18  21
ATOM     21  C5M TMP d   1      31.771 -15.470  39.008  0.00  0.00    -0.045 C 
ATOM     22  H10 TMP d   1      32.372 -15.737  38.126  0.00  0.00     0.033 H 
ATOM     23  H11 TMP d   1      31.879 -16.251  39.775  0.00  0.00     0.033 H 
ATOM     24  H12 TMP d   1      32.120 -14.508  39.412  0.00  0.00     0.033 H 
ENDBRANCH  18  21
ENDBRANCH   5  11
BRANCH   1  25
ATOM     25  C5  TMP d   1      30.632 -15.400  33.310  0.00  0.00     0.059 C 
ATOM     26  H1  TMP d   1      30.553 -14.421  33.804  0.00  0.00     0.079 H 
ATOM     27  H2  TMP d   1      31.459 -15.971  33.758  0.00  0.00     0.079 H 
BRANCH  25  28
ATOM     28  O5  TMP d   1      30.850 -15.229  31.856  0.00  0.00    -0.280 OA
BRANCH  28  29
ATOM     29  P   TMP d   1      31.233 -13.903  31.151  0.00  0.00     0.422 P 
ATOM     30  O1P TMP d   1      32.530 -13.454  31.676  0.00  0.00    -0.617 OA
ATOM     31  O2P TMP d   1      31.295 -14.276  29.683  0.00  0.00    -0.617 OA
ATOM     32  O3P TMP d   1      30.155 -12.935  31.387  0.00  0.00    -0.617 OA
ENDBRANCH  28  29
ENDBRANCH  25  28
ENDBRANCH   1  25
BRANCH   3  33
ATOM     33  O3  TMP d   1      27.006 -16.280  32.933  0.00  0.00    -0.393 OA
ATOM     34  H5  TMP d   1      27.229 -16.818  32.182  0.00  0.00     0.210 HD
ENDBRANCH   3  33
TORSDOF 6
