REMARK  32 active torsions:
REMARK  status: ('A' for Active; 'I' for Inactive)
REMARK    1  A    between atoms: CA_2  and  N_1 
REMARK    2  A    between atoms: C_3  and  CA_2 
REMARK    3  A    between atoms: CA_2  and  CB_5 
REMARK       I    between atoms: N_10  and  C_3 
REMARK    4  A    between atoms: CB_5  and  CG_6 
REMARK    5  A    between atoms: CG_6  and  CD_7 
REMARK    6  A    between atoms: CD_7  and  CE_8 
REMARK    7  A    between atoms: CE_8  and  NZ_9 
REMARK    8  A    between atoms: C_12  and  CA_11 
REMARK       I    between atoms: N_17  and  C_12 
REMARK    9  A    between atoms: CA_18  and  N_17 
REMARK   10  A    between atoms: C_19  and  CA_18 
REMARK   11  A    between atoms: CA_18  and  CB_21 
REMARK       I    between atoms: N_28  and  C_19 
REMARK   12  A    between atoms: CB_21  and  CG_22 
REMARK   13  A    between atoms: CA_29  and  N_28 
REMARK   14  A    between atoms: CA_29  and  CB_32 
REMARK   15  A    between atoms: C_30  and  CA_29 
REMARK       I    between atoms: C_30  and  N_44 
REMARK   16  A    between atoms: CB_32  and  CG_33 
REMARK   17  A    between atoms: CZ_38  and  OH_39 
REMARK   18  A    between atoms: OH_39  and  P_40 
REMARK   19  A    between atoms: N_44  and  CA_45 
REMARK   20  A    between atoms: CA_45  and  C_46 
REMARK   21  A    between atoms: CA_45  and  CB_48 
REMARK       I    between atoms: C_46  and  N_51 
REMARK   22  A    between atoms: CB_48  and  CG1_49 
REMARK   23  A    between atoms: CB_48  and  CG2_50 
REMARK   24  A    between atoms: N_51  and  CA_52 
REMARK   25  A    between atoms: CA_52  and  C_53 
REMARK   26  A    between atoms: CA_52  and  CB_55 
REMARK       I    between atoms: C_53  and  N_59 
REMARK   27  A    between atoms: CB_55  and  CG_56 
REMARK       I    between atoms: CG_56  and  ND2_58 
REMARK   28  A    between atoms: N_59  and  CA_60 
REMARK   29  A    between atoms: CA_60  and  C_61 
REMARK   30  A    between atoms: CA_60  and  CB_63 
REMARK       I    between atoms: C_61  and  N_66 
REMARK   31  A    between atoms: CB_63  and  CG1_64 
REMARK   32  A    between atoms: CB_63  and  CG2_65 
ROOT
ATOM      1  CA  PTR d   1      41.370  51.253  50.537  0.00  0.00     0.093 C 
ATOM      2  H33 PTR d   1      42.270  50.623  50.479  0.00  0.00     0.088 H 
ENDROOT
BRANCH   1   3
ATOM      3  N   PTR d   1      41.512  52.356  49.594  0.00  0.00    -0.346 N 
ATOM      4  C   PHE d   1      42.682  52.664  49.038  0.00  0.00     0.241 C 
ATOM      5  O   PHE d   1      43.709  52.012  49.224  0.00  0.00    -0.271 OA
ATOM      6  H32 PTR d   1      40.706  52.898  49.358  0.00  0.00     0.163 HD
BRANCH   4   7
ATOM      7  CA  PHE d   1      42.688  53.848  48.069  0.00  0.00     0.093 C 
ATOM      8  H24 PHE d   1      41.962  54.599  48.413  0.00  0.00     0.088 H 
BRANCH   7   9
ATOM      9  CB  PHE d   1      42.293  53.375  46.663  0.00  0.00    -0.014 C 
ATOM     10  H25 PHE d   1      42.232  54.254  46.005  0.00  0.00     0.043 H 
ATOM     11  H26 PHE d   1      41.306  52.893  46.723  0.00  0.00     0.043 H 
BRANCH   9  12
ATOM     12  CG  PHE d   1      43.264  52.397  46.061  0.00  0.00    -0.056 A 
ATOM     13  CD2 PHE d   1      43.063  51.026  46.195  0.00  0.00    -0.077 A 
ATOM     14  CE2 PHE d   1      44.011  50.106  45.707  0.00  0.00    -0.082 A 
ATOM     15  H28 PHE d   1      42.165  50.662  46.681  0.00  0.00     0.084 H 
ATOM     16  CZ  PHE d   1      45.159  50.565  45.081  0.00  0.00    -0.083 A 
ATOM     17  H30 PHE d   1      43.843  49.041  45.821  0.00  0.00     0.083 H 
ATOM     18  CE1 PHE d   1      45.369  51.944  44.931  0.00  0.00    -0.082 A 
ATOM     19  H31 PHE d   1      45.893  49.860  44.708  0.00  0.00     0.083 H 
ATOM     20  CD1 PHE d   1      44.422  52.848  45.419  0.00  0.00    -0.077 A 
ATOM     21  H29 PHE d   1      46.264  52.307  44.438  0.00  0.00     0.083 H 
ATOM     22  H27 PHE d   1      44.587  53.913  45.298  0.00  0.00     0.084 H 
ENDBRANCH   9  12
ENDBRANCH   7   9
BRANCH   7  23
ATOM     23  N   PHE d   1      44.016  54.448  48.035  0.00  0.00    -0.346 N 
ATOM     24  C   PRO d   1      44.218  55.709  48.375  0.00  0.00     0.241 C 
ATOM     25  O   PRO d   1      43.301  56.446  48.733  0.00  0.00    -0.271 OA
ATOM     26  H23 PHE d   1      44.795  53.891  47.747  0.00  0.00     0.163 HD
BRANCH  24  27
ATOM     27  CA  PRO d   1      45.660  56.237  48.267  0.00  0.00     0.091 C 
ATOM     28  N   PRO d   1      45.591  57.666  47.934  0.00  0.00    -0.337 N 
ATOM     29  CD  PRO d   1      46.085  58.487  49.062  0.00  0.00    -0.001 C 
ATOM     30  C   LYS d   1      45.045  58.049  46.752  0.00  0.00     0.251 C 
ATOM     31  CG  PRO d   1      45.904  57.557  50.233  0.00  0.00    -0.048 C 
ATOM     32  H21 PRO d   1      47.143  58.757  48.926  0.00  0.00     0.064 H 
ATOM     33  H22 PRO d   1      45.486  59.402  49.182  0.00  0.00     0.064 H 
ATOM     34  CB  PRO d   1      46.380  56.245  49.613  0.00  0.00    -0.036 C 
ATOM     35  H19 PRO d   1      46.528  57.853  51.089  0.00  0.00     0.035 H 
ATOM     36  H20 PRO d   1      44.852  57.500  50.549  0.00  0.00     0.035 H 
ATOM     37  H17 PRO d   1      47.472  56.241  49.480  0.00  0.00     0.036 H 
ATOM     38  H18 PRO d   1      46.082  55.383  50.228  0.00  0.00     0.036 H 
ATOM     39  O   LYS d   1      44.676  57.230  45.896  0.00  0.00    -0.271 OA
ATOM     40  H16 PRO d   1      46.222  55.661  47.517  0.00  0.00     0.087 H 
BRANCH  30  41
ATOM     41  CA  LYS d   1      44.976  59.552  46.439  0.00  0.00     0.176 C 
ATOM     42  H4  LYS d   1      45.946  60.010  46.684  0.00  0.00     0.099 H 
BRANCH  41  43
ATOM     43  CB  LYS d   1      43.879  60.233  47.290  0.00  0.00    -0.030 C 
ATOM     44  H5  LYS d   1      43.946  61.318  47.123  0.00  0.00     0.036 H 
ATOM     45  H6  LYS d   1      44.084  60.011  48.348  0.00  0.00     0.036 H 
BRANCH  43  46
ATOM     46  CG  LYS d   1      42.448  59.800  46.989  0.00  0.00    -0.061 C 
ATOM     47  H7  LYS d   1      42.391  58.703  47.036  0.00  0.00     0.033 H 
ATOM     48  H8  LYS d   1      42.179  60.138  45.977  0.00  0.00     0.033 H 
BRANCH  46  49
ATOM     49  CD  LYS d   1      41.456  60.389  47.985  0.00  0.00    -0.043 C 
ATOM     50  H9  LYS d   1      41.672  61.460  48.116  0.00  0.00     0.035 H 
ATOM     51  H10 LYS d   1      41.566  59.872  48.950  0.00  0.00     0.035 H 
BRANCH  49  52
ATOM     52  CE  LYS d   1      40.014  60.226  47.491  0.00  0.00     0.080 C 
ATOM     53  H11 LYS d   1      39.792  59.150  47.442  0.00  0.00     0.075 H 
ATOM     54  H12 LYS d   1      39.950  60.660  46.482  0.00  0.00     0.075 H 
BRANCH  52  55
ATOM     55  NZ  LYS d   1      38.959  60.880  48.347  0.00  0.00    -0.079 N 
ATOM     56  H13 LYS d   1      38.050  60.718  47.942  0.00  0.00     0.274 HD
ATOM     57  H14 LYS d   1      39.133  61.872  48.396  0.00  0.00     0.274 HD
ATOM     58  H15 LYS d   1      38.988  60.487  49.275  0.00  0.00     0.274 HD
ENDBRANCH  52  55
ENDBRANCH  49  52
ENDBRANCH  46  49
ENDBRANCH  43  46
ENDBRANCH  41  43
BRANCH  41  59
ATOM     59  N   LYS d   1      44.703  59.747  44.975  0.00  0.00    -0.067 N 
ATOM     60  H1  LYS d   1      44.658  60.733  44.770  0.00  0.00     0.275 HD
ATOM     61  H2  LYS d   1      43.825  59.314  44.736  0.00  0.00     0.275 HD
ATOM     62  H3  LYS d   1      45.443  59.325  44.436  0.00  0.00     0.275 HD
ENDBRANCH  41  59
ENDBRANCH  30  41
ENDBRANCH  24  27
ENDBRANCH   7  23
ENDBRANCH   4   7
ENDBRANCH   1   3
BRANCH   1  63
ATOM     63  CB  PTR d   1      41.266  51.806  51.983  0.00  0.00    -0.014 C 
ATOM     64  H34 PTR d   1      41.229  50.956  52.681  0.00  0.00     0.043 H 
ATOM     65  H35 PTR d   1      40.338  52.391  52.068  0.00  0.00     0.043 H 
BRANCH  63  66
ATOM     66  CG  PTR d   1      42.444  52.703  52.370  0.00  0.00    -0.056 A 
ATOM     67  CD2 PTR d   1      42.434  54.069  52.075  0.00  0.00    -0.074 A 
ATOM     68  CE2 PTR d   1      43.550  54.876  52.323  0.00  0.00    -0.050 A 
ATOM     69  H37 PTR d   1      41.543  54.513  51.645  0.00  0.00     0.084 H 
ATOM     70  CZ  PTR d   1      44.699  54.317  52.875  0.00  0.00     0.082 A 
ATOM     71  H39 PTR d   1      43.520  55.933  52.086  0.00  0.00     0.087 H 
ATOM     72  CE1 PTR d   1      44.722  52.960  53.191  0.00  0.00    -0.050 A 
ATOM     73  CD1 PTR d   1      43.605  52.167  52.942  0.00  0.00    -0.074 A 
ATOM     74  H38 PTR d   1      45.610  52.521  53.631  0.00  0.00     0.087 H 
ATOM     75  H36 PTR d   1      43.634  51.114  53.196  0.00  0.00     0.084 H 
BRANCH  70  76
ATOM     76  OH  PTR d   1      45.867  55.216  53.041  0.00  0.00    -0.240 OA
BRANCH  76  77
ATOM     77  P   PTR d   1      47.336  54.685  53.389  0.00  0.00     0.427 P 
ATOM     78  O3P PTR d   1      48.209  55.760  53.139  0.00  0.00    -0.617 OA
ATOM     79  O2P PTR d   1      47.751  53.563  52.628  0.00  0.00    -0.617 OA
ATOM     80  O1P PTR d   1      47.500  54.410  54.780  0.00  0.00    -0.617 OA
ENDBRANCH  76  77
ENDBRANCH  70  76
ENDBRANCH  63  66
ENDBRANCH   1  63
BRANCH   1  81
ATOM     81  C   PTR d   1      40.160  50.392  50.140  0.00  0.00     0.241 C 
ATOM     82  O   PTR d   1      39.106  50.915  49.784  0.00  0.00    -0.271 OA
ATOM     83  N   VAL d   1      40.320  49.075  50.211  0.00  0.00    -0.346 N 
ATOM     84  H40 VAL d   1      41.194  48.713  50.537  0.00  0.00     0.163 HD
BRANCH  83  85
ATOM     85  CA  VAL d   1      39.276  48.143  49.834  0.00  0.00     0.092 C 
ATOM     86  H41 VAL d   1      39.077  48.285  48.762  0.00  0.00     0.088 H 
BRANCH  85  87
ATOM     87  C   VAL d   1      37.976  48.398  50.576  0.00  0.00     0.241 C 
ATOM     88  O   VAL d   1      36.891  48.146  50.036  0.00  0.00    -0.271 OA
ATOM     89  N   ASN d   1      38.066  48.939  51.794  0.00  0.00    -0.346 N 
ATOM     90  H49 ASN d   1      38.963  49.172  52.170  0.00  0.00     0.163 HD
BRANCH  89  91
ATOM     91  CA  ASN d   1      36.852  49.193  52.583  0.00  0.00     0.097 C 
ATOM     92  H50 ASN d   1      36.050  48.636  52.076  0.00  0.00     0.088 H 
BRANCH  91  93
ATOM     93  C   ASN d   1      36.377  50.635  52.644  0.00  0.00     0.241 C 
ATOM     94  O   ASN d   1      35.486  50.960  53.429  0.00  0.00    -0.271 OA
ATOM     95  N   VAL d   1      36.919  51.494  51.792  0.00  0.00    -0.346 N 
ATOM     96  H55 VAL d   1      37.615  51.180  51.146  0.00  0.00     0.163 HD
BRANCH  95  97
ATOM     97  CA  VAL d   1      36.510  52.888  51.790  0.00  0.00     0.092 C 
ATOM     98  H56 VAL d   1      35.632  52.984  52.446  0.00  0.00     0.088 H 
BRANCH  97  99
ATOM     99  C   VAL d   1      36.109  53.335  50.383  0.00  0.00     0.238 C 
ATOM    100  O   VAL d   1      34.947  53.608  50.120  0.00  0.00    -0.271 OA
ATOM    101  N   NH2 d   1      37.082  53.430  49.487  0.00  0.00    -0.368 N 
ATOM    102  H64 NH2 d   1      36.874  53.718  48.552  0.00  0.00     0.159 HD
ATOM    103  H65 NH2 d   1      38.023  53.214  49.746  0.00  0.00     0.159 HD
ENDBRANCH  97  99
BRANCH  97 104
ATOM    104  CB  VAL d   1      37.620  53.812  52.335  0.00  0.00    -0.033 C 
ATOM    105  H57 VAL d   1      38.504  53.716  51.687  0.00  0.00     0.042 H 
BRANCH 104 106
ATOM    106  CG1 VAL d   1      37.164  55.249  52.323  0.00  0.00    -0.071 C 
ATOM    107  H58 VAL d   1      37.967  55.892  52.714  0.00  0.00     0.028 H 
ATOM    108  H59 VAL d   1      36.269  55.355  52.954  0.00  0.00     0.028 H 
ATOM    109  H60 VAL d   1      36.924  55.549  51.292  0.00  0.00     0.028 H 
ENDBRANCH 104 106
BRANCH 104 110
ATOM    110  CG2 VAL d   1      38.008  53.414  53.752  0.00  0.00    -0.071 C 
ATOM    111  H61 VAL d   1      38.341  52.365  53.760  0.00  0.00     0.028 H 
ATOM    112  H62 VAL d   1      37.139  53.528  54.416  0.00  0.00     0.028 H 
ATOM    113  H63 VAL d   1      38.825  54.061  54.104  0.00  0.00     0.028 H 
ENDBRANCH 104 110
ENDBRANCH  97 104
ENDBRANCH  95  97
ENDBRANCH  91  93
BRANCH  91 114
ATOM    114  CB  ASN d   1      36.966  48.609  54.001  0.00  0.00     0.036 C 
ATOM    115  H51 ASN d   1      37.220  47.542  53.924  0.00  0.00     0.051 H 
ATOM    116  H52 ASN d   1      35.996  48.719  54.508  0.00  0.00     0.051 H 
BRANCH 114 117
ATOM    117  CG  ASN d   1      38.018  49.297  54.820  0.00  0.00     0.217 C 
ATOM    118  OD1 ASN d   1      39.075  49.666  54.305  0.00  0.00    -0.274 OA
ATOM    119  ND2 ASN d   1      37.738  49.495  56.104  0.00  0.00    -0.370 N 
ATOM    120  H53 ASN d   1      38.403  49.949  56.697  0.00  0.00     0.159 HD
ATOM    121  H54 ASN d   1      36.862  49.190  56.477  0.00  0.00     0.159 HD
ENDBRANCH 114 117
ENDBRANCH  91 114
ENDBRANCH  89  91
ENDBRANCH  85  87
BRANCH  85 122
ATOM    122  CB  VAL d   1      39.750  46.690  50.037  0.00  0.00    -0.033 C 
ATOM    123  H42 VAL d   1      40.004  46.559  51.099  0.00  0.00     0.042 H 
BRANCH 122 124
ATOM    124  CG1 VAL d   1      38.680  45.677  49.679  0.00  0.00    -0.071 C 
ATOM    125  H43 VAL d   1      39.068  44.661  49.841  0.00  0.00     0.028 H 
ATOM    126  H44 VAL d   1      38.399  45.798  48.622  0.00  0.00     0.028 H 
ATOM    127  H45 VAL d   1      37.796  45.837  50.314  0.00  0.00     0.028 H 
ENDBRANCH 122 124
BRANCH 122 128
ATOM    128  CG2 VAL d   1      40.975  46.432  49.217  0.00  0.00    -0.071 C 
ATOM    129  H46 VAL d   1      41.751  47.167  49.477  0.00  0.00     0.028 H 
ATOM    130  H47 VAL d   1      40.727  46.522  48.149  0.00  0.00     0.028 H 
ATOM    131  H48 VAL d   1      41.347  45.417  49.423  0.00  0.00     0.028 H 
ENDBRANCH 122 128
ENDBRANCH  85 122
ENDBRANCH  83  85
ENDBRANCH   1  81
TORSDOF 32
