REMARK  14 active torsions:
REMARK  status: ('A' for Active; 'I' for Inactive)
REMARK    1  A    between atoms: CA7_1  and  NA1_2 
REMARK    2  A    between atoms: NA1_2  and  CA6_3 
REMARK    3  A    between atoms: CA1_8  and  CA_9 
REMARK    4  A    between atoms: CA_9  and  O3_11 
REMARK    5  A    between atoms: O3_11  and  C3_12 
REMARK    6  A    between atoms: C2_13  and  O2_14 
REMARK    7  A    between atoms: C4_15  and  C5_16 
REMARK    8  A    between atoms: C5_16  and  O5_17 
REMARK    9  A    between atoms: O5_17  and  PA_18 
REMARK   10  A    between atoms: PA_18  and  O1A_21 
REMARK   11  A    between atoms: O1A_21  and  PB_22 
REMARK   12  A    between atoms: PB_22  and  O1B_25 
REMARK   13  A    between atoms: O1B_25  and  PG_26 
REMARK   14  A    between atoms: C1_31  and  N9_32 
ROOT
ATOM      1  C3  ONM d   1      60.179 -13.738  54.284  0.00  0.00     0.103 C 
ATOM      2  C2  ONM d   1      59.250 -14.181  53.140  0.00  0.00     0.106 C 
ATOM      3  C4  ONM d   1      59.180 -13.461  55.461  0.00  0.00     0.090 C 
ATOM      4  O4  ONM d   1      58.157 -14.464  55.303  0.00  0.00    -0.353 OA
ATOM      5  C1  ONM d   1      58.205 -14.939  53.924  0.00  0.00     0.140 C 
ATOM      6  H9  ONM d   1      60.731 -12.822  54.026  0.00  0.00     0.092 H 
ATOM      7  H10 ONM d   1      58.812 -13.313  52.626  0.00  0.00     0.093 H 
ATOM      8  H12 ONM d   1      59.756 -13.707  56.365  0.00  0.00     0.090 H 
ATOM      9  H15 ONM d   1      58.582 -15.971  53.969  0.00  0.00     0.122 H 
ENDROOT
BRANCH   1  10
ATOM     10  O3  ONM d   1      61.141 -14.831  54.556  0.00  0.00    -0.317 OA
BRANCH  10  11
ATOM     11  CA  ONM d   1      62.494 -14.791  54.301  0.00  0.00     0.228 C 
ATOM     12  OA  ONM d   1      63.089 -13.584  53.709  0.00  0.00    -0.163 OA
BRANCH  11  13
ATOM     13  CA1 ONM d   1      63.374 -16.028  54.656  0.00  0.00     0.051 A 
ATOM     14  CA6 ONM d   1      64.786 -15.948  54.858  0.00  0.00     0.042 A 
ATOM     15  CA5 ONM d   1      65.551 -17.220  55.208  0.00  0.00    -0.057 A 
ATOM     16  CA4 ONM d   1      64.844 -18.649  55.353  0.00  0.00    -0.081 A 
ATOM     17  H5  ONM d   1      66.621 -17.154  55.366  0.00  0.00     0.086 H 
ATOM     18  CA3 ONM d   1      63.421 -18.622  55.127  0.00  0.00    -0.082 A 
ATOM     19  H6  ONM d   1      65.386 -19.555  55.599  0.00  0.00     0.083 H 
ATOM     20  CA2 ONM d   1      62.690 -17.281  54.771  0.00  0.00    -0.066 A 
ATOM     21  H7  ONM d   1      62.849 -19.540  55.204  0.00  0.00     0.083 H 
ATOM     22  H8  ONM d   1      61.619 -17.303  54.605  0.00  0.00     0.085 H 
BRANCH  14  23
ATOM     23  NA1 ONM d   1      65.412 -14.732  54.743  0.00  0.00    -0.393 N 
ATOM     24  H4  ONM d   1      64.806 -13.933  54.507  0.00  0.00     0.159 HD
BRANCH  23  25
ATOM     25  CA7 ONM d   1      66.858 -14.424  54.917  0.00  0.00    -0.021 C 
ATOM     26  H1  ONM d   1      67.026 -13.349  54.755  0.00  0.00     0.056 H 
ATOM     27  H2  ONM d   1      67.446 -15.001  54.188  0.00  0.00     0.056 H 
ATOM     28  H3  ONM d   1      67.170 -14.694  55.937  0.00  0.00     0.056 H 
ENDBRANCH  23  25
ENDBRANCH  14  23
ENDBRANCH  11  13
ENDBRANCH  10  11
ENDBRANCH   1  10
BRANCH   2  29
ATOM     29  O2  ONM d   1      59.909 -15.008  52.170  0.00  0.00    -0.388 OA
ATOM     30  H11 ONM d   1      60.238 -15.791  52.595  0.00  0.00     0.210 HD
ENDBRANCH   2  29
BRANCH   3  31
ATOM     31  C5  ONM d   1      58.511 -12.106  55.823  0.00  0.00     0.058 C 
ATOM     32  H13 ONM d   1      58.902 -11.816  56.809  0.00  0.00     0.079 H 
ATOM     33  H14 ONM d   1      57.431 -12.299  55.899  0.00  0.00     0.079 H 
BRANCH  31  34
ATOM     34  O5  ONM d   1      58.664 -10.968  54.971  0.00  0.00    -0.287 OA
BRANCH  34  35
ATOM     35  PA  ONM d   1      57.403  -9.932  54.721  0.00  0.00     0.417 P 
ATOM     36  O3A ONM d   1      57.905  -9.196  53.345  0.00  0.00    -0.624 OA
ATOM     37  O2A ONM d   1      56.170 -10.773  54.504  0.00  0.00    -0.624 OA
BRANCH  35  38
ATOM     38  O1A ONM d   1      57.520  -8.795  55.894  0.00  0.00    -0.180 OA
BRANCH  38  39
ATOM     39  PB  ONM d   1      56.866  -9.014  57.394  0.00  0.00     0.428 P 
ATOM     40  O3B ONM d   1      55.857 -10.310  57.282  0.00  0.00    -0.624 OA
ATOM     41  O2B ONM d   1      55.886  -7.940  57.752  0.00  0.00    -0.624 OA
BRANCH  39  42
ATOM     42  O1B ONM d   1      57.865  -9.462  58.459  0.00  0.00    -0.173 OA
BRANCH  42  43
ATOM     43  PG  ONM d   1      58.820  -8.233  58.643  0.00  0.00     0.431 P 
ATOM     44  O2G ONM d   1      60.399  -8.433  58.469  0.00  0.00    -0.616 OA
ATOM     45  O3G ONM d   1      58.297  -6.765  59.056  0.00  0.00    -0.616 OA
ATOM     46  O1G ONM d   1      58.552  -8.316  60.099  0.00  0.00    -0.616 OA
ENDBRANCH  42  43
ENDBRANCH  39  42
ENDBRANCH  38  39
ENDBRANCH  35  38
ENDBRANCH  34  35
ENDBRANCH  31  34
ENDBRANCH   3  31
BRANCH   5  47
ATOM     47  N9  ONM d   1      56.836 -15.063  53.344  0.00  0.00    -0.293 N 
ATOM     48  C8  ONM d   1      55.872 -14.146  53.143  0.00  0.00     0.071 A 
ATOM     49  N7  ONM d   1      54.826 -14.716  52.520  0.00  0.00    -0.234 NA
ATOM     50  H16 ONM d   1      55.930 -13.100  53.440  0.00  0.00     0.144 H 
ATOM     51  C5  ONM d   1      55.140 -15.998  52.291  0.00  0.00     0.173 A 
ATOM     52  C4  ONM d   1      56.427 -16.207  52.798  0.00  0.00     0.186 A 
ATOM     53  C6  ONM d   1      54.497 -17.128  51.675  0.00  0.00     0.292 A 
ATOM     54  N3  ONM d   1      57.054 -17.441  52.708  0.00  0.00    -0.044 NA
ATOM     55  C2  ONM d   1      56.463 -18.527  52.126  0.00  0.00     0.703 A 
ATOM     56  N2  ONM d   1      57.104 -19.685  52.068  0.00  0.00    -0.233 N 
ATOM     57  N1  ONM d   1      55.157 -18.391  51.597  0.00  0.00    -0.152 N 
ATOM     58  H17 ONM d   1      58.054 -19.768  52.457  0.00  0.00     0.174 HD
ATOM     59  H18 ONM d   1      56.652 -20.502  51.633  0.00  0.00     0.174 HD
ATOM     60  H19 ONM d   1      54.701 -19.173  51.172  0.00  0.00     0.187 HD
ATOM     61  O6  ONM d   1      53.366 -17.069  51.195  0.00  0.00    -0.265 OA
ENDBRANCH   5  47
TORSDOF 14
