REMARK  7 active torsions:
REMARK  status: ('A' for Active; 'I' for Inactive)
REMARK    1  A    between atoms: C1_1  and  N1_2 
REMARK    2  A    between atoms: N1_2  and  O7_5 
REMARK    3  A    between atoms: C2_3  and  O2_6 
REMARK    4  A    between atoms: C3_7  and  O3_8 
REMARK    5  A    between atoms: C4_9  and  O4_10 
REMARK    6  A    between atoms: C5_11  and  C6_12 
REMARK    7  A    between atoms: C6_12  and  O6_13 
ROOT
ATOM      1  C1  GOX d   1       9.135  16.434  42.991  0.00  0.00     0.159 C 
ATOM      2  C2  GOX d   1       8.495  16.380  44.391  0.00  0.00     0.121 C 
ATOM      3  N5  GOX d   1       8.615  15.796  41.866  0.00  0.00    -0.365 N 
ATOM      4  C3  GOX d   1       7.345  15.351  44.502  0.00  0.00     0.094 C 
ATOM      5  C4  GOX d   1       6.493  15.388  43.242  0.00  0.00     0.084 C 
ATOM      6  C5  GOX d   1       7.421  14.936  42.070  0.00  0.00     0.058 C 
ATOM      7  H1  GOX d   1       8.021  17.365  44.511  0.00  0.00     0.099 H 
ATOM      8  H2  GOX d   1       9.040  15.915  40.935  0.00  0.00     0.161 HD
ATOM      9  H5  GOX d   1       7.755  14.340  44.641  0.00  0.00     0.091 H 
ATOM     10  H7  GOX d   1       6.120  16.407  43.065  0.00  0.00     0.090 H 
ATOM     11  H9  GOX d   1       7.767  13.917  42.298  0.00  0.00     0.079 H 
ENDROOT
BRANCH   6  12
ATOM     12  C6  GOX d   1       6.643  14.914  40.731  0.00  0.00     0.038 C 
ATOM     13  H10 GOX d   1       5.871  14.132  40.779  0.00  0.00     0.077 H 
ATOM     14  H11 GOX d   1       7.344  14.688  39.914  0.00  0.00     0.077 H 
BRANCH  12  15
ATOM     15  O6  GOX d   1       6.015  16.170  40.470  0.00  0.00    -0.399 OA
ATOM     16  H12 GOX d   1       5.548  16.124  39.644  0.00  0.00     0.209 HD
ENDBRANCH  12  15
ENDBRANCH   6  12
BRANCH   5  17
ATOM     17  O4  GOX d   1       5.384  14.483  43.357  0.00  0.00    -0.391 OA
ATOM     18  H8  GOX d   1       4.864  14.519  42.563  0.00  0.00     0.210 HD
ENDBRANCH   5  17
BRANCH   1  19
ATOM     19  N1  GOX d   1      10.205  17.269  42.814  0.00  0.00    -0.120 NA
BRANCH  19  20
ATOM     20  O7  GOX d   1      10.764  17.379  41.635  0.00  0.00    -0.265 OA
ATOM     21  H3  GOX d   1      10.122  17.693  41.009  0.00  0.00     0.247 HD
ENDBRANCH  19  20
ENDBRANCH   1  19
BRANCH   4  22
ATOM     22  O3  GOX d   1       6.550  15.718  45.629  0.00  0.00    -0.390 OA
ATOM     23  H6  GOX d   1       5.833  15.102  45.723  0.00  0.00     0.210 HD
ENDBRANCH   4  22
BRANCH   2  24
ATOM     24  O2  GOX d   1       9.384  16.262  45.506  0.00  0.00    -0.385 OA
ATOM     25  H4  GOX d   1       8.880  16.238  46.311  0.00  0.00     0.210 HD
ENDBRANCH   2  24
TORSDOF 7
