REMARK  19 active torsions:
REMARK  status: ('A' for Active; 'I' for Inactive)
REMARK    1  A    between atoms: C1_1  and  C2_2 
REMARK    2  A    between atoms: C2_2  and  C3_3 
REMARK    3  A    between atoms: C2_2  and  C44_44 
REMARK    4  A    between atoms: C2_2  and  O3_47 
REMARK    5  A    between atoms: C3_3  and  C4_4 
REMARK    6  A    between atoms: C7_7  and  O5_49 
REMARK    7  A    between atoms: C10_10  and  C43_43 
REMARK    8  A    between atoms: C12_12  and  C13_13 
REMARK    9  A    between atoms: C13_13  and  C14_14 
REMARK   10  A    between atoms: C13_13  and  C42_42 
REMARK   11  A    between atoms: C15_15  and  C16_16 
REMARK   12  A    between atoms: C24_24  and  O10_54 
REMARK   13  A    between atoms: C26_26  and  C27_27 
REMARK   14  A    between atoms: C27_27  and  C28_28 
REMARK   15  A    between atoms: C27_27  and  O11_55 
REMARK   16  A    between atoms: C28_28  and  C29_29 
REMARK   17  A    between atoms: C29_29  and  C30_30 
REMARK   18  A    between atoms: C29_29  and  C40_40 
REMARK   19  A    between atoms: C31_31  and  C39_39 
ROOT
ATOM      1  C16 OKA d   1      87.907  55.557  20.834  0.00  0.00     0.058 C 
ATOM      2  C17 OKA d   1      88.877  56.033  19.760  0.00  0.00    -0.033 C 
ATOM      3  C18 OKA d   1      90.129  55.108  19.884  0.00  0.00    -0.010 C 
ATOM      4  C19 OKA d   1      89.717  54.147  21.092  0.00  0.00     0.165 C 
ATOM      5  C20 OKA d   1      90.877  53.822  21.948  0.00  0.00    -0.010 C 
ATOM      6  C21 OKA d   1      90.411  52.857  23.122  0.00  0.00    -0.034 C 
ATOM      7  C22 OKA d   1      89.761  51.625  22.451  0.00  0.00     0.067 C 
ATOM      8  C23 OKA d   1      88.645  52.085  21.560  0.00  0.00     0.095 C 
ATOM      9  C24 OKA d   1      88.015  50.807  20.914  0.00  0.00     0.086 C 
ATOM     10  C25 OKA d   1      87.518  49.815  22.056  0.00  0.00    -0.027 C 
ATOM     11  C26 OKA d   1      88.616  49.534  23.000  0.00  0.00     0.087 C 
ATOM     12  C41 OKA d   1      86.332  49.414  22.074  0.00  0.00    -0.114 C 
ATOM     13  O7  OKA d   1      88.704  54.906  21.793  0.00  0.00    -0.346 OA
ATOM     14  O8  OKA d   1      89.090  52.955  20.524  0.00  0.00    -0.344 OA
ATOM     15  O9  OKA d   1      89.307  50.769  23.487  0.00  0.00    -0.371 OA
ATOM     16  H16 OKA d   1      87.239  54.825  20.357  0.00  0.00     0.089 H 
ATOM     17  H17 OKA d   1      89.157  57.083  19.933  0.00  0.00     0.037 H 
ATOM     18  H18 OKA d   1      88.424  55.934  18.762  0.00  0.00     0.037 H 
ATOM     19  H19 OKA d   1      91.032  55.688  20.125  0.00  0.00     0.041 H 
ATOM     20  H20 OKA d   1      90.297  54.537  18.959  0.00  0.00     0.041 H 
ATOM     21  H21 OKA d   1      91.289  54.748  22.375  0.00  0.00     0.041 H 
ATOM     22  H22 OKA d   1      91.649  53.321  21.346  0.00  0.00     0.041 H 
ATOM     23  H23 OKA d   1      89.680  53.368  23.766  0.00  0.00     0.037 H 
ATOM     24  H24 OKA d   1      91.277  52.547  23.725  0.00  0.00     0.037 H 
ATOM     25  H25 OKA d   1      90.507  51.093  21.842  0.00  0.00     0.087 H 
ATOM     26  H26 OKA d   1      87.892  52.610  22.166  0.00  0.00     0.092 H 
ATOM     27  H27 OKA d   1      88.798  50.295  20.336  0.00  0.00     0.094 H 
ATOM     28  H28 OKA d   1      88.116  49.077  23.867  0.00  0.00     0.094 H 
ATOM     29  H53 OKA d   1      85.642  49.720  21.290  0.00  0.00     0.067 H 
ATOM     30  H54 OKA d   1      85.991  48.759  22.874  0.00  0.00     0.067 H 
ENDROOT
BRANCH   1  31
ATOM     31  C15 OKA d   1      87.010  56.541  21.560  0.00  0.00    -0.079 C 
ATOM     32  C14 OKA d   1      85.774  56.537  21.757  0.00  0.00    -0.098 C 
ATOM     33  H14 OKA d   1      85.203  55.717  21.325  0.00  0.00     0.077 H 
ATOM     34  H15 OKA d   1      87.531  57.399  21.983  0.00  0.00     0.080 H 
BRANCH  32  35
ATOM     35  C13 OKA d   1      85.025  57.552  22.526  0.00  0.00    -0.016 C 
ATOM     36  H13 OKA d   1      85.738  58.309  22.884  0.00  0.00     0.049 H 
BRANCH  35  37
ATOM     37  C12 OKA d   1      84.390  56.898  23.748  0.00  0.00     0.052 C 
ATOM     38  C11 OKA d   1      83.621  57.906  24.647  0.00  0.00    -0.020 C 
ATOM     39  C10 OKA d   1      83.302  57.282  25.997  0.00  0.00    -0.080 C 
ATOM     40  H10 OKA d   1      84.242  58.801  24.800  0.00  0.00     0.043 H 
ATOM     41  H11 OKA d   1      82.682  58.191  24.149  0.00  0.00     0.043 H 
ATOM     42  C9  OKA d   1      83.983  56.205  26.422  0.00  0.00    -0.040 C 
ATOM     43  C8  OKA d   1      85.069  55.558  25.702  0.00  0.00     0.211 C 
ATOM     44  H9  OKA d   1      83.699  55.782  27.384  0.00  0.00     0.085 H 
ATOM     45  C7  OKA d   1      86.359  55.359  26.422  0.00  0.00     0.093 C 
ATOM     46  O4  OKA d   1      84.562  54.211  25.268  0.00  0.00    -0.344 OA
ATOM     47  O6  OKA d   1      85.400  56.255  24.486  0.00  0.00    -0.343 OA
ATOM     48  C6  OKA d   1      87.428  54.586  25.594  0.00  0.00    -0.034 C 
ATOM     49  H8  OKA d   1      86.148  54.773  27.329  0.00  0.00     0.091 H 
ATOM     50  C5  OKA d   1      86.819  53.242  25.222  0.00  0.00    -0.038 C 
ATOM     51  H6  OKA d   1      87.681  55.150  24.684  0.00  0.00     0.037 H 
ATOM     52  H7  OKA d   1      88.336  54.435  26.197  0.00  0.00     0.037 H 
ATOM     53  C4  OKA d   1      85.571  53.421  24.502  0.00  0.00     0.045 C 
ATOM     54  H4  OKA d   1      87.526  52.690  24.586  0.00  0.00     0.036 H 
ATOM     55  H5  OKA d   1      86.626  52.667  26.140  0.00  0.00     0.036 H 
ATOM     56  H3  OKA d   1      85.812  53.967  23.578  0.00  0.00     0.083 H 
ATOM     57  H12 OKA d   1      83.672  56.142  23.399  0.00  0.00     0.085 H 
BRANCH  39  58
ATOM     58  C43 OKA d   1      82.191  57.936  26.784  0.00  0.00    -0.055 C 
ATOM     59  H58 OKA d   1      82.052  57.402  27.735  0.00  0.00     0.033 H 
ATOM     60  H59 OKA d   1      81.258  57.898  26.203  0.00  0.00     0.033 H 
ATOM     61  H60 OKA d   1      82.454  58.985  26.987  0.00  0.00     0.033 H 
ENDBRANCH  39  58
BRANCH  45  62
ATOM     62  O5  OKA d   1      86.905  56.655  26.821  0.00  0.00    -0.390 OA
ATOM     63  H65 OKA d   1      87.054  57.186  26.048  0.00  0.00     0.210 HD
ENDBRANCH  45  62
BRANCH  53  64
ATOM     64  C3  OKA d   1      84.859  52.083  24.110  0.00  0.00    -0.003 C 
ATOM     65  H1  OKA d   1      85.559  51.502  23.492  0.00  0.00     0.042 H 
ATOM     66  H2  OKA d   1      84.647  51.534  25.039  0.00  0.00     0.042 H 
BRANCH  64  67
ATOM     67  C2  OKA d   1      83.561  52.203  23.343  0.00  0.00     0.144 C 
BRANCH  67  68
ATOM     68  C1  OKA d   1      83.770  52.844  21.981  0.00  0.00     0.208 C 
ATOM     69  O1  OKA d   1      82.956  53.902  21.725  0.00  0.00    -0.646 OA
ATOM     70  O2  OKA d   1      84.586  52.517  21.127  0.00  0.00    -0.646 OA
ENDBRANCH  67  68
BRANCH  67  71
ATOM     71  C44 OKA d   1      82.958  50.803  23.011  0.00  0.00    -0.038 C 
ATOM     72  H61 OKA d   1      82.018  50.931  22.455  0.00  0.00     0.032 H 
ATOM     73  H62 OKA d   1      82.760  50.258  23.946  0.00  0.00     0.032 H 
ATOM     74  H63 OKA d   1      83.671  50.232  22.398  0.00  0.00     0.032 H 
ENDBRANCH  67  71
BRANCH  67  75
ATOM     75  O3  OKA d   1      82.548  52.849  24.037  0.00  0.00    -0.379 OA
ATOM     76  H64 OKA d   1      81.769  52.886  23.495  0.00  0.00     0.211 HD
ENDBRANCH  67  75
ENDBRANCH  64  67
ENDBRANCH  53  64
ENDBRANCH  35  37
BRANCH  35  77
ATOM     77  C42 OKA d   1      84.033  58.248  21.643  0.00  0.00    -0.067 C 
ATOM     78  H55 OKA d   1      84.556  58.695  20.785  0.00  0.00     0.028 H 
ATOM     79  H56 OKA d   1      83.524  59.038  22.215  0.00  0.00     0.028 H 
ATOM     80  H57 OKA d   1      83.291  57.521  21.281  0.00  0.00     0.028 H 
ENDBRANCH  35  77
ENDBRANCH  32  35
ENDBRANCH   1  31
BRANCH   9  81
ATOM     81  O10 OKA d   1      86.972  51.145  20.021  0.00  0.00    -0.388 OA
ATOM     82  H66 OKA d   1      86.271  51.570  20.501  0.00  0.00     0.210 HD
ENDBRANCH   9  81
BRANCH  11  83
ATOM     83  C27 OKA d   1      89.766  48.554  22.609  0.00  0.00     0.065 C 
ATOM     84  H29 OKA d   1      90.282  48.984  21.738  0.00  0.00     0.087 H 
BRANCH  83  85
ATOM     85  C28 OKA d   1      89.220  47.159  22.204  0.00  0.00    -0.033 C 
ATOM     86  H30 OKA d   1      88.529  47.287  21.358  0.00  0.00     0.037 H 
ATOM     87  H31 OKA d   1      88.675  46.736  23.061  0.00  0.00     0.037 H 
BRANCH  85  88
ATOM     88  C29 OKA d   1      90.336  46.154  21.783  0.00  0.00    -0.030 C 
ATOM     89  H32 OKA d   1      91.063  46.058  22.603  0.00  0.00     0.043 H 
BRANCH  88  90
ATOM     90  C30 OKA d   1      89.704  44.761  21.489  0.00  0.00     0.048 C 
ATOM     91  C31 OKA d   1      88.941  44.132  22.662  0.00  0.00    -0.032 C 
ATOM     92  C32 OKA d   1      88.481  42.745  22.191  0.00  0.00    -0.055 C 
ATOM     93  H34 OKA d   1      88.061  44.757  22.876  0.00  0.00     0.043 H 
ATOM     94  C33 OKA d   1      89.666  41.869  21.684  0.00  0.00    -0.012 C 
ATOM     95  H35 OKA d   1      87.759  42.871  21.371  0.00  0.00     0.033 H 
ATOM     96  H36 OKA d   1      87.995  42.229  23.032  0.00  0.00     0.033 H 
ATOM     97  C34 OKA d   1      90.513  42.581  20.687  0.00  0.00     0.164 C 
ATOM     98  H37 OKA d   1      89.259  40.960  21.217  0.00  0.00     0.041 H 
ATOM     99  H38 OKA d   1      90.292  41.590  22.544  0.00  0.00     0.041 H 
ATOM    100  C35 OKA d   1      91.860  41.951  20.384  0.00  0.00    -0.013 C 
ATOM    101  O12 OKA d   1      90.813  43.908  21.081  0.00  0.00    -0.349 OA
ATOM    102  O13 OKA d   1      89.700  42.590  19.480  0.00  0.00    -0.355 OA
ATOM    103  C36 OKA d   1      92.513  42.557  19.108  0.00  0.00    -0.058 C 
ATOM    104  H39 OKA d   1      91.721  40.870  20.233  0.00  0.00     0.041 H 
ATOM    105  H40 OKA d   1      92.531  42.118  21.240  0.00  0.00     0.041 H 
ATOM    106  C37 OKA d   1      91.622  42.611  17.894  0.00  0.00    -0.045 C 
ATOM    107  H41 OKA d   1      93.395  41.950  18.856  0.00  0.00     0.033 H 
ATOM    108  H42 OKA d   1      92.830  43.584  19.343  0.00  0.00     0.033 H 
ATOM    109  C38 OKA d   1      90.269  43.215  18.269  0.00  0.00     0.023 C 
ATOM    110  H43 OKA d   1      91.472  41.593  17.506  0.00  0.00     0.036 H 
ATOM    111  H44 OKA d   1      92.097  43.232  17.120  0.00  0.00     0.036 H 
ATOM    112  H45 OKA d   1      89.570  43.068  17.432  0.00  0.00     0.074 H 
ATOM    113  H46 OKA d   1      90.400  44.292  18.453  0.00  0.00     0.074 H 
ATOM    114  H33 OKA d   1      88.997  44.867  20.653  0.00  0.00     0.084 H 
BRANCH  91 115
ATOM    115  C39 OKA d   1      89.753  43.990  23.980  0.00  0.00    -0.070 C 
ATOM    116  H47 OKA d   1      90.082  44.984  24.317  0.00  0.00     0.028 H 
ATOM    117  H48 OKA d   1      90.632  43.353  23.802  0.00  0.00     0.028 H 
ATOM    118  H49 OKA d   1      89.119  43.532  24.754  0.00  0.00     0.028 H 
ENDBRANCH  91 115
ENDBRANCH  88  90
BRANCH  88 119
ATOM    119  C40 OKA d   1      91.047  46.651  20.541  0.00  0.00    -0.070 C 
ATOM    120  H50 OKA d   1      91.495  47.635  20.744  0.00  0.00     0.028 H 
ATOM    121  H51 OKA d   1      90.325  46.740  19.716  0.00  0.00     0.028 H 
ATOM    122  H52 OKA d   1      91.837  45.939  20.261  0.00  0.00     0.028 H 
ENDBRANCH  88 119
ENDBRANCH  85  88
ENDBRANCH  83  85
BRANCH  83 123
ATOM    123  O11 OKA d   1      90.684  48.399  23.606  0.00  0.00    -0.393 OA
ATOM    124  H67 OKA d   1      91.022  49.250  23.859  0.00  0.00     0.210 HD
ENDBRANCH  83 123
ENDBRANCH  11  83
TORSDOF 19
