REMARK  4 active torsions:
REMARK  status: ('A' for Active; 'I' for Inactive)
REMARK    1  A    between atoms: C1_1  and  O24_18 
REMARK    2  A    between atoms: C12_9  and  C13_10 
REMARK    3  A    between atoms: C14_11  and  O23_17 
REMARK    4  A    between atoms: C16_13  and  O22_16 
ROOT
ATOM      1  C1  272 d   1      19.997  -4.271  17.373  0.00  0.00     0.068 A 
ATOM      2  C2  272 d   1      20.464  -4.246  16.027  0.00  0.00    -0.015 A 
ATOM      3  C3  272 d   1      19.501  -4.103  14.998  0.00  0.00     0.116 A 
ATOM      4  C4  272 d   1      18.094  -3.984  15.233  0.00  0.00     0.032 A 
ATOM      5  C5  272 d   1      17.606  -4.008  16.617  0.00  0.00    -0.065 A 
ATOM      6  C6  272 d   1      18.575  -4.154  17.688  0.00  0.00    -0.050 A 
ATOM      7  O10 272 d   1      19.719  -4.045  13.683  0.00  0.00    -0.212 OA
ATOM      8  N11 272 d   1      18.556  -3.893  13.100  0.00  0.00    -0.126 NA
ATOM      9  C12 272 d   1      17.452  -3.854  13.931  0.00  0.00     0.110 A 
ATOM     10  H1  272 d   1      21.520  -4.333  15.798  0.00  0.00     0.092 H 
ATOM     11  H2  272 d   1      16.548  -3.919  16.834  0.00  0.00     0.085 H 
ATOM     12  H3  272 d   1      18.244  -4.176  18.720  0.00  0.00     0.087 H 
ENDROOT
BRANCH   9  13
ATOM     13  C13 272 d   1      16.010  -3.642  13.481  0.00  0.00     0.029 A 
ATOM     14  C14 272 d   1      15.717  -3.396  12.078  0.00  0.00     0.081 A 
ATOM     15  C15 272 d   1      14.385  -3.185  11.606  0.00  0.00    -0.018 A 
ATOM     16  C16 272 d   1      13.314  -3.214  12.531  0.00  0.00     0.068 A 
ATOM     17  H4  272 d   1      14.197  -3.005  10.554  0.00  0.00     0.092 H 
ATOM     18  C17 272 d   1      13.574  -3.458  13.929  0.00  0.00    -0.050 A 
ATOM     19  C18 272 d   1      14.924  -3.672  14.411  0.00  0.00    -0.065 A 
ATOM     20  H5  272 d   1      12.747  -3.482  14.630  0.00  0.00     0.087 H 
ATOM     21  H6  272 d   1      15.108  -3.853  15.464  0.00  0.00     0.085 H 
BRANCH  14  22
ATOM     22  O23 272 d   1      16.582  -3.355  11.211  0.00  0.00    -0.360 OA
ATOM     23  H8  272 d   1      17.433  -3.504  11.607  0.00  0.00     0.217 HD
ENDBRANCH  14  22
BRANCH  16  24
ATOM     24  O22 272 d   1      12.158  -3.031  12.134  0.00  0.00    -0.361 OA
ATOM     25  H7  272 d   1      12.166  -2.886  11.195  0.00  0.00     0.217 HD
ENDBRANCH  16  24
ENDBRANCH   9  13
BRANCH   1  26
ATOM     26  O24 272 d   1      20.839  -4.392  18.271  0.00  0.00    -0.361 OA
ATOM     27  H9  272 d   1      20.800  -3.635  18.844  0.00  0.00     0.217 HD
ENDBRANCH   1  26
TORSDOF 4
