REMARK  2 active torsions:
REMARK  status: ('A' for Active; 'I' for Inactive)
REMARK    1  A    between atoms: C1_1  and  O30_20 
REMARK    2  A    between atoms: C26_19  and  O31_21 
ROOT
ATOM      1  C1  338 d   1      25.315  36.037  41.365  0.00  0.00     0.068 A 
ATOM      2  C2  338 d   1      26.633  35.491  41.533  0.00  0.00    -0.016 A 
ATOM      3  C3  338 d   1      27.543  35.627  40.444  0.00  0.00     0.109 A 
ATOM      4  C4  338 d   1      27.162  36.270  39.250  0.00  0.00     0.093 A 
ATOM      5  C5  338 d   1      25.854  36.817  39.064  0.00  0.00    -0.050 A 
ATOM      6  C6  338 d   1      24.925  36.694  40.146  0.00  0.00    -0.049 A 
ATOM      7  O10 338 d   1      28.830  35.213  40.360  0.00  0.00    -0.289 OA
ATOM      8  C11 338 d   1      29.255  35.598  39.114  0.00  0.00     0.181 A 
ATOM      9  N12 338 d   1      28.249  36.252  38.391  0.00  0.00    -0.221 NA
ATOM     10  C13 338 d   1      30.576  35.385  38.621  0.00  0.00     0.028 A 
ATOM     11  C15 338 d   1      31.205  36.073  37.443  0.00  0.00    -0.009 A 
ATOM     12  C16 338 d   1      32.622  35.743  37.083  0.00  0.00     0.008 A 
ATOM     13  C17 338 d   1      33.337  34.785  37.863  0.00  0.00    -0.070 A 
ATOM     14  C18 338 d   1      32.728  34.132  38.981  0.00  0.00    -0.081 A 
ATOM     15  C19 338 d   1      31.385  34.432  39.344  0.00  0.00    -0.068 A 
ATOM     16  C23 338 d   1      30.547  37.053  36.613  0.00  0.00    -0.071 A 
ATOM     17  C24 338 d   1      31.196  37.687  35.502  0.00  0.00    -0.080 A 
ATOM     18  C25 338 d   1      32.552  37.356  35.181  0.00  0.00    -0.050 A 
ATOM     19  C26 338 d   1      33.274  36.393  35.957  0.00  0.00     0.076 A 
ATOM     20  H1  338 d   1      26.924  34.995  42.452  0.00  0.00     0.092 H 
ATOM     21  H2  338 d   1      25.576  37.307  38.138  0.00  0.00     0.087 H 
ATOM     22  H3  338 d   1      23.924  37.097  40.047  0.00  0.00     0.087 H 
ATOM     23  H4  338 d   1      34.362  34.547  37.603  0.00  0.00     0.085 H 
ATOM     24  H5  338 d   1      33.292  33.405  39.554  0.00  0.00     0.083 H 
ATOM     25  H6  338 d   1      30.952  33.924  40.198  0.00  0.00     0.085 H 
ATOM     26  H7  338 d   1      29.521  37.321  36.838  0.00  0.00     0.084 H 
ATOM     27  H8  338 d   1      30.660  38.416  34.906  0.00  0.00     0.083 H 
ATOM     28  H9  338 d   1      33.037  37.840  34.341  0.00  0.00     0.087 H 
ENDROOT
BRANCH  19  29
ATOM     29  O31 338 d   1      34.588  36.121  35.599  0.00  0.00    -0.360 OA
ATOM     30  H11 338 d   1      35.102  36.918  35.654  0.00  0.00     0.217 HD
ENDBRANCH  19  29
BRANCH   1  31
ATOM     31  O30 338 d   1      24.398  35.938  42.382  0.00  0.00    -0.361 OA
ATOM     32  H10 338 d   1      24.791  35.484  43.118  0.00  0.00     0.217 HD
ENDBRANCH   1  31
TORSDOF 2
