REMARK  3 active torsions:
REMARK  status: ('A' for Active; 'I' for Inactive)
REMARK    1  A    between atoms: C1_1  and  C18_12 
REMARK    2  A    between atoms: C12_9  and  O17_11 
REMARK    3  A    between atoms: C25_19  and  O30_21 
ROOT
ATOM      1  C1  797 d   1      28.556  36.925  37.841  0.00  0.00    -0.003 A 
ATOM      2  C2  797 d   1      28.827  36.357  39.140  0.00  0.00    -0.060 A 
ATOM      3  C3  797 d   1      27.776  36.196  40.093  0.00  0.00    -0.025 A 
ATOM      4  C4  797 d   1      26.394  36.622  39.733  0.00  0.00    -0.023 A 
ATOM      5  C5  797 d   1      26.135  37.180  38.450  0.00  0.00    -0.071 A 
ATOM      6  C6  797 d   1      27.210  37.329  37.520  0.00  0.00    -0.070 A 
ATOM      7  C10 797 d   1      28.048  35.640  41.379  0.00  0.00    -0.070 A 
ATOM      8  C11 797 d   1      26.974  35.493  42.312  0.00  0.00    -0.050 A 
ATOM      9  C12 797 d   1      25.643  35.900  41.962  0.00  0.00     0.066 A 
ATOM     10  C13 797 d   1      25.344  36.462  40.681  0.00  0.00    -0.040 A 
ATOM     11  H1  797 d   1      29.835  36.051  39.394  0.00  0.00     0.086 H 
ATOM     12  H2  797 d   1      25.132  37.489  38.180  0.00  0.00     0.084 H 
ATOM     13  H3  797 d   1      27.007  37.758  36.545  0.00  0.00     0.084 H 
ATOM     14  H4  797 d   1      29.053  35.334  41.645  0.00  0.00     0.085 H 
ATOM     15  H5  797 d   1      27.167  35.071  43.291  0.00  0.00     0.087 H 
ATOM     16  H6  797 d   1      24.332  36.762  40.435  0.00  0.00     0.089 H 
ENDROOT
BRANCH   1  17
ATOM     17  C18 797 d   1      29.656  37.111  36.817  0.00  0.00     0.107 A 
ATOM     18  C19 797 d   1      31.057  36.756  36.802  0.00  0.00     0.032 A 
ATOM     19  C20 797 d   1      31.606  37.191  35.552  0.00  0.00     0.116 A 
ATOM     20  C23 797 d   1      31.961  36.091  37.734  0.00  0.00    -0.065 A 
ATOM     21  O21 797 d   1      30.605  37.771  34.860  0.00  0.00    -0.212 OA
ATOM     22  C26 797 d   1      32.971  37.008  35.186  0.00  0.00    -0.015 A 
ATOM     23  N22 797 d   1      29.512  37.719  35.585  0.00  0.00    -0.127 NA
ATOM     24  C25 797 d   1      33.832  36.363  36.104  0.00  0.00     0.068 A 
ATOM     25  H10 797 d   1      33.340  37.355  34.228  0.00  0.00     0.092 H 
ATOM     26  C24 797 d   1      33.344  35.900  37.379  0.00  0.00    -0.050 A 
ATOM     27  H9  797 d   1      34.018  35.408  38.071  0.00  0.00     0.087 H 
ATOM     28  H8  797 d   1      31.593  35.741  38.692  0.00  0.00     0.085 H 
BRANCH  24  29
ATOM     29  O30 797 d   1      35.164  36.188  35.754  0.00  0.00    -0.361 OA
ATOM     30  H11 797 d   1      35.564  37.036  35.601  0.00  0.00     0.217 HD
ENDBRANCH  24  29
ENDBRANCH   1  17
BRANCH   9  31
ATOM     31  O17 797 d   1      24.631  35.738  42.895  0.00  0.00    -0.361 OA
ATOM     32  H7  797 d   1      24.990  35.355  43.687  0.00  0.00     0.217 HD
ENDBRANCH   9  31
TORSDOF 3
