REMARK  10 active torsions:
REMARK  status: ('A' for Active; 'I' for Inactive)
REMARK    1  A    between atoms: N6_6  and  C24_24 
REMARK    2  A    between atoms: C7_7  and  C8_8 
REMARK    3  A    between atoms: N9_9  and  C28_28 
REMARK    4  A    between atoms: C16_16  and  C17_17 
REMARK    5  A    between atoms: C21_21  and  C22_22 
REMARK    6  A    between atoms: C24_24  and  C35_35 
REMARK    7  A    between atoms: C25_25  and  O33_33 
REMARK    8  A    between atoms: C26_26  and  N31_31 
REMARK    9  A    between atoms: N31_31  and  C32_32 
REMARK   10  A    between atoms: O33_33  and  C34_34 
ROOT
ATOM      1  C24 STU d   1      10.483   4.168  51.740  0.00  0.00     0.168 C 
ATOM      2  C25 STU d   1      10.813   5.458  50.794  0.00  0.00     0.113 C 
ATOM      3  C26 STU d   1       9.582   6.406  50.574  0.00  0.00     0.134 C 
ATOM      4  C27 STU d   1       9.114   6.857  51.985  0.00  0.00     0.005 C 
ATOM      5  C28 STU d   1       9.107   5.786  53.129  0.00  0.00     0.115 C 
ATOM      6  O29 STU d   1       9.344   4.440  52.675  0.00  0.00    -0.333 OA
ATOM      7  H12 STU d   1      11.188   5.104  49.822  0.00  0.00     0.094 H 
ATOM      8  H13 STU d   1       8.762   5.861  50.084  0.00  0.00     0.088 H 
ATOM      9  H14 STU d   1       8.086   7.236  51.884  0.00  0.00     0.042 H 
ATOM     10  H15 STU d   1       9.777   7.675  52.305  0.00  0.00     0.042 H 
ATOM     11  H16 STU d   1       8.077   5.819  53.513  0.00  0.00     0.118 H 
ENDROOT
BRANCH   3  12
ATOM     12  N31 STU d   1      10.019   7.510  49.683  0.00  0.00    -0.072 N 
ATOM     13  H17 STU d   1      10.985   7.716  49.884  0.00  0.00     0.277 HD
ATOM     14  H18 STU d   1       9.454   8.321  49.882  0.00  0.00     0.277 HD
BRANCH  12  15
ATOM     15  C32 STU d   1       9.897   7.198  48.221  0.00  0.00     0.065 C 
ATOM     16  H19 STU d   1      10.239   8.062  47.632  0.00  0.00     0.067 H 
ATOM     17  H20 STU d   1       8.846   6.982  47.979  0.00  0.00     0.067 H 
ATOM     18  H21 STU d   1      10.517   6.322  47.980  0.00  0.00     0.067 H 
ENDBRANCH  12  15
ENDBRANCH   3  12
BRANCH   2  19
ATOM     19  O33 STU d   1      11.828   6.298  51.474  0.00  0.00    -0.384 OA
BRANCH  19  20
ATOM     20  C34 STU d   1      13.178   6.291  50.942  0.00  0.00     0.005 C 
ATOM     21  H22 STU d   1      13.813   6.956  51.545  0.00  0.00     0.066 H 
ATOM     22  H23 STU d   1      13.163   6.644  49.900  0.00  0.00     0.066 H 
ATOM     23  H24 STU d   1      13.581   5.268  50.977  0.00  0.00     0.066 H 
ENDBRANCH  19  20
ENDBRANCH   2  19
BRANCH   1  24
ATOM     24  N6  STU d   1      11.710   3.809  52.571  0.00  0.00    -0.308 N 
ATOM     25  C5  STU d   1      12.791   2.911  52.261  0.00  0.00     0.049 A 
ATOM     26  C4  STU d   1      13.081   2.049  51.090  0.00  0.00    -0.056 A 
ATOM     27  C23 STU d   1      13.730   2.931  53.374  0.00  0.00     0.004 A 
ATOM     28  C3  STU d   1      14.264   1.258  51.079  0.00  0.00    -0.081 A 
ATOM     29  H4  STU d   1      12.398   2.022  50.249  0.00  0.00     0.087 H 
ATOM     30  C2  STU d   1      15.196   1.283  52.198  0.00  0.00    -0.082 A 
ATOM     31  H3  STU d   1      14.475   0.626  50.224  0.00  0.00     0.083 H 
ATOM     32  C1  STU d   1      14.946   2.103  53.335  0.00  0.00    -0.070 A 
ATOM     33  H2  STU d   1      16.090   0.671  52.165  0.00  0.00     0.083 H 
ATOM     34  H1  STU d   1      15.645   2.117  54.164  0.00  0.00     0.084 H 
ATOM     35  C22 STU d   1      13.215   3.843  54.356  0.00  0.00     0.015 A 
ATOM     36  C7  STU d   1      11.981   4.351  53.833  0.00  0.00     0.077 A 
BRANCH  35  37
ATOM     37  C21 STU d   1      13.673   4.296  55.640  0.00  0.00    -0.010 A 
ATOM     38  C17 STU d   1      12.924   5.244  56.407  0.00  0.00     0.054 A 
ATOM     39  C18 STU d   1      13.668   5.504  57.654  0.00  0.00     0.253 A 
ATOM     40  N19 STU d   1      14.794   4.735  57.603  0.00  0.00    -0.353 N 
ATOM     41  O30 STU d   1      13.330   6.286  58.578  0.00  0.00    -0.268 OA
ATOM     42  C20 STU d   1      14.922   3.941  56.418  0.00  0.00     0.021 A 
ATOM     43  H9  STU d   1      15.476   4.726  58.335  0.00  0.00     0.163 HD
ATOM     44  H10 STU d   1      14.946   2.868  56.660  0.00  0.00     0.071 H 
ATOM     45  H11 STU d   1      15.829   4.211  55.856  0.00  0.00     0.071 H 
BRANCH  38  46
ATOM     46  C16 STU d   1      11.652   5.780  55.905  0.00  0.00     0.022 A 
ATOM     47  C8  STU d   1      11.195   5.325  54.627  0.00  0.00     0.077 A 
ATOM     48  N9  STU d   1       9.976   5.933  54.314  0.00  0.00    -0.316 N 
ATOM     49  C10 STU d   1       9.646   6.791  55.394  0.00  0.00     0.048 A 
ATOM     50  C11 STU d   1       8.434   7.660  55.515  0.00  0.00    -0.056 A 
ATOM     51  C15 STU d   1      10.679   6.713  56.393  0.00  0.00     0.004 A 
ATOM     52  C12 STU d   1       8.391   8.424  56.730  0.00  0.00    -0.081 A 
ATOM     53  H5  STU d   1       7.661   7.708  54.757  0.00  0.00     0.087 H 
ATOM     54  C13 STU d   1       9.408   8.362  57.738  0.00  0.00    -0.082 A 
ATOM     55  H6  STU d   1       7.545   9.082  56.893  0.00  0.00     0.083 H 
ATOM     56  C14 STU d   1      10.577   7.517  57.621  0.00  0.00    -0.070 A 
ATOM     57  H7  STU d   1       9.297   8.974  58.626  0.00  0.00     0.083 H 
ATOM     58  H8  STU d   1      11.335   7.479  58.395  0.00  0.00     0.084 H 
ENDBRANCH  38  46
ENDBRANCH  35  37
ENDBRANCH   1  24
BRANCH   1  59
ATOM     59  C35 STU d   1       9.840   3.043  50.872  0.00  0.00    -0.028 C 
ATOM     60  H25 STU d   1       8.971   3.448  50.333  0.00  0.00     0.034 H 
ATOM     61  H26 STU d   1       9.516   2.218  51.523  0.00  0.00     0.034 H 
ATOM     62  H27 STU d   1      10.580   2.670  50.148  0.00  0.00     0.034 H 
ENDBRANCH   1  59
TORSDOF 10
