REMARK  8 active torsions:
REMARK  status: ('A' for Active; 'I' for Inactive)
REMARK    1  A    between atoms: O2_4  and  C10_10 
REMARK    2  A    between atoms: C37_15  and  O2_4 
REMARK    3  A    between atoms: C20_28  and  O23_8 
REMARK    4  A    between atoms: C7_14  and  C31_29 
REMARK       I    between atoms: N2_32  and  C37_15 
REMARK    5  A    between atoms: C20_28  and  C28_27 
REMARK    6  A    between atoms: C28_27  and  C33_31 
REMARK    7  A    between atoms: C31_29  and  C32_30 
REMARK    8  A    between atoms: C24_36  and  N3_33 
ROOT
ATOM      1  N1  CP0 d   1     -17.188 113.198  39.692  0.00  0.00    -0.245 NA
ATOM      2  N4  CP0 d   1     -14.792 114.665  41.913  0.00  0.00    -0.307 N 
ATOM      3  O18 CP0 d   1     -13.147 115.667  43.335  0.00  0.00    -0.267 OA
ATOM      4  O19 CP0 d   1     -10.634 116.617  39.758  0.00  0.00    -0.314 OA
ATOM      5  O22 CP0 d   1     -10.253 116.594  37.536  0.00  0.00    -0.261 OA
ATOM      6  C13 CP0 d   1     -18.457 112.588  39.982  0.00  0.00     0.068 A 
ATOM      7  C10 CP0 d   1     -21.051 111.355  40.403  0.00  0.00     0.082 A 
ATOM      8  C14 CP0 d   1     -14.525 114.556  39.477  0.00  0.00    -0.044 A 
ATOM      9  C6  CP0 d   1     -16.858 113.631  42.147  0.00  0.00    -0.002 A 
ATOM     10  C8  CP0 d   1     -19.014 112.467  41.401  0.00  0.00     0.002 A 
ATOM     11  C7  CP0 d   1     -18.154 113.019  42.488  0.00  0.00    -0.035 A 
ATOM     12  C3  CP0 d   1     -15.268 114.287  40.596  0.00  0.00     0.068 A 
ATOM     13  C9  CP0 d   1     -20.351 111.821  41.540  0.00  0.00    -0.037 A 
ATOM     14  C12 CP0 d   1     -19.175 112.097  38.746  0.00  0.00    -0.052 A 
ATOM     15  C11 CP0 d   1     -20.419 111.513  39.013  0.00  0.00    -0.048 A 
ATOM     16  C2  CP0 d   1     -16.511 113.655  40.739  0.00  0.00     0.093 A 
ATOM     17  C16 CP0 d   1     -12.715 115.646  40.875  0.00  0.00     0.044 A 
ATOM     18  C15 CP0 d   1     -13.222 115.250  39.606  0.00  0.00     0.002 A 
ATOM     19  C23 CP0 d   1     -13.483 115.372  42.155  0.00  0.00     0.257 A 
ATOM     20  C17 CP0 d   1     -11.347 116.371  41.037  0.00  0.00     0.058 A 
ATOM     21  C5  CP0 d   1     -15.762 114.281  42.983  0.00  0.00     0.030 A 
ATOM     22  C21 CP0 d   1     -11.006 116.296  38.464  0.00  0.00     0.298 A 
ATOM     23  C20 CP0 d   1     -12.408 115.556  38.269  0.00  0.00     0.173 A 
ATOM     24  H2  CP0 d   1     -14.891 114.260  38.495  0.00  0.00     0.088 H 
ATOM     25  H3  CP0 d   1     -20.791 111.707  42.524  0.00  0.00     0.089 H 
ATOM     26  H4  CP0 d   1     -18.765 112.189  37.747  0.00  0.00     0.087 H 
ATOM     27  H5  CP0 d   1     -20.984 111.141  38.166  0.00  0.00     0.087 H 
ATOM     28  H6  CP0 d   1     -11.526 117.341  41.524  0.00  0.00     0.083 H 
ATOM     29  H7  CP0 d   1     -10.702 115.752  41.678  0.00  0.00     0.083 H 
ATOM     30  H8  CP0 d   1     -16.135 115.161  43.527  0.00  0.00     0.072 H 
ATOM     31  H9  CP0 d   1     -15.319 113.570  43.696  0.00  0.00     0.072 H 
ENDROOT
BRANCH   7  32
ATOM     32  O2  CP0 d   1     -22.340 110.742  40.483  0.00  0.00    -0.261 OA
BRANCH  32  33
ATOM     33  C37 CP0 d   1     -22.999 109.990  39.426  0.00  0.00     0.368 C 
ATOM     34  O1  CP0 d   1     -22.393 109.692  38.469  0.00  0.00    -0.238 OA
ATOM     35  N2  CP0 d   1     -24.308 109.675  39.658  0.00  0.00    -0.328 N 
ATOM     36  C22 CP0 d   1     -25.712 109.806  39.126  0.00  0.00     0.002 C 
ATOM     37  C26 CP0 d   1     -24.246 108.832  40.841  0.00  0.00     0.002 C 
ATOM     38  C36 CP0 d   1     -25.918 108.365  38.445  0.00  0.00    -0.023 C 
ATOM     39  H23 CP0 d   1     -25.790 110.617  38.387  0.00  0.00     0.064 H 
ATOM     40  H24 CP0 d   1     -26.436 109.977  39.936  0.00  0.00     0.064 H 
ATOM     41  C24 CP0 d   1     -25.768 107.253  39.576  0.00  0.00     0.107 C 
ATOM     42  H38 CP0 d   1     -25.157 108.209  37.666  0.00  0.00     0.038 H 
ATOM     43  H39 CP0 d   1     -26.920 108.306  37.995  0.00  0.00     0.038 H 
ATOM     44  C25 CP0 d   1     -24.443 107.394  40.298  0.00  0.00    -0.023 C 
ATOM     45  H25 CP0 d   1     -26.574 107.404  40.309  0.00  0.00     0.084 H 
ATOM     46  H21 CP0 d   1     -23.627 107.161  39.598  0.00  0.00     0.038 H 
ATOM     47  H22 CP0 d   1     -24.417 106.687  41.140  0.00  0.00     0.038 H 
ATOM     48  H26 CP0 d   1     -25.046 109.094  41.549  0.00  0.00     0.064 H 
ATOM     49  H27 CP0 d   1     -23.270 108.930  41.339  0.00  0.00     0.064 H 
BRANCH  41  50
ATOM     50  N3  CP0 d   1     -25.918 105.827  38.985  0.00  0.00    -0.067 N 
ATOM     51  C29 CP0 d   1     -27.082 105.730  37.909  0.00  0.00     0.084 C 
ATOM     52  C34 CP0 d   1     -26.859 104.457  37.148  0.00  0.00    -0.042 C 
ATOM     53  H28 CP0 d   1     -27.041 106.592  37.227  0.00  0.00     0.076 H 
ATOM     54  H29 CP0 d   1     -28.061 105.706  38.410  0.00  0.00     0.076 H 
ATOM     55  C30 CP0 d   1     -27.049 103.230  38.094  0.00  0.00    -0.062 C 
ATOM     56  H30 CP0 d   1     -25.837 104.449  36.742  0.00  0.00     0.035 H 
ATOM     57  H31 CP0 d   1     -27.582 104.395  36.321  0.00  0.00     0.035 H 
ATOM     58  C27 CP0 d   1     -26.335 103.352  39.528  0.00  0.00    -0.042 C 
ATOM     59  H36 CP0 d   1     -26.642 102.343  37.586  0.00  0.00     0.033 H 
ATOM     60  H37 CP0 d   1     -28.128 103.094  38.262  0.00  0.00     0.033 H 
ATOM     61  C35 CP0 d   1     -26.205 104.809  40.048  0.00  0.00     0.084 C 
ATOM     62  H34 CP0 d   1     -26.924 102.776  40.257  0.00  0.00     0.035 H 
ATOM     63  H35 CP0 d   1     -25.326 102.922  39.449  0.00  0.00     0.035 H 
ATOM     64  H32 CP0 d   1     -27.150 105.083  40.540  0.00  0.00     0.076 H 
ATOM     65  H33 CP0 d   1     -25.387 104.840  40.782  0.00  0.00     0.076 H 
ATOM     66  H20 CP0 d   1     -25.047 105.589  38.537  0.00  0.00     0.280 HD
ENDBRANCH  41  50
ENDBRANCH  32  33
ENDBRANCH   7  32
BRANCH  11  67
ATOM     67  C31 CP0 d   1     -18.666 112.934  43.955  0.00  0.00    -0.043 C 
ATOM     68  H12 CP0 d   1     -17.790 112.763  44.598  0.00  0.00     0.039 H 
ATOM     69  H13 CP0 d   1     -19.340 112.067  44.016  0.00  0.00     0.039 H 
BRANCH  67  70
ATOM     70  C32 CP0 d   1     -19.449 114.185  44.546  0.00  0.00    -0.073 C 
ATOM     71  H14 CP0 d   1     -19.744 113.975  45.585  0.00  0.00     0.028 H 
ATOM     72  H15 CP0 d   1     -20.348 114.375  43.941  0.00  0.00     0.028 H 
ATOM     73  H16 CP0 d   1     -18.797 115.070  44.522  0.00  0.00     0.028 H 
ENDBRANCH  67  70
ENDBRANCH  11  67
BRANCH  23  74
ATOM     74  O23 CP0 d   1     -12.075 114.316  37.606  0.00  0.00    -0.375 OA
ATOM     75  H1  CP0 d   1     -11.591 114.504  36.811  0.00  0.00     0.211 HD
ENDBRANCH  23  74
BRANCH  23  76
ATOM     76  C28 CP0 d   1     -13.348 116.190  37.233  0.00  0.00    -0.026 C 
ATOM     77  H10 CP0 d   1     -14.198 115.506  37.092  0.00  0.00     0.038 H 
ATOM     78  H11 CP0 d   1     -12.790 116.281  36.289  0.00  0.00     0.038 H 
BRANCH  76  79
ATOM     79  C33 CP0 d   1     -13.885 117.495  37.552  0.00  0.00    -0.073 C 
ATOM     80  H17 CP0 d   1     -14.538 117.833  36.734  0.00  0.00     0.027 H 
ATOM     81  H18 CP0 d   1     -13.059 118.210  37.681  0.00  0.00     0.027 H 
ATOM     82  H19 CP0 d   1     -14.467 117.434  38.484  0.00  0.00     0.027 H 
ENDBRANCH  76  79
ENDBRANCH  23  76
TORSDOF 8
