REMARK  4 active torsions:
REMARK  status: ('A' for Active; 'I' for Inactive)
REMARK    1  A    between atoms: C1_1  and  C23_14 
REMARK    2  A    between atoms: C12_9  and  C17_11 
REMARK    3  A    between atoms: C17_11  and  N18_12 
REMARK    4  A    between atoms: C24_15  and  C25_16 
ROOT
ATOM      1  C1  745 d   1      23.025  15.743  33.278  0.00  0.00    -0.052 C 
ATOM      2  C2  745 d   1      21.701  15.721  32.710  0.00  0.00    -0.066 C 
ATOM      3  C3  745 d   1      20.799  16.799  32.985  0.00  0.00    -0.025 A 
ATOM      4  C4  745 d   1      21.267  17.947  33.765  0.00  0.00    -0.025 A 
ATOM      5  C5  745 d   1      22.643  17.991  34.210  0.00  0.00    -0.072 C 
ATOM      6  C6  745 d   1      23.535  16.918  33.928  0.00  0.00    -0.076 C 
ATOM      7  C10 745 d   1      19.444  16.786  32.513  0.00  0.00    -0.071 A 
ATOM      8  C11 745 d   1      18.554  17.831  32.852  0.00  0.00    -0.069 A 
ATOM      9  C12 745 d   1      18.981  18.929  33.657  0.00  0.00     0.008 A 
ATOM     10  C13 745 d   1      20.358  18.993  34.053  0.00  0.00    -0.059 A 
ATOM     11  H1  745 d   1      21.390  14.896  32.080  0.00  0.00     0.085 H 
ATOM     12  H2  745 d   1      22.999  18.852  34.765  0.00  0.00     0.084 H 
ATOM     13  H3  745 d   1      24.582  16.987  34.199  0.00  0.00     0.084 H 
ATOM     14  H4  745 d   1      19.100  15.968  31.891  0.00  0.00     0.084 H 
ATOM     15  H5  745 d   1      17.531  17.797  32.495  0.00  0.00     0.085 H 
ATOM     16  H6  745 d   1      20.712  19.867  34.588  0.00  0.00     0.086 H 
ENDROOT
BRANCH   1  17
ATOM     17  C23 745 d   1      23.956  14.635  33.421  0.00  0.00    -0.021 A 
ATOM     18  C24 745 d   1      24.864  14.800  32.059  0.00  0.00    -0.021 A 
ATOM     19  C7  745 d   1      25.419  14.348  33.390  0.00  0.00    -0.050 A 
ATOM     20  H12 745 d   1      24.775  15.833  31.693  0.00  0.00     0.048 H 
ATOM     21  H18 745 d   1      25.759  13.307  33.498  0.00  0.00     0.035 H 
ATOM     22  H19 745 d   1      26.103  15.015  33.935  0.00  0.00     0.035 H 
ATOM     23  H11 745 d   1      23.362  13.752  33.699  0.00  0.00     0.048 H 
BRANCH  18  24
ATOM     24  C25 745 d   1      25.945  14.178  31.190  0.00  0.00    -0.053 C 
ATOM     25  C26 745 d   1      26.797  14.792  30.210  0.00  0.00    -0.076 C 
ATOM     26  C27 745 d   1      27.516  13.946  29.303  0.00  0.00    -0.082 C 
ATOM     27  H13 745 d   1      26.894  15.870  30.157  0.00  0.00     0.084 H 
ATOM     28  C28 745 d   1      27.408  12.550  29.406  0.00  0.00    -0.083 C 
ATOM     29  H14 745 d   1      28.144  14.385  28.536  0.00  0.00     0.083 H 
ATOM     30  C29 745 d   1      26.810  11.972  30.518  0.00  0.00    -0.082 C 
ATOM     31  H15 745 d   1      27.794  11.920  28.613  0.00  0.00     0.083 H 
ATOM     32  C30 745 d   1      26.097  12.782  31.388  0.00  0.00    -0.076 C 
ATOM     33  H16 745 d   1      26.899  10.908  30.702  0.00  0.00     0.083 H 
ATOM     34  H17 745 d   1      25.635  12.329  32.258  0.00  0.00     0.084 H 
ENDBRANCH  18  24
ENDBRANCH   1  17
BRANCH   9  35
ATOM     35  C17 745 d   1      18.071  20.010  34.005  0.00  0.00     0.102 C 
ATOM     36  N19 745 d   1      18.478  21.258  34.230  0.00  0.00    -0.385 N 
ATOM     37  H9  745 d   1      19.485  21.473  34.263  0.00  0.00     0.157 HD
ATOM     38  H10 745 d   1      17.786  22.008  34.371  0.00  0.00     0.157 HD
BRANCH  35  39
ATOM     39  N18 745 d   1      16.793  19.792  33.973  0.00  0.00    -0.385 N 
ATOM     40  H7  745 d   1      16.136  20.547  34.217  0.00  0.00     0.157 HD
ATOM     41  H8  745 d   1      16.435  18.864  33.704  0.00  0.00     0.157 HD
ENDBRANCH  35  39
ENDBRANCH   9  35
TORSDOF 4
