REMARK WARNING: 32 MAX_TORS EXCEEDED!!!
REMARK  62 active torsions:
REMARK  status: ('A' for Active; 'I' for Inactive)
REMARK    1  A    between atoms: N_1  and  CA_2 
REMARK    2  A    between atoms: CA_2  and  C_3 
REMARK    3  A    between atoms: CA_2  and  CB_5 
REMARK       I    between atoms: C_3  and  N_7 
REMARK    4  A    between atoms: CB_5  and  OG_6 
REMARK    5  A    between atoms: N_7  and  CA_8 
REMARK    6  A    between atoms: CA_8  and  C_9 
REMARK    7  A    between atoms: CA_8  and  CB_11 
REMARK       I    between atoms: C_9  and  N_15 
REMARK    8  A    between atoms: CB_11  and  CG1_12 
REMARK    9  A    between atoms: CB_11  and  CG2_13 
REMARK   10  A    between atoms: CG1_12  and  CD1_14 
REMARK   11  A    between atoms: N_15  and  CA_16 
REMARK   12  A    between atoms: CA_16  and  C_17 
REMARK   13  A    between atoms: CA_16  and  CB_19 
REMARK       I    between atoms: C_17  and  N_23 
REMARK   14  A    between atoms: CB_19  and  CG_20 
REMARK   15  A    between atoms: CG_20  and  CD1_21 
REMARK   16  A    between atoms: CG_20  and  CD2_22 
REMARK   17  A    between atoms: N_23  and  CA_24 
REMARK   18  A    between atoms: CA_24  and  C_25 
REMARK   19  A    between atoms: CA_24  and  CB_27 
REMARK       I    between atoms: C_25  and  N_29 
REMARK   20  A    between atoms: CB_27  and  OG_28 
REMARK   21  A    between atoms: N_29  and  CA_30 
REMARK   22  A    between atoms: CA_30  and  C_31 
REMARK   23  A    between atoms: CA_30  and  CB_33 
REMARK       I    between atoms: C_31  and  N_38 
REMARK   24  A    between atoms: CB_33  and  CG_34 
REMARK   25  A    between atoms: CG_34  and  CD_35 
REMARK       I    between atoms: CD_35  and  NE2_37 
REMARK   26  A    between atoms: N_38  and  CA_39 
REMARK   27  A    between atoms: CA_39  and  C_40 
REMARK   28  A    between atoms: CA_39  and  CB_42 
REMARK       I    between atoms: C_40  and  N_43 
REMARK   29  A    between atoms: N_43  and  CA_44 
REMARK   30  A    between atoms: CA_44  and  C_45 
REMARK   31  A    between atoms: CA_44  and  CB_47 
REMARK       I    between atoms: C_45  and  N_52 
REMARK   32  A    between atoms: CB_47  and  CG_48 
REMARK   33  A    between atoms: CG_48  and  CD_49 
REMARK   34  A    between atoms: N_52  and  CA_53 
REMARK   35  A    between atoms: CA_53  and  C_54 
REMARK   36  A    between atoms: CA_53  and  CB_56 
REMARK       I    between atoms: C_54  and  N_60 
REMARK   37  A    between atoms: CB_56  and  CG1_57 
REMARK   38  A    between atoms: CB_56  and  CG2_58 
REMARK   39  A    between atoms: CG1_57  and  CD1_59 
REMARK   40  A    between atoms: N_60  and  CA_61 
REMARK   41  A    between atoms: CA_61  and  C_62 
REMARK   42  A    between atoms: CA_61  and  CB_64 
REMARK       I    between atoms: C_62  and  N_68 
REMARK   43  A    between atoms: CB_64  and  CG_65 
REMARK   44  A    between atoms: N_68  and  CA_69 
REMARK   45  A    between atoms: CA_69  and  C_70 
REMARK   46  A    between atoms: CA_69  and  CB_72 
REMARK       I    between atoms: C_70  and  N_73 
REMARK   47  A    between atoms: N_73  and  CA_74 
REMARK   48  A    between atoms: CA_74  and  C_75 
REMARK   49  A    between atoms: CA_74  and  CB_77 
REMARK       I    between atoms: C_75  and  N_81 
REMARK   50  A    between atoms: CB_77  and  CG_78 
REMARK   51  A    between atoms: CG_78  and  CD1_79 
REMARK   52  A    between atoms: CG_78  and  CD2_80 
REMARK   53  A    between atoms: N_81  and  CA_82 
REMARK   54  A    between atoms: CA_82  and  C_83 
REMARK   55  A    between atoms: CA_82  and  CB_85 
REMARK       I    between atoms: C_83  and  N_89 
REMARK   56  A    between atoms: CB_85  and  CG_86 
REMARK   57  A    between atoms: CG_86  and  CD1_87 
REMARK   58  A    between atoms: CG_86  and  CD2_88 
REMARK   59  A    between atoms: N_89  and  CA_90 
REMARK   60  A    between atoms: CA_90  and  C_91 
REMARK   61  A    between atoms: CA_90  and  CB_93 
REMARK   62  A    between atoms: CB_93  and  CG_94 
REMARK       I    between atoms: CG_94  and  ND2_96 
ROOT
ATOM      1  CA  GLU d   1      20.258  13.589  29.103  0.00  0.00     0.090 C 
ATOM      2  H49 GLU d   1      20.251  12.763  28.376  0.00  0.00     0.087 H 
ENDROOT
BRANCH   1   3
ATOM      3  N   GLU d   1      19.532  14.693  28.518  0.00  0.00    -0.346 N 
ATOM      4  C   ALA d   1      18.274  14.527  28.123  0.00  0.00     0.240 C 
ATOM      5  O   ALA d   1      17.689  13.448  28.220  0.00  0.00    -0.271 OA
ATOM      6  H48 GLU d   1      19.976  15.582  28.410  0.00  0.00     0.163 HD
BRANCH   4   7
ATOM      7  CA  ALA d   1      17.591  15.755  27.539  0.00  0.00     0.086 C 
ATOM      8  H44 ALA d   1      16.518  15.536  27.434  0.00  0.00     0.086 H 
BRANCH   7   9
ATOM      9  N   ALA d   1      17.741  16.899  28.421  0.00  0.00    -0.346 N 
ATOM     10  C   GLN d   1      17.336  16.886  29.691  0.00  0.00     0.241 C 
ATOM     11  O   GLN d   1      16.796  15.913  30.222  0.00  0.00    -0.271 OA
ATOM     12  H43 ALA d   1      18.165  17.730  28.061  0.00  0.00     0.163 HD
BRANCH  10  13
ATOM     13  CA  GLN d   1      17.598  18.174  30.458  0.00  0.00     0.090 C 
ATOM     14  H36 GLN d   1      17.513  17.957  31.533  0.00  0.00     0.087 H 
BRANCH  13  15
ATOM     15  N   GLN d   1      18.945  18.638  30.203  0.00  0.00    -0.346 N 
ATOM     16  C   SER d   1      19.963  17.801  30.344  0.00  0.00     0.243 C 
ATOM     17  O   SER d   1      19.810  16.632  30.692  0.00  0.00    -0.271 OA
ATOM     18  H35 GLN d   1      19.107  19.584  29.922  0.00  0.00     0.163 HD
BRANCH  16  19
ATOM     19  CA  SER d   1      21.350  18.340  30.036  0.00  0.00     0.109 C 
ATOM     20  H31 SER d   1      21.462  19.347  30.463  0.00  0.00     0.090 H 
BRANCH  19  21
ATOM     21  N   SER d   1      22.337  17.456  30.618  0.00  0.00    -0.344 N 
ATOM     22  C   LEU d   1      22.709  17.572  31.885  0.00  0.00     0.241 C 
ATOM     23  O   LEU d   1      22.263  18.437  32.640  0.00  0.00    -0.271 OA
ATOM     24  H30 SER d   1      22.748  16.741  30.052  0.00  0.00     0.163 HD
BRANCH  22  25
ATOM     25  CA  LEU d   1      23.734  16.567  32.378  0.00  0.00     0.089 C 
ATOM     26  H20 LEU d   1      24.319  16.194  31.525  0.00  0.00     0.087 H 
BRANCH  25  27
ATOM     27  N   LEU d   1      24.633  17.234  33.299  0.00  0.00    -0.346 N 
ATOM     28  C   ILE d   1      25.818  17.689  32.906  0.00  0.00     0.241 C 
ATOM     29  O   ILE d   1      26.240  17.561  31.755  0.00  0.00    -0.271 OA
ATOM     30  H19 LEU d   1      24.355  17.355  34.252  0.00  0.00     0.163 HD
BRANCH  28  31
ATOM     31  CA  ILE d   1      26.626  18.420  33.963  0.00  0.00     0.092 C 
ATOM     32  H9  ILE d   1      26.099  18.308  34.922  0.00  0.00     0.088 H 
BRANCH  31  33
ATOM     33  N   ILE d   1      27.952  17.873  34.140  0.00  0.00    -0.346 N 
ATOM     34  C   SER d   1      28.156  16.720  34.761  0.00  0.00     0.251 C 
ATOM     35  O   SER d   1      27.249  16.032  35.214  0.00  0.00    -0.271 OA
ATOM     36  H8  ILE d   1      28.738  18.379  33.784  0.00  0.00     0.163 HD
BRANCH  34  37
ATOM     37  CA  SER d   1      29.606  16.291  34.876  0.00  0.00     0.195 C 
ATOM     38  H4  SER d   1      30.215  17.040  34.349  0.00  0.00     0.102 H 
BRANCH  37  39
ATOM     39  N   SER d   1      30.051  16.279  36.256  0.00  0.00    -0.064 N 
ATOM     40  H1  SER d   1      31.016  15.990  36.295  0.00  0.00     0.275 HD
ATOM     41  H2  SER d   1      29.485  15.634  36.786  0.00  0.00     0.275 HD
ATOM     42  H3  SER d   1      29.961  17.204  36.646  0.00  0.00     0.275 HD
ENDBRANCH  37  39
BRANCH  37  43
ATOM     43  CB  SER d   1      29.823  14.956  34.172  0.00  0.00     0.051 C 
ATOM     44  H5  SER d   1      29.385  15.005  33.164  0.00  0.00     0.077 H 
ATOM     45  H6  SER d   1      29.328  14.161  34.748  0.00  0.00     0.077 H 
BRANCH  43  46
ATOM     46  OG  SER d   1      31.201  14.658  34.063  0.00  0.00    -0.398 OA
ATOM     47  H7  SER d   1      31.309  13.824  33.622  0.00  0.00     0.209 HD
ENDBRANCH  43  46
ENDBRANCH  37  43
ENDBRANCH  34  37
ENDBRANCH  31  33
BRANCH  31  48
ATOM     48  CB  ILE d   1      26.664  19.913  33.618  0.00  0.00    -0.030 C 
ATOM     49  H10 ILE d   1      27.332  20.048  32.754  0.00  0.00     0.043 H 
BRANCH  48  50
ATOM     50  CG1 ILE d   1      27.205  20.743  34.773  0.00  0.00    -0.063 C 
ATOM     51  H11 ILE d   1      28.114  20.258  35.158  0.00  0.00     0.033 H 
ATOM     52  H12 ILE d   1      26.444  20.779  35.566  0.00  0.00     0.033 H 
BRANCH  50  53
ATOM     53  CD1 ILE d   1      27.551  22.174  34.364  0.00  0.00    -0.076 C 
ATOM     54  H16 ILE d   1      27.935  22.722  35.237  0.00  0.00     0.027 H 
ATOM     55  H17 ILE d   1      26.648  22.675  33.984  0.00  0.00     0.027 H 
ATOM     56  H18 ILE d   1      28.319  22.155  33.576  0.00  0.00     0.027 H 
ENDBRANCH  50  53
ENDBRANCH  48  50
BRANCH  48  57
ATOM     57  CG2 ILE d   1      25.271  20.408  33.235  0.00  0.00    -0.071 C 
ATOM     58  H13 ILE d   1      24.884  19.805  32.400  0.00  0.00     0.028 H 
ATOM     59  H14 ILE d   1      25.328  21.463  32.930  0.00  0.00     0.028 H 
ATOM     60  H15 ILE d   1      24.597  20.312  34.099  0.00  0.00     0.028 H 
ENDBRANCH  48  57
ENDBRANCH  31  48
ENDBRANCH  28  31
ENDBRANCH  25  27
BRANCH  25  61
ATOM     61  CB  LEU d   1      22.995  15.380  33.022  0.00  0.00    -0.035 C 
ATOM     62  H21 LEU d   1      22.030  15.254  32.510  0.00  0.00     0.037 H 
ATOM     63  H22 LEU d   1      22.820  15.615  34.082  0.00  0.00     0.037 H 
BRANCH  61  64
ATOM     64  CG  LEU d   1      23.752  14.067  32.943  0.00  0.00    -0.059 C 
ATOM     65  H23 LEU d   1      23.929  13.810  31.888  0.00  0.00     0.038 H 
BRANCH  64  66
ATOM     66  CD1 LEU d   1      25.087  14.221  33.655  0.00  0.00    -0.073 C 
ATOM     67  H24 LEU d   1      25.642  13.273  33.602  0.00  0.00     0.028 H 
ATOM     68  H25 LEU d   1      24.912  14.485  34.708  0.00  0.00     0.028 H 
ATOM     69  H26 LEU d   1      25.672  15.016  33.169  0.00  0.00     0.028 H 
ENDBRANCH  64  66
BRANCH  64  70
ATOM     70  CD2 LEU d   1      22.934  12.961  33.598  0.00  0.00    -0.073 C 
ATOM     71  H27 LEU d   1      21.971  12.858  33.075  0.00  0.00     0.028 H 
ATOM     72  H28 LEU d   1      22.753  13.214  34.653  0.00  0.00     0.028 H 
ATOM     73  H29 LEU d   1      23.487  12.012  33.538  0.00  0.00     0.028 H 
ENDBRANCH  64  70
ENDBRANCH  61  64
ENDBRANCH  25  61
ENDBRANCH  22  25
ENDBRANCH  19  21
BRANCH  19  74
ATOM     74  CB  SER d   1      21.523  18.406  28.531  0.00  0.00     0.044 C 
ATOM     75  H32 SER d   1      22.572  18.632  28.288  0.00  0.00     0.077 H 
ATOM     76  H33 SER d   1      20.873  19.191  28.117  0.00  0.00     0.077 H 
BRANCH  74  77
ATOM     77  OG  SER d   1      21.166  17.153  27.981  0.00  0.00    -0.398 OA
ATOM     78  H34 SER d   1      21.270  17.181  27.037  0.00  0.00     0.209 HD
ENDBRANCH  74  77
ENDBRANCH  19  74
ENDBRANCH  16  19
ENDBRANCH  13  15
BRANCH  13  79
ATOM     79  CB  GLN d   1      16.542  19.241  30.109  0.00  0.00    -0.030 C 
ATOM     80  H37 GLN d   1      16.587  19.439  29.028  0.00  0.00     0.037 H 
ATOM     81  H38 GLN d   1      16.779  20.163  30.661  0.00  0.00     0.037 H 
BRANCH  79  82
ATOM     82  CG  GLN d   1      15.109  18.808  30.469  0.00  0.00     0.011 C 
ATOM     83  H39 GLN d   1      14.914  17.823  30.020  0.00  0.00     0.047 H 
ATOM     84  H40 GLN d   1      14.403  19.545  30.058  0.00  0.00     0.047 H 
BRANCH  82  85
ATOM     85  CD  GLN d   1      14.895  18.711  31.969  0.00  0.00     0.215 C 
ATOM     86  OE1 GLN d   1      15.045  19.703  32.694  0.00  0.00    -0.274 OA
ATOM     87  NE2 GLN d   1      14.560  17.512  32.444  0.00  0.00    -0.370 N 
ATOM     88  H41 GLN d   1      14.406  17.388  33.424  0.00  0.00     0.159 HD
ATOM     89  H42 GLN d   1      14.462  16.736  31.820  0.00  0.00     0.159 HD
ENDBRANCH  82  85
ENDBRANCH  79  82
ENDBRANCH  13  79
ENDBRANCH  10  13
ENDBRANCH   7   9
BRANCH   7  90
ATOM     90  CB  ALA d   1      18.152  16.079  26.164  0.00  0.00    -0.049 C 
ATOM     91  H45 ALA d   1      18.033  15.207  25.505  0.00  0.00     0.030 H 
ATOM     92  H46 ALA d   1      19.220  16.329  26.253  0.00  0.00     0.030 H 
ATOM     93  H47 ALA d   1      17.609  16.936  25.739  0.00  0.00     0.030 H 
ENDBRANCH   7  90
ENDBRANCH   4   7
ENDBRANCH   1   3
BRANCH   1  94
ATOM     94  C   GLU d   1      19.567  13.102  30.369  0.00  0.00     0.241 C 
ATOM     95  O   GLU d   1      19.302  11.912  30.535  0.00  0.00    -0.271 OA
ATOM     96  N   ILE d   1      19.269  14.036  31.270  0.00  0.00    -0.346 N 
ATOM     97  H54 ILE d   1      19.509  14.990  31.089  0.00  0.00     0.163 HD
BRANCH  96  98
ATOM     98  CA  ILE d   1      18.599  13.689  32.516  0.00  0.00     0.092 C 
ATOM     99  H55 ILE d   1      19.261  13.027  33.094  0.00  0.00     0.088 H 
BRANCH  98 100
ATOM    100  C   ILE d   1      17.305  12.958  32.224  0.00  0.00     0.241 C 
ATOM    101  O   ILE d   1      16.933  12.005  32.908  0.00  0.00    -0.271 OA
ATOM    102  N   ASP d   1      16.625  13.446  31.193  0.00  0.00    -0.345 N 
ATOM    103  H65 ASP d   1      16.995  14.233  30.700  0.00  0.00     0.163 HD
BRANCH 102 104
ATOM    104  CA  ASP d   1      15.372  12.881  30.759  0.00  0.00     0.098 C 
ATOM    105  H66 ASP d   1      14.627  13.054  31.549  0.00  0.00     0.088 H 
BRANCH 104 106
ATOM    106  C   ASP d   1      15.496  11.376  30.549  0.00  0.00     0.241 C 
ATOM    107  O   ASP d   1      14.585  10.614  30.859  0.00  0.00    -0.271 OA
ATOM    108  N   ALA d   1      16.650  10.960  30.029  0.00  0.00    -0.346 N 
ATOM    109  H69 ALA d   1      17.353  11.641  29.824  0.00  0.00     0.163 HD
BRANCH 108 110
ATOM    110  CA  ALA d   1      16.936   9.564  29.746  0.00  0.00     0.086 C 
ATOM    111  H70 ALA d   1      16.091   9.191  29.148  0.00  0.00     0.086 H 
BRANCH 110 112
ATOM    112  C   ALA d   1      17.030   8.661  30.967  0.00  0.00     0.240 C 
ATOM    113  O   ALA d   1      17.011   7.441  30.830  0.00  0.00    -0.271 OA
ATOM    114  N   LEU d   1      17.137   9.236  32.163  0.00  0.00    -0.346 N 
ATOM    115  H74 LEU d   1      17.143  10.233  32.242  0.00  0.00     0.163 HD
BRANCH 114 116
ATOM    116  CA  LEU d   1      17.245   8.410  33.353  0.00  0.00     0.089 C 
ATOM    117  H75 LEU d   1      17.014   7.384  33.031  0.00  0.00     0.087 H 
BRANCH 116 118
ATOM    118  C   LEU d   1      16.273   8.744  34.471  0.00  0.00     0.241 C 
ATOM    119  O   LEU d   1      16.077   7.937  35.376  0.00  0.00    -0.271 OA
ATOM    120  N   LEU d   1      15.684   9.932  34.432  0.00  0.00    -0.346 N 
ATOM    121  H85 LEU d   1      15.870  10.555  33.672  0.00  0.00     0.163 HD
BRANCH 120 122
ATOM    122  CA  LEU d   1      14.770  10.332  35.488  0.00  0.00     0.089 C 
ATOM    123  H86 LEU d   1      14.628   9.449  36.128  0.00  0.00     0.087 H 
BRANCH 122 124
ATOM    124  C   LEU d   1      13.384  10.755  35.016  0.00  0.00     0.241 C 
ATOM    125  O   LEU d   1      12.441  10.797  35.804  0.00  0.00    -0.271 OA
ATOM    126  N   ASN d   1      13.253  11.080  33.734  0.00  0.00    -0.344 N 
ATOM    127  H96 ASN d   1      14.043  11.024  33.123  0.00  0.00     0.163 HD
BRANCH 126 128
ATOM    128  CA  ASN d   1      11.969  11.515  33.217  0.00  0.00     0.104 C 
ATOM    129  H97 ASN d   1      11.257  11.447  34.053  0.00  0.00     0.090 H 
BRANCH 128 130
ATOM    130  C   ASN d   1      11.418  10.631  32.108  0.00  0.00     0.197 C 
ATOM    131  O   ASN d   1      10.588  11.132  31.320  0.00  0.00    -0.646 OA
ATOM    132  OXT ASN d   1      11.813   9.446  32.045  0.00  0.00    -0.646 OA
ENDBRANCH 128 130
BRANCH 128 133
ATOM    133  CB  ASN d   1      12.013  12.990  32.782  0.00  0.00     0.037 C 
ATOM    134  H98 ASN d   1      10.983  13.341  32.618  0.00  0.00     0.051 H 
ATOM    135  H99 ASN d   1      12.580  13.064  31.842  0.00  0.00     0.051 H 
BRANCH 133 136
ATOM    136  CG  ASN d   1      12.669  13.878  33.816  0.00  0.00     0.217 C 
ATOM    137  OD1 ASN d   1      12.565  13.629  35.026  0.00  0.00    -0.274 OA
ATOM    138  ND2 ASN d   1      13.357  14.911  33.342  0.00  0.00    -0.370 N 
ATOM    139 0H10 ASN d   1      13.816  15.538  33.972  0.00  0.00     0.159 HD
ATOM    140 1H10 ASN d   1      13.416  15.062  32.355  0.00  0.00     0.159 HD
ENDBRANCH 133 136
ENDBRANCH 128 133
ENDBRANCH 126 128
ENDBRANCH 122 124
BRANCH 122 141
ATOM    141  CB  LEU d   1      15.391  11.439  36.361  0.00  0.00    -0.035 C 
ATOM    142  H87 LEU d   1      14.829  12.370  36.197  0.00  0.00     0.037 H 
ATOM    143  H88 LEU d   1      16.437  11.583  36.051  0.00  0.00     0.037 H 
BRANCH 141 144
ATOM    144  CG  LEU d   1      15.367  11.115  37.847  0.00  0.00    -0.059 C 
ATOM    145  H89 LEU d   1      15.610  10.051  37.986  0.00  0.00     0.038 H 
BRANCH 144 146
ATOM    146  CD1 LEU d   1      16.405  11.959  38.572  0.00  0.00    -0.073 C 
ATOM    147  H90 LEU d   1      16.385  11.722  39.646  0.00  0.00     0.028 H 
ATOM    148  H91 LEU d   1      16.177  13.025  38.427  0.00  0.00     0.028 H 
ATOM    149  H92 LEU d   1      17.404  11.740  38.167  0.00  0.00     0.028 H 
ENDBRANCH 144 146
BRANCH 144 150
ATOM    150  CD2 LEU d   1      13.981  11.385  38.421  0.00  0.00    -0.073 C 
ATOM    151  H93 LEU d   1      13.239  10.771  37.891  0.00  0.00     0.028 H 
ATOM    152  H94 LEU d   1      13.733  12.449  38.296  0.00  0.00     0.028 H 
ATOM    153  H95 LEU d   1      13.971  11.130  39.491  0.00  0.00     0.028 H 
ENDBRANCH 144 150
ENDBRANCH 141 144
ENDBRANCH 122 141
ENDBRANCH 120 122
ENDBRANCH 116 118
BRANCH 116 154
ATOM    154  CB  LEU d   1      18.673   8.399  33.923  0.00  0.00    -0.035 C 
ATOM    155  H76 LEU d   1      18.801   7.484  34.520  0.00  0.00     0.037 H 
ATOM    156  H77 LEU d   1      18.794   9.280  34.571  0.00  0.00     0.037 H 
BRANCH 154 157
ATOM    157  CG  LEU d   1      19.762   8.433  32.859  0.00  0.00    -0.059 C 
ATOM    158  H78 LEU d   1      19.302   8.588  31.872  0.00  0.00     0.038 H 
BRANCH 157 159
ATOM    159  CD1 LEU d   1      20.723   9.577  33.155  0.00  0.00    -0.073 C 
ATOM    160  H79 LEU d   1      21.510   9.603  32.387  0.00  0.00     0.028 H 
ATOM    161  H80 LEU d   1      21.180   9.425  34.144  0.00  0.00     0.028 H 
ATOM    162  H81 LEU d   1      20.173  10.529  33.148  0.00  0.00     0.028 H 
ENDBRANCH 157 159
BRANCH 157 163
ATOM    163  CD2 LEU d   1      20.524   7.113  32.858  0.00  0.00    -0.073 C 
ATOM    164  H82 LEU d   1      19.828   6.288  32.644  0.00  0.00     0.028 H 
ATOM    165  H83 LEU d   1      20.987   6.956  33.843  0.00  0.00     0.028 H 
ATOM    166  H84 LEU d   1      21.307   7.142  32.086  0.00  0.00     0.028 H 
ENDBRANCH 157 163
ENDBRANCH 154 157
ENDBRANCH 116 154
ENDBRANCH 114 116
ENDBRANCH 110 112
BRANCH 110 167
ATOM    167  CB  ALA d   1      18.186   9.431  28.892  0.00  0.00    -0.049 C 
ATOM    168  H71 ALA d   1      18.382   8.367  28.692  0.00  0.00     0.030 H 
ATOM    169  H72 ALA d   1      19.043   9.867  29.426  0.00  0.00     0.030 H 
ATOM    170  H73 ALA d   1      18.038   9.962  27.940  0.00  0.00     0.030 H 
ENDBRANCH 110 167
ENDBRANCH 108 110
ENDBRANCH 104 106
BRANCH 104 171
ATOM    171  CB  ASP d   1      14.881  13.580  29.477  0.00  0.00     0.043 C 
ATOM    172  H67 ASP d   1      14.164  12.916  28.971  0.00  0.00     0.052 H 
ATOM    173  H68 ASP d   1      15.747  13.752  28.821  0.00  0.00     0.052 H 
BRANCH 171 174
ATOM    174  CG  ASP d   1      14.207  14.902  29.733  0.00  0.00     0.175 C 
ATOM    175  OD1 ASP d   1      14.007  15.359  30.842  0.00  0.00    -0.648 OA
ATOM    176  OD2 ASP d   1      13.844  15.506  28.634  0.00  0.00    -0.648 OA
ENDBRANCH 171 174
ENDBRANCH 104 171
ENDBRANCH 102 104
ENDBRANCH  98 100
BRANCH  98 177
ATOM    177  CB  ILE d   1      18.293  14.923  33.355  0.00  0.00    -0.030 C 
ATOM    178  H56 ILE d   1      17.878  15.701  32.697  0.00  0.00     0.043 H 
BRANCH 177 179
ATOM    179  CG1 ILE d   1      19.565  15.454  33.992  0.00  0.00    -0.063 C 
ATOM    180  H57 ILE d   1      20.386  15.376  33.264  0.00  0.00     0.033 H 
ATOM    181  H58 ILE d   1      19.800  14.844  34.876  0.00  0.00     0.033 H 
BRANCH 179 182
ATOM    182  CD1 ILE d   1      19.427  16.908  34.422  0.00  0.00    -0.076 C 
ATOM    183  H62 ILE d   1      20.370  17.247  34.876  0.00  0.00     0.027 H 
ATOM    184  H63 ILE d   1      18.613  16.997  35.157  0.00  0.00     0.027 H 
ATOM    185  H64 ILE d   1      19.198  17.530  33.544  0.00  0.00     0.027 H 
ENDBRANCH 179 182
ENDBRANCH 177 179
BRANCH 177 186
ATOM    186  CG2 ILE d   1      17.262  14.592  34.428  0.00  0.00    -0.071 C 
ATOM    187  H59 ILE d   1      16.347  14.209  33.952  0.00  0.00     0.028 H 
ATOM    188  H60 ILE d   1      17.024  15.501  35.001  0.00  0.00     0.028 H 
ATOM    189  H61 ILE d   1      17.670  13.828  35.105  0.00  0.00     0.028 H 
ENDBRANCH 177 186
ENDBRANCH  98 177
ENDBRANCH  96  98
ENDBRANCH   1  94
BRANCH   1 190
ATOM    190  CB  GLU d   1      21.727  13.950  29.383  0.00  0.00    -0.029 C 
ATOM    191  H50 GLU d   1      22.085  13.337  30.223  0.00  0.00     0.037 H 
ATOM    192  H51 GLU d   1      21.781  15.014  29.656  0.00  0.00     0.037 H 
BRANCH 190 193
ATOM    193  CG  GLU d   1      22.645  13.707  28.171  0.00  0.00     0.018 C 
ATOM    194  H52 GLU d   1      22.020  13.603  27.272  0.00  0.00     0.049 H 
ATOM    195  H53 GLU d   1      23.207  12.776  28.337  0.00  0.00     0.049 H 
BRANCH 193 196
ATOM    196  CD  GLU d   1      23.622  14.825  27.950  0.00  0.00     0.172 C 
ATOM    197  OE1 GLU d   1      23.956  15.217  26.847  0.00  0.00    -0.648 OA
ATOM    198  OE2 GLU d   1      24.063  15.336  29.071  0.00  0.00    -0.648 OA
ENDBRANCH 193 196
ENDBRANCH 190 193
ENDBRANCH   1 190
TORSDOF 62
