REMARK  2 active torsions:
REMARK  status: ('A' for Active; 'I' for Inactive)
REMARK    1  A    between atoms: C6_6  and  O23_16 
REMARK    2  A    between atoms: C16_13  and  O24_17 
ROOT
ATOM      1  C1  397 d   1      32.110  36.926  35.365  0.00  0.00    -0.048 A 
ATOM      2  C2  397 d   1      30.743  37.051  35.740  0.00  0.00    -0.047 A 
ATOM      3  C3  397 d   1      30.312  36.634  37.006  0.00  0.00     0.086 A 
ATOM      4  C4  397 d   1      31.272  36.061  37.935  0.00  0.00     0.003 A 
ATOM      5  C5  397 d   1      32.615  35.941  37.562  0.00  0.00    -0.038 A 
ATOM      6  C6  397 d   1      33.041  36.368  36.277  0.00  0.00     0.066 A 
ATOM      7  O10 397 d   1      29.075  36.656  37.580  0.00  0.00    -0.309 OA
ATOM      8  C11 397 d   1      29.214  36.131  38.826  0.00  0.00     0.087 A 
ATOM      9  C12 397 d   1      30.564  35.721  39.154  0.00  0.00    -0.037 A 
ATOM     10  C13 397 d   1      28.066  36.051  39.653  0.00  0.00    -0.002 A 
ATOM     11  C14 397 d   1      26.752  36.400  39.160  0.00  0.00    -0.068 A 
ATOM     12  C15 397 d   1      25.598  36.337  39.975  0.00  0.00    -0.050 A 
ATOM     13  C16 397 d   1      25.707  35.925  41.320  0.00  0.00     0.065 A 
ATOM     14  C17 397 d   1      26.971  35.572  41.853  0.00  0.00    -0.050 A 
ATOM     15  C18 397 d   1      28.122  35.636  41.039  0.00  0.00    -0.068 A 
ATOM     16  H1  397 d   1      32.438  37.256  34.386  0.00  0.00     0.087 H 
ATOM     17  H2  397 d   1      30.030  37.472  35.041  0.00  0.00     0.087 H 
ATOM     18  H3  397 d   1      33.333  35.520  38.257  0.00  0.00     0.089 H 
ATOM     19  H4  397 d   1      30.946  35.276  40.072  0.00  0.00     0.089 H 
ATOM     20  H5  397 d   1      26.648  36.721  38.130  0.00  0.00     0.085 H 
ATOM     21  H6  397 d   1      24.630  36.605  39.567  0.00  0.00     0.087 H 
ATOM     22  H7  397 d   1      27.054  35.253  42.886  0.00  0.00     0.087 H 
ATOM     23  H8  397 d   1      29.081  35.365  41.466  0.00  0.00     0.085 H 
ENDROOT
BRANCH   6  24
ATOM     24  O23 397 d   1      34.364  36.242  35.925  0.00  0.00    -0.361 OA
ATOM     25  H9  397 d   1      34.488  36.569  35.042  0.00  0.00     0.217 HD
ENDBRANCH   6  24
BRANCH  13  26
ATOM     26  O24 397 d   1      24.577  35.871  42.096  0.00  0.00    -0.361 OA
ATOM     27  H10 397 d   1      24.448  34.982  42.405  0.00  0.00     0.217 HD
ENDBRANCH  13  26
TORSDOF 2
