REMARK WARNING: 32 MAX_TORS EXCEEDED!!!
REMARK  33 active torsions:
REMARK  status: ('A' for Active; 'I' for Inactive)
REMARK    1  A    between atoms: N_1  and  CA_2 
REMARK    2  A    between atoms: CA_2  and  C_3 
REMARK    3  A    between atoms: CA_2  and  CB_5 
REMARK       I    between atoms: C_3  and  N_9 
REMARK    4  A    between atoms: CB_5  and  CG_6 
REMARK       I    between atoms: CG_6  and  ND2_8 
REMARK    5  A    between atoms: N_9  and  CA_10 
REMARK    6  A    between atoms: CA_10  and  C_11 
REMARK    7  A    between atoms: CA_10  and  CB_13 
REMARK       I    between atoms: C_11  and  N_20 
REMARK    8  A    between atoms: CB_13  and  CG_14 
REMARK    9  A    between atoms: CG_14  and  CD_15 
REMARK   10  A    between atoms: CD_15  and  NE_16 
REMARK       I    between atoms: NE_16  and  CZ_17 
REMARK       I    between atoms: CZ_17  and  NH1_18 
REMARK   11  A    between atoms: CA_21  and  C_22 
REMARK       I    between atoms: C_22  and  N_27 
REMARK   12  A    between atoms: N_27  and  CA_28 
REMARK   13  A    between atoms: CA_28  and  C_29 
REMARK   14  A    between atoms: CA_28  and  CB_31 
REMARK       I    between atoms: C_29  and  N_35 
REMARK   15  A    between atoms: CB_31  and  CG1_32 
REMARK   16  A    between atoms: CB_31  and  CG2_33 
REMARK   17  A    between atoms: CG1_32  and  CD1_34 
REMARK   18  A    between atoms: N_35  and  CA_36 
REMARK   19  A    between atoms: CA_36  and  C_37 
REMARK   20  A    between atoms: CA_36  and  CB_39 
REMARK       I    between atoms: C_37  and  N_43 
REMARK   21  A    between atoms: CB_39  and  CG_40 
REMARK   22  A    between atoms: CG_40  and  CD1_41 
REMARK   23  A    between atoms: CG_40  and  CD2_42 
REMARK   24  A    between atoms: N_43  and  CA_44 
REMARK   25  A    between atoms: CA_44  and  C_45 
REMARK   26  A    between atoms: CA_44  and  CB_47 
REMARK       I    between atoms: C_45  and  N_49 
REMARK   27  A    between atoms: CB_47  and  OG_48 
REMARK   28  A    between atoms: N_49  and  CA_50 
REMARK   29  A    between atoms: CA_50  and  C_51 
REMARK   30  A    between atoms: CA_50  and  CB_53 
REMARK   31  A    between atoms: CB_53  and  CG_54 
REMARK   32  A    between atoms: CG_54  and  CD1_55 
REMARK   33  A    between atoms: CG_54  and  CD2_56 
ROOT
ATOM      1  CA  ILE d   1      47.055  55.622  11.153  0.00  0.00     0.092 C 
ATOM      2  H30 ILE d   1      46.681  54.855  11.847  0.00  0.00     0.088 H 
ENDROOT
BRANCH   1   3
ATOM      3  N   ILE d   1      46.282  56.850  11.282  0.00  0.00    -0.346 N 
ATOM      4  C   PRO d   1      45.675  57.209  12.410  0.00  0.00     0.241 C 
ATOM      5  O   PRO d   1      45.678  56.518  13.433  0.00  0.00    -0.271 OA
ATOM      6  H29 ILE d   1      46.204  57.451  10.486  0.00  0.00     0.163 HD
BRANCH   4   7
ATOM      7  CA  PRO d   1      44.941  58.548  12.362  0.00  0.00     0.091 C 
ATOM      8  N   PRO d   1      43.731  58.603  13.186  0.00  0.00    -0.337 N 
ATOM      9  C   ARG d   1      42.675  57.845  12.871  0.00  0.00     0.243 C 
ATOM     10  CD  PRO d   1      43.868  59.591  14.270  0.00  0.00    -0.001 C 
ATOM     11  O   ARG d   1      42.682  57.098  11.895  0.00  0.00    -0.271 OA
ATOM     12  CG  PRO d   1      45.366  59.774  14.348  0.00  0.00    -0.048 C 
ATOM     13  H27 PRO d   1      43.464  59.203  15.217  0.00  0.00     0.064 H 
ATOM     14  H28 PRO d   1      43.364  60.535  14.015  0.00  0.00     0.064 H 
ATOM     15  CB  PRO d   1      45.790  59.695  12.913  0.00  0.00    -0.036 C 
ATOM     16  H25 PRO d   1      45.623  60.751  14.783  0.00  0.00     0.035 H 
ATOM     17  H26 PRO d   1      45.832  58.974  14.943  0.00  0.00     0.035 H 
ATOM     18  H23 PRO d   1      45.573  60.635  12.385  0.00  0.00     0.036 H 
ATOM     19  H24 PRO d   1      46.863  59.467  12.831  0.00  0.00     0.036 H 
ATOM     20  H22 PRO d   1      44.679  58.748  11.313  0.00  0.00     0.087 H 
BRANCH   9  21
ATOM     21  CA  ARG d   1      41.448  57.947  13.766  0.00  0.00     0.089 C 
ATOM     22  H10 ARG d   1      41.330  58.984  14.113  0.00  0.00     0.087 H 
BRANCH  21  23
ATOM     23  N   ARG d   1      40.283  57.560  12.985  0.00  0.00    -0.346 N 
ATOM     24  C   ASN d   1      39.783  58.380  12.067  0.00  0.00     0.249 C 
ATOM     25  O   ASN d   1      40.261  59.490  11.837  0.00  0.00    -0.271 OA
ATOM     26  H9  ARG d   1      39.855  56.670  13.140  0.00  0.00     0.163 HD
BRANCH  24  27
ATOM     27  CA  ASN d   1      38.570  57.878  11.293  0.00  0.00     0.183 C 
ATOM     28  H4  ASN d   1      38.120  57.031  11.832  0.00  0.00     0.099 H 
BRANCH  27  29
ATOM     29  N   ASN d   1      37.560  58.967  11.171  0.00  0.00    -0.066 N 
ATOM     30  H1  ASN d   1      36.761  58.628  10.658  0.00  0.00     0.275 HD
ATOM     31  H2  ASN d   1      37.966  59.749  10.682  0.00  0.00     0.275 HD
ATOM     32  H3  ASN d   1      37.270  59.260  12.091  0.00  0.00     0.275 HD
ENDBRANCH  27  29
BRANCH  27  33
ATOM     33  CB  ASN d   1      39.025  57.408   9.907  0.00  0.00     0.044 C 
ATOM     34  H5  ASN d   1      39.666  56.523  10.030  0.00  0.00     0.051 H 
ATOM     35  H6  ASN d   1      39.602  58.216   9.434  0.00  0.00     0.051 H 
BRANCH  33  36
ATOM     36  CG  ASN d   1      37.863  57.043   8.993  0.00  0.00     0.217 C 
ATOM     37  OD1 ASN d   1      38.068  56.531   7.893  0.00  0.00    -0.274 OA
ATOM     38  ND2 ASN d   1      36.640  57.312   9.442  0.00  0.00    -0.370 N 
ATOM     39  H7  ASN d   1      35.842  57.092   8.881  0.00  0.00     0.159 HD
ATOM     40  H8  ASN d   1      36.519  57.734  10.341  0.00  0.00     0.159 HD
ENDBRANCH  33  36
ENDBRANCH  27  33
ENDBRANCH  24  27
ENDBRANCH  21  23
BRANCH  21  41
ATOM     41  CB  ARG d   1      41.606  57.029  14.978  0.00  0.00    -0.036 C 
ATOM     42  H11 ARG d   1      40.702  57.114  15.598  0.00  0.00     0.036 H 
ATOM     43  H12 ARG d   1      42.480  57.364  15.556  0.00  0.00     0.036 H 
BRANCH  41  44
ATOM     44  CG  ARG d   1      41.801  55.580  14.617  0.00  0.00    -0.048 C 
ATOM     45  H13 ARG d   1      42.766  55.467  14.102  0.00  0.00     0.035 H 
ATOM     46  H14 ARG d   1      40.988  55.266  13.946  0.00  0.00     0.035 H 
BRANCH  44  47
ATOM     47  CD  ARG d   1      41.793  54.693  15.850  0.00  0.00     0.009 C 
ATOM     48  H15 ARG d   1      40.839  54.824  16.381  0.00  0.00     0.064 H 
ATOM     49  H16 ARG d   1      42.623  54.986  16.510  0.00  0.00     0.064 H 
BRANCH  47  50
ATOM     50  NE  ARG d   1      41.947  53.289  15.482  0.00  0.00    -0.227 N 
ATOM     51  CZ  ARG d   1      41.974  52.282  16.348  0.00  0.00     0.665 C 
ATOM     52  NH1 ARG d   1      42.118  51.039  15.909  0.00  0.00    -0.235 N 
ATOM     53  NH2 ARG d   1      41.859  52.517  17.647  0.00  0.00    -0.235 N 
ATOM     54  H18 ARG d   1      42.139  50.256  16.578  0.00  0.00     0.174 HD
ATOM     55  H19 ARG d   1      42.209  50.857  14.899  0.00  0.00     0.174 HD
ATOM     56  H20 ARG d   1      41.747  53.483  17.988  0.00  0.00     0.174 HD
ATOM     57  H21 ARG d   1      41.881  51.734  18.316  0.00  0.00     0.174 HD
ATOM     58  H17 ARG d   1      42.041  53.063  14.482  0.00  0.00     0.177 HD
ENDBRANCH  47  50
ENDBRANCH  44  47
ENDBRANCH  41  44
ENDBRANCH  21  41
ENDBRANCH   9  21
ENDBRANCH   4   7
ENDBRANCH   1   3
BRANCH   1  59
ATOM     59  C   ILE d   1      48.483  56.010  11.492  0.00  0.00     0.241 C 
ATOM     60  O   ILE d   1      49.101  56.811  10.789  0.00  0.00    -0.271 OA
ATOM     61  N   LEU d   1      49.009  55.433  12.565  0.00  0.00    -0.346 N 
ATOM     62  H40 LEU d   1      48.476  54.753  13.069  0.00  0.00     0.163 HD
BRANCH  61  63
ATOM     63  CA  LEU d   1      50.348  55.773  13.021  0.00  0.00     0.089 C 
ATOM     64  H41 LEU d   1      50.523  56.817  12.721  0.00  0.00     0.087 H 
BRANCH  63  65
ATOM     65  C   LEU d   1      51.506  54.960  12.454  0.00  0.00     0.241 C 
ATOM     66  O   LEU d   1      51.473  53.730  12.435  0.00  0.00    -0.271 OA
ATOM     67  N   SER d   1      52.529  55.672  11.990  0.00  0.00    -0.344 N 
ATOM     68  H51 SER d   1      52.467  56.670  12.004  0.00  0.00     0.163 HD
BRANCH  67  69
ATOM     69  CA  SER d   1      53.738  55.052  11.462  0.00  0.00     0.109 C 
ATOM     70  H52 SER d   1      53.574  53.981  11.270  0.00  0.00     0.090 H 
BRANCH  69  71
ATOM     71  C   SER d   1      54.784  55.257  12.553  0.00  0.00     0.243 C 
ATOM     72  O   SER d   1      54.557  56.028  13.486  0.00  0.00    -0.271 OA
ATOM     73  N   LEU d   1      55.919  54.574  12.444  0.00  0.00    -0.345 N 
ATOM     74  H56 LEU d   1      56.050  53.959  11.667  0.00  0.00     0.163 HD
BRANCH  73  75
ATOM     75  CA  LEU d   1      56.976  54.707  13.439  0.00  0.00     0.096 C 
ATOM     76  H57 LEU d   1      56.670  55.458  14.182  0.00  0.00     0.089 H 
BRANCH  75  77
ATOM     77  C   LEU d   1      58.278  55.167  12.784  0.00  0.00     0.196 C 
ATOM     78  O   LEU d   1      58.411  54.990  11.553  0.00  0.00    -0.646 OA
ATOM     79  OXT LEU d   1      59.153  55.689  13.506  0.00  0.00    -0.646 OA
ENDBRANCH  75  77
BRANCH  75  80
ATOM     80  CB  LEU d   1      57.189  53.366  14.148  0.00  0.00    -0.034 C 
ATOM     81  H58 LEU d   1      57.545  52.652  13.390  0.00  0.00     0.037 H 
ATOM     82  H59 LEU d   1      56.209  53.041  14.527  0.00  0.00     0.037 H 
BRANCH  80  83
ATOM     83  CG  LEU d   1      58.168  53.303  15.321  0.00  0.00    -0.059 C 
ATOM     84  H60 LEU d   1      59.160  53.637  14.983  0.00  0.00     0.038 H 
BRANCH  83  85
ATOM     85  CD1 LEU d   1      57.697  54.213  16.446  0.00  0.00    -0.073 C 
ATOM     86  H61 LEU d   1      58.408  54.159  17.283  0.00  0.00     0.028 H 
ATOM     87  H62 LEU d   1      56.703  53.889  16.788  0.00  0.00     0.028 H 
ATOM     88  H63 LEU d   1      57.639  55.249  16.080  0.00  0.00     0.028 H 
ENDBRANCH  83  85
BRANCH  83  89
ATOM     89  CD2 LEU d   1      58.264  51.871  15.809  0.00  0.00    -0.073 C 
ATOM     90  H64 LEU d   1      58.605  51.225  14.986  0.00  0.00     0.028 H 
ATOM     91  H65 LEU d   1      57.275  51.534  16.154  0.00  0.00     0.028 H 
ATOM     92  H66 LEU d   1      58.981  51.814  16.641  0.00  0.00     0.028 H 
ENDBRANCH  83  89
ENDBRANCH  80  83
ENDBRANCH  75  80
ENDBRANCH  73  75
ENDBRANCH  69  71
BRANCH  69  93
ATOM     93  CB  SER d   1      54.195  55.745  10.173  0.00  0.00     0.044 C 
ATOM     94  H53 SER d   1      55.168  55.331   9.871  0.00  0.00     0.077 H 
ATOM     95  H54 SER d   1      54.299  56.823  10.365  0.00  0.00     0.077 H 
BRANCH  93  96
ATOM     96  OG  SER d   1      53.267  55.554   9.118  0.00  0.00    -0.398 OA
ATOM     97  H55 SER d   1      52.425  55.914   9.370  0.00  0.00     0.209 HD
ENDBRANCH  93  96
ENDBRANCH  69  93
ENDBRANCH  67  69
ENDBRANCH  63  65
BRANCH  63  98
ATOM     98  CB  LEU d   1      50.390  55.705  14.545  0.00  0.00    -0.035 C 
ATOM     99  H42 LEU d   1      51.370  56.081  14.873  0.00  0.00     0.037 H 
ATOM    100  H43 LEU d   1      50.285  54.650  14.839  0.00  0.00     0.037 H 
BRANCH  98 101
ATOM    101  CG  LEU d   1      49.310  56.507  15.274  0.00  0.00    -0.059 C 
ATOM    102  H44 LEU d   1      48.320  56.165  14.938  0.00  0.00     0.038 H 
BRANCH 101 103
ATOM    103  CD1 LEU d   1      49.432  56.270  16.774  0.00  0.00    -0.073 C 
ATOM    104  H45 LEU d   1      48.656  56.846  17.300  0.00  0.00     0.028 H 
ATOM    105  H46 LEU d   1      50.425  56.594  17.117  0.00  0.00     0.028 H 
ATOM    106  H47 LEU d   1      49.302  55.199  16.988  0.00  0.00     0.028 H 
ENDBRANCH 101 103
BRANCH 101 107
ATOM    107  CD2 LEU d   1      49.454  57.992  14.947  0.00  0.00    -0.073 C 
ATOM    108  H48 LEU d   1      49.363  58.139  13.861  0.00  0.00     0.028 H 
ATOM    109  H49 LEU d   1      50.439  58.348  15.284  0.00  0.00     0.028 H 
ATOM    110  H50 LEU d   1      48.664  58.559  15.461  0.00  0.00     0.028 H 
ENDBRANCH 101 107
ENDBRANCH  98 101
ENDBRANCH  63  98
ENDBRANCH  61  63
ENDBRANCH   1  59
BRANCH   1 111
ATOM    111  CB  ILE d   1      47.006  55.090   9.714  0.00  0.00    -0.030 C 
ATOM    112  H31 ILE d   1      47.392  55.864   9.035  0.00  0.00     0.043 H 
BRANCH 111 113
ATOM    113  CG1 ILE d   1      45.557  54.786   9.332  0.00  0.00    -0.063 C 
ATOM    114  H32 ILE d   1      44.944  55.668   9.568  0.00  0.00     0.033 H 
ATOM    115  H33 ILE d   1      45.213  53.930   9.930  0.00  0.00     0.033 H 
BRANCH 113 116
ATOM    116  CD1 ILE d   1      45.369  54.452   7.870  0.00  0.00    -0.076 C 
ATOM    117  H37 ILE d   1      44.306  54.247   7.675  0.00  0.00     0.027 H 
ATOM    118  H38 ILE d   1      45.967  53.564   7.617  0.00  0.00     0.027 H 
ATOM    119  H39 ILE d   1      45.697  55.302   7.254  0.00  0.00     0.027 H 
ENDBRANCH 113 116
ENDBRANCH 111 113
BRANCH 111 120
ATOM    120  CG2 ILE d   1      47.885  53.855   9.588  0.00  0.00    -0.071 C 
ATOM    121  H34 ILE d   1      48.917  54.109   9.870  0.00  0.00     0.028 H 
ATOM    122  H35 ILE d   1      47.867  53.496   8.548  0.00  0.00     0.028 H 
ATOM    123  H36 ILE d   1      47.507  53.066  10.255  0.00  0.00     0.028 H 
ENDBRANCH 111 120
ENDBRANCH   1 111
TORSDOF 33
