REMARK  12 active torsions:
REMARK  status: ('A' for Active; 'I' for Inactive)
REMARK    1  A    between atoms: C18_2  and  O26_3 
REMARK       I    between atoms: C18_2  and  N17_11 
REMARK    2  A    between atoms: O26_3  and  C27_4 
REMARK    3  A    between atoms: C27_4  and  C28_5 
REMARK    4  A    between atoms: N17_11  and  C13_12 
REMARK    5  A    between atoms: C13_12  and  C16_13 
REMARK    6  A    between atoms: C13_12  and  C12_20 
REMARK    7  A    between atoms: C16_13  and  C20_14 
REMARK       I    between atoms: C12_20  and  N11_22 
REMARK    8  A    between atoms: N11_22  and  C8_23 
REMARK    9  A    between atoms: C8_23  and  C14_24 
REMARK   10  A    between atoms: C8_23  and  C7_25 
REMARK   11  A    between atoms: C6_26  and  C5_27 
REMARK   12  A    between atoms: C5_27  and  C4_29 
ROOT
ATOM      1  C13 186 d   1       2.190  10.451   6.424  0.00  0.00     0.095 C 
ATOM      2  H9  186 d   1       2.229   9.915   5.464  0.00  0.00     0.088 H 
ENDROOT
BRANCH   1   3
ATOM      3  N17 186 d   1       1.445  11.629   6.375  0.00  0.00    -0.323 N 
ATOM      4  C18 186 d   1       0.995  12.321   5.357  0.00  0.00     0.361 C 
ATOM      5  O34 186 d   1       0.475  13.359   5.695  0.00  0.00    -0.238 OA
ATOM      6  H8  186 d   1       1.215  12.011   7.270  0.00  0.00     0.165 HD
BRANCH   4   7
ATOM      7  O26 186 d   1       0.973  12.023   3.944  0.00  0.00    -0.299 OA
BRANCH   7   8
ATOM      8  C27 186 d   1       0.560  13.148   3.100  0.00  0.00     0.054 C 
ATOM      9  H1  186 d   1       1.179  14.017   3.368  0.00  0.00     0.082 H 
ATOM     10  H2  186 d   1      -0.495  13.367   3.322  0.00  0.00     0.082 H 
BRANCH   8  11
ATOM     11  C28 186 d   1       0.686  12.931   1.607  0.00  0.00    -0.034 A 
ATOM     12  C33 186 d   1      -0.350  12.309   0.884  0.00  0.00    -0.075 A 
ATOM     13  C32 186 d   1      -0.176  12.066  -0.476  0.00  0.00    -0.082 A 
ATOM     14  H3  186 d   1      -1.271  12.023   1.380  0.00  0.00     0.084 H 
ATOM     15  C31 186 d   1       1.022  12.460  -1.097  0.00  0.00    -0.083 A 
ATOM     16  H4  186 d   1      -0.956  11.578  -1.050  0.00  0.00     0.083 H 
ATOM     17  C30 186 d   1       2.062  13.082  -0.413  0.00  0.00    -0.082 A 
ATOM     18  H5  186 d   1       1.141  12.271  -2.158  0.00  0.00     0.083 H 
ATOM     19  C29 186 d   1       1.862  13.313   0.952  0.00  0.00    -0.075 A 
ATOM     20  H6  186 d   1       2.979  13.372  -0.912  0.00  0.00     0.083 H 
ATOM     21  H7  186 d   1       2.643  13.804   1.521  0.00  0.00     0.084 H 
ENDBRANCH   8  11
ENDBRANCH   7   8
ENDBRANCH   4   7
ENDBRANCH   1   3
BRANCH   1  22
ATOM     22  C16 186 d   1       1.655   9.538   7.526  0.00  0.00    -0.014 C 
ATOM     23  H10 186 d   1       1.317  10.146   8.378  0.00  0.00     0.043 H 
ATOM     24  H11 186 d   1       2.450   8.853   7.857  0.00  0.00     0.043 H 
BRANCH  22  25
ATOM     25  C20 186 d   1       0.482   8.733   6.974  0.00  0.00    -0.056 A 
ATOM     26  C25 186 d   1       0.706   7.615   6.192  0.00  0.00    -0.077 A 
ATOM     27  C24 186 d   1      -0.385   6.902   5.702  0.00  0.00    -0.082 A 
ATOM     28  H12 186 d   1       1.717   7.298   5.963  0.00  0.00     0.084 H 
ATOM     29  C23 186 d   1      -1.693   7.301   5.975  0.00  0.00    -0.083 A 
ATOM     30  H13 186 d   1      -0.214   6.019   5.096  0.00  0.00     0.083 H 
ATOM     31  C22 186 d   1      -1.932   8.427   6.755  0.00  0.00    -0.082 A 
ATOM     32  H14 186 d   1      -2.526   6.732   5.578  0.00  0.00     0.083 H 
ATOM     33  C21 186 d   1      -0.833   9.134   7.252  0.00  0.00    -0.077 A 
ATOM     34  H15 186 d   1      -2.944   8.748   6.972  0.00  0.00     0.083 H 
ATOM     35  H16 186 d   1      -1.001  10.012   7.866  0.00  0.00     0.084 H 
ENDBRANCH  22  25
ENDBRANCH   1  22
BRANCH   1  36
ATOM     36  C12 186 d   1       3.490  11.081   6.795  0.00  0.00     0.241 C 
ATOM     37  O19 186 d   1       4.330  11.203   5.930  0.00  0.00    -0.271 OA
ATOM     38  N11 186 d   1       3.700  11.552   8.002  0.00  0.00    -0.352 N 
ATOM     39  H17 186 d   1       2.995  11.519   8.710  0.00  0.00     0.163 HD
BRANCH  38  40
ATOM     40  C8  186 d   1       5.047  12.139   8.260  0.00  0.00     0.025 C 
ATOM     41  H18 186 d   1       5.662  11.940   7.370  0.00  0.00     0.078 H 
BRANCH  40  42
ATOM     42  C14 186 d   1       4.976  13.675   8.446  0.00  0.00    -0.054 C 
ATOM     43  H19 186 d   1       5.986  14.069   8.633  0.00  0.00     0.030 H 
ATOM     44  H20 186 d   1       4.326  13.911   9.301  0.00  0.00     0.030 H 
ATOM     45  H21 186 d   1       4.566  14.136   7.535  0.00  0.00     0.030 H 
ENDBRANCH  40  42
BRANCH  40  46
ATOM     46  C7  186 d   1       5.755  11.491   9.463  0.00  0.00    -0.078 C 
ATOM     47  C6  186 d   1       5.811  12.333  10.485  0.00  0.00    -0.033 C 
ATOM     48  H23 186 d   1       5.354  13.298  10.271  0.00  0.00     0.089 H 
ATOM     49  H22 186 d   1       6.155  10.478   9.473  0.00  0.00     0.080 H 
BRANCH  47  50
ATOM     50  C5  186 d   1       6.354  12.242  11.832  0.00  0.00     0.209 C 
ATOM     51  O10 186 d   1       7.473  11.835  12.067  0.00  0.00    -0.285 OA
BRANCH  50  52
ATOM     52  C4  186 d   1       5.482  12.769  12.893  0.00  0.00     0.156 C 
ATOM     53  O9  186 d   1       5.543  12.272  13.996  0.00  0.00    -0.298 OA
ATOM     54  H24 186 d   1       4.795  13.590  12.691  0.00  0.00     0.157 H 
ENDBRANCH  50  52
ENDBRANCH  47  50
ENDBRANCH  40  46
ENDBRANCH  38  40
ENDBRANCH   1  36
TORSDOF 12
