REMARK  7 active torsions:
REMARK  status: ('A' for Active; 'I' for Inactive)
REMARK    1  A    between atoms: N03_3  and  C15_7 
REMARK    2  A    between atoms: N06_6  and  C16_8 
REMARK    3  A    between atoms: C16_8  and  C17_9 
REMARK    4  A    between atoms: C17_9  and  N18_10 
REMARK    5  A    between atoms: C23_15  and  C27_27 
REMARK    6  A    between atoms: C25_17  and  N28_19 
REMARK    7  A    between atoms: N28_19  and  C29_20 
ROOT
ATOM      1  N18 IHE d   1      63.314  13.757  -8.291  0.00  0.00    -0.322 N 
ATOM      2  C19 IHE d   1      62.950  12.407  -8.373  0.00  0.00     0.068 A 
ATOM      3  N20 IHE d   1      61.885  12.133  -7.678  0.00  0.00    -0.236 NA
ATOM      4  C21 IHE d   1      62.401  14.343  -7.461  0.00  0.00     0.166 A 
ATOM      5  N22 IHE d   1      62.304  15.648  -7.042  0.00  0.00    -0.207 NA
ATOM      6  C23 IHE d   1      61.246  15.917  -6.217  0.00  0.00     0.170 A 
ATOM      7  N24 IHE d   1      60.355  14.962  -5.856  0.00  0.00    -0.208 NA
ATOM      8  C25 IHE d   1      60.496  13.696  -6.300  0.00  0.00     0.159 A 
ATOM      9  C26 IHE d   1      61.545  13.359  -7.108  0.00  0.00     0.149 A 
ATOM     10  H18 IHE d   1      63.498  11.668  -8.955  0.00  0.00     0.143 H 
ENDROOT
BRANCH   1  11
ATOM     11  C17 IHE d   1      64.446  14.417  -8.963  0.00  0.00     0.025 C 
ATOM     12  H16 IHE d   1      64.935  15.107  -8.259  0.00  0.00     0.067 H 
ATOM     13  H17 IHE d   1      65.168  13.655  -9.291  0.00  0.00     0.067 H 
BRANCH  11  14
ATOM     14  C16 IHE d   1      63.940  15.220 -10.207  0.00  0.00     0.099 C 
ATOM     15  H14 IHE d   1      63.347  16.075  -9.851  0.00  0.00     0.078 H 
ATOM     16  H15 IHE d   1      64.815  15.587 -10.763  0.00  0.00     0.078 H 
BRANCH  14  17
ATOM     17  N06 IHE d   1      63.076  14.398 -11.158  0.00  0.00    -0.066 N 
ATOM     18  C01 IHE d   1      62.379  15.303 -12.154  0.00  0.00     0.106 C 
ATOM     19  C04 IHE d   1      61.522  14.463 -13.123  0.00  0.00     0.105 C 
ATOM     20  H1  IHE d   1      61.731  16.009 -11.613  0.00  0.00     0.078 H 
ATOM     21  H2  IHE d   1      63.133  15.863 -12.727  0.00  0.00     0.078 H 
ATOM     22  N03 IHE d   1      62.363  13.403 -13.789  0.00  0.00    -0.072 N 
ATOM     23  H6  IHE d   1      61.095  15.122 -13.893  0.00  0.00     0.078 H 
ATOM     24  H7  IHE d   1      60.709  13.980 -12.561  0.00  0.00     0.078 H 
ATOM     25  C02 IHE d   1      63.038  12.504 -12.793  0.00  0.00     0.105 C 
ATOM     26  H5  IHE d   1      63.080  13.869 -14.323  0.00  0.00     0.279 HD
ATOM     27  C05 IHE d   1      63.908  13.328 -11.823  0.00  0.00     0.106 C 
ATOM     28  H3  IHE d   1      63.675  11.785 -13.328  0.00  0.00     0.078 H 
ATOM     29  H4  IHE d   1      62.273  11.960 -12.220  0.00  0.00     0.078 H 
ATOM     30  H8  IHE d   1      64.728  13.801 -12.383  0.00  0.00     0.078 H 
ATOM     31  H9  IHE d   1      64.325  12.662 -11.054  0.00  0.00     0.078 H 
ATOM     32  H10 IHE d   1      62.363  13.937 -10.614  0.00  0.00     0.280 HD
BRANCH  22  33
ATOM     33  C15 IHE d   1      61.539  12.588 -14.724  0.00  0.00     0.066 C 
ATOM     34  H11 IHE d   1      62.171  11.822 -15.198  0.00  0.00     0.068 H 
ATOM     35  H12 IHE d   1      61.110  13.241 -15.499  0.00  0.00     0.068 H 
ATOM     36  H13 IHE d   1      60.727  12.099 -14.166  0.00  0.00     0.068 H 
ENDBRANCH  22  33
ENDBRANCH  14  17
ENDBRANCH  11  14
ENDBRANCH   1  11
BRANCH   6  37
ATOM     37  C27 IHE d   1      61.044  17.296  -5.696  0.00  0.00     0.040 C 
ATOM     38  N35 IHE d   1      61.938  18.154  -5.935  0.00  0.00    -0.308 NA
ATOM     39  H31 IHE d   1      61.834  19.098  -5.597  0.00  0.00     0.186 HD
ATOM     40  H32 IHE d   1      60.153  17.557  -5.127  0.00  0.00     0.119 H 
ENDBRANCH   6  37
BRANCH   8  41
ATOM     41  N28 IHE d   1      59.556  12.703  -5.951  0.00  0.00    -0.368 N 
ATOM     42  H19 IHE d   1      59.751  11.753  -6.298  0.00  0.00     0.161 HD
BRANCH  41  43
ATOM     43  C29 IHE d   1      58.359  12.858  -5.170  0.00  0.00     0.011 C 
ATOM     44  C30 IHE d   1      57.740  11.541  -4.681  0.00  0.00    -0.046 C 
ATOM     45  C31 IHE d   1      56.442  11.776  -3.870  0.00  0.00    -0.063 C 
ATOM     46  H21 IHE d   1      58.469  11.022  -4.042  0.00  0.00     0.035 H 
ATOM     47  H22 IHE d   1      57.505  10.914  -5.553  0.00  0.00     0.035 H 
ATOM     48  C32 IHE d   1      55.407  12.580  -4.701  0.00  0.00    -0.065 C 
ATOM     49  H23 IHE d   1      56.685  12.338  -2.956  0.00  0.00     0.033 H 
ATOM     50  H24 IHE d   1      56.007  10.803  -3.597  0.00  0.00     0.033 H 
ATOM     51  C33 IHE d   1      55.989  13.920  -5.239  0.00  0.00    -0.063 C 
ATOM     52  H25 IHE d   1      54.539  12.803  -4.064  0.00  0.00     0.033 H 
ATOM     53  H26 IHE d   1      55.087  11.966  -5.556  0.00  0.00     0.033 H 
ATOM     54  C34 IHE d   1      57.320  13.697  -5.971  0.00  0.00    -0.046 C 
ATOM     55  H27 IHE d   1      56.156  14.603  -4.393  0.00  0.00     0.033 H 
ATOM     56  H28 IHE d   1      55.267  14.369  -5.937  0.00  0.00     0.033 H 
ATOM     57  H29 IHE d   1      57.110  13.175  -6.916  0.00  0.00     0.035 H 
ATOM     58  H30 IHE d   1      57.764  14.680  -6.186  0.00  0.00     0.035 H 
ATOM     59  H20 IHE d   1      58.633  13.432  -4.272  0.00  0.00     0.072 H 
ENDBRANCH  41  43
ENDBRANCH   8  41
TORSDOF 7
