REMARK  7 active torsions:
REMARK  status: ('A' for Active; 'I' for Inactive)
REMARK    1  A    between atoms: N05_5  and  C12_11 
REMARK    2  A    between atoms: C07_6  and  N11_10 
REMARK    3  A    between atoms: C10_9  and  C26_25 
REMARK    4  A    between atoms: N11_10  and  C32_17 
REMARK    5  A    between atoms: C26_25  and  N27_16 
REMARK    6  A    between atoms: C37_22  and  O38_23 
REMARK    7  A    between atoms: O38_23  and  C39_24 
ROOT
ATOM      1  C01 IHI d   1      62.992  12.371  -7.998  0.00  0.00     0.069 C 
ATOM      2  N02 IHI d   1      61.808  12.187  -7.547  0.00  0.00    -0.236 NA
ATOM      3  C03 IHI d   1      61.522  13.337  -6.812  0.00  0.00     0.150 A 
ATOM      4  C04 IHI d   1      62.541  14.213  -6.812  0.00  0.00     0.166 A 
ATOM      5  N05 IHI d   1      63.606  13.563  -7.533  0.00  0.00    -0.319 N 
ATOM      6  C07 IHI d   1      60.394  13.656  -6.124  0.00  0.00     0.163 A 
ATOM      7  N08 IHI d   1      62.478  15.463  -6.175  0.00  0.00    -0.207 NA
ATOM      8  N09 IHI d   1      60.297  14.858  -5.476  0.00  0.00    -0.208 NA
ATOM      9  C10 IHI d   1      61.315  15.739  -5.522  0.00  0.00     0.170 A 
ATOM     10  H1  IHI d   1      63.483  11.676  -8.677  0.00  0.00     0.143 H 
ENDROOT
BRANCH   6  11
ATOM     11  N11 IHI d   1      59.402  12.668  -6.120  0.00  0.00    -0.337 N 
ATOM     12  H2  IHI d   1      59.562  11.816  -6.676  0.00  0.00     0.167 HD
BRANCH  11  13
ATOM     13  C32 IHI d   1      58.207  12.775  -5.403  0.00  0.00     0.067 A 
ATOM     14  C33 IHI d   1      57.530  14.023  -5.134  0.00  0.00    -0.054 A 
ATOM     15  C34 IHI d   1      56.328  14.017  -4.368  0.00  0.00    -0.081 A 
ATOM     16  H13 IHI d   1      57.933  14.956  -5.512  0.00  0.00     0.087 H 
ATOM     17  C35 IHI d   1      55.785  12.797  -3.858  0.00  0.00    -0.080 A 
ATOM     18  H14 IHI d   1      55.818  14.952  -4.169  0.00  0.00     0.083 H 
ATOM     19  C36 IHI d   1      56.440  11.570  -4.116  0.00  0.00    -0.049 A 
ATOM     20  H15 IHI d   1      54.872  12.812  -3.274  0.00  0.00     0.083 H 
ATOM     21  C37 IHI d   1      57.654  11.554  -4.883  0.00  0.00     0.094 A 
ATOM     22  H16 IHI d   1      56.026  10.643  -3.735  0.00  0.00     0.087 H 
BRANCH  21  23
ATOM     23  O38 IHI d   1      58.262  10.260  -5.146  0.00  0.00    -0.354 OA
BRANCH  23  24
ATOM     24  C39 IHI d   1      59.133   9.658  -4.222  0.00  0.00     0.010 C 
ATOM     25  H17 IHI d   1      59.476   8.691  -4.618  0.00  0.00     0.066 H 
ATOM     26  H18 IHI d   1      58.605   9.498  -3.270  0.00  0.00     0.066 H 
ATOM     27  H19 IHI d   1      60.000  10.314  -4.055  0.00  0.00     0.066 H 
ENDBRANCH  23  24
ENDBRANCH  21  23
ENDBRANCH  11  13
ENDBRANCH   6  11
BRANCH   9  28
ATOM     28  C26 IHI d   1      61.124  17.034  -4.797  0.00  0.00     0.040 C 
ATOM     29  H20 IHI d   1      60.214  17.318  -4.271  0.00  0.00     0.119 H 
BRANCH  28  30
ATOM     30  N27 IHI d   1      62.307  17.858  -4.888  0.00  0.00    -0.308 NA
ATOM     31  H12 IHI d   1      62.326  18.764  -4.446  0.00  0.00     0.186 HD
ENDBRANCH  28  30
ENDBRANCH   9  28
BRANCH   5  32
ATOM     32  C12 IHI d   1      64.925  14.101  -7.946  0.00  0.00     0.019 C 
ATOM     33  C13 IHI d   1      65.039  15.616  -7.973  0.00  0.00    -0.046 C 
ATOM     34  C14 IHI d   1      64.825  15.890  -9.429  0.00  0.00    -0.063 C 
ATOM     35  H4  IHI d   1      66.032  15.953  -7.640  0.00  0.00     0.036 H 
ATOM     36  H5  IHI d   1      64.264  16.091  -7.354  0.00  0.00     0.036 H 
ATOM     37  C15 IHI d   1      65.752  14.857 -10.073  0.00  0.00    -0.063 C 
ATOM     38  H6  IHI d   1      65.122  16.916  -9.693  0.00  0.00     0.033 H 
ATOM     39  H7  IHI d   1      63.777  15.725  -9.719  0.00  0.00     0.033 H 
ATOM     40  C16 IHI d   1      65.382  13.588  -9.323  0.00  0.00    -0.046 C 
ATOM     41  H8  IHI d   1      66.809  15.118  -9.919  0.00  0.00     0.033 H 
ATOM     42  H9  IHI d   1      65.552  14.757 -11.150  0.00  0.00     0.033 H 
ATOM     43  H10 IHI d   1      64.567  13.054  -9.833  0.00  0.00     0.036 H 
ATOM     44  H11 IHI d   1      66.252  12.922  -9.225  0.00  0.00     0.036 H 
ATOM     45  H3  IHI d   1      65.646  13.736  -7.200  0.00  0.00     0.073 H 
ENDBRANCH   5  32
TORSDOF 7
