REMARK  10 active torsions:
REMARK  status: ('A' for Active; 'I' for Inactive)
REMARK    1  A    between atoms: N01_1  and  C16_12 
REMARK    2  A    between atoms: C05_4  and  C12_34 
REMARK    3  A    between atoms: C09_8  and  N11_10 
REMARK    4  A    between atoms: N11_10  and  C30_17 
REMARK    5  A    between atoms: C35_22  and  O40_23 
REMARK    6  A    between atoms: O40_23  and  C41_24 
REMARK    7  A    between atoms: C41_24  and  C42_25 
REMARK    8  A    between atoms: C42_25  and  C43_26 
REMARK    9  A    between atoms: C43_26  and  N51_27 
REMARK   10  A    between atoms: N54_30  and  C61_33 
ROOT
ATOM      1  C30 IHJ d   1      57.945  12.849  -5.317  0.00  0.00     0.067 A 
ATOM      2  C31 IHJ d   1      57.136  14.034  -5.166  0.00  0.00    -0.054 A 
ATOM      3  C32 IHJ d   1      55.982  14.020  -4.321  0.00  0.00    -0.081 A 
ATOM      4  C33 IHJ d   1      55.621  12.828  -3.620  0.00  0.00    -0.080 A 
ATOM      5  C34 IHJ d   1      56.415  11.650  -3.763  0.00  0.00    -0.049 A 
ATOM      6  C35 IHJ d   1      57.587  11.644  -4.611  0.00  0.00     0.095 A 
ATOM      7  H13 IHJ d   1      57.404  14.941  -5.696  0.00  0.00     0.087 H 
ATOM      8  H14 IHJ d   1      55.380  14.915  -4.212  0.00  0.00     0.083 H 
ATOM      9  H15 IHJ d   1      54.746  12.818  -2.981  0.00  0.00     0.083 H 
ATOM     10  H16 IHJ d   1      56.136  10.749  -3.229  0.00  0.00     0.087 H 
ENDROOT
BRANCH   1  11
ATOM     11  N11 IHJ d   1      59.083  12.821  -6.138  0.00  0.00    -0.337 N 
ATOM     12  H2  IHJ d   1      59.153  12.031  -6.796  0.00  0.00     0.167 HD
BRANCH  11  13
ATOM     13  C09 IHJ d   1      60.131  13.744  -6.163  0.00  0.00     0.163 A 
ATOM     14  C08 IHJ d   1      61.210  13.348  -6.888  0.00  0.00     0.150 A 
ATOM     15  N03 IHJ d   1      61.413  12.170  -7.596  0.00  0.00    -0.236 NA
ATOM     16  C07 IHJ d   1      62.268  14.179  -6.961  0.00  0.00     0.166 A 
ATOM     17  C02 IHJ d   1      62.639  12.306  -8.104  0.00  0.00     0.069 A 
ATOM     18  N01 IHJ d   1      63.229  13.497  -7.764  0.00  0.00    -0.319 N 
ATOM     19  H1  IHJ d   1      63.121  11.551  -8.723  0.00  0.00     0.143 H 
ATOM     20  N06 IHJ d   1      62.316  15.429  -6.343  0.00  0.00    -0.207 NA
ATOM     21  C05 IHJ d   1      61.204  15.795  -5.625  0.00  0.00     0.170 A 
ATOM     22  N10 IHJ d   1      60.128  14.981  -5.525  0.00  0.00    -0.208 NA
BRANCH  18  23
ATOM     23  C16 IHJ d   1      64.549  14.027  -8.115  0.00  0.00     0.019 C 
ATOM     24  C17 IHJ d   1      64.645  14.446  -9.575  0.00  0.00    -0.046 C 
ATOM     25  C18 IHJ d   1      66.141  14.386  -9.838  0.00  0.00    -0.063 C 
ATOM     26  H5  IHJ d   1      64.256  15.464  -9.723  0.00  0.00     0.036 H 
ATOM     27  H6  IHJ d   1      64.099  13.747 -10.226  0.00  0.00     0.036 H 
ATOM     28  C19 IHJ d   1      66.532  13.067  -9.181  0.00  0.00    -0.063 C 
ATOM     29  H7  IHJ d   1      66.662  15.234  -9.370  0.00  0.00     0.033 H 
ATOM     30  H8  IHJ d   1      66.356  14.373 -10.917  0.00  0.00     0.033 H 
ATOM     31  C20 IHJ d   1      65.693  13.021  -7.895  0.00  0.00    -0.046 C 
ATOM     32  H9  IHJ d   1      67.606  13.052  -8.946  0.00  0.00     0.033 H 
ATOM     33  H10 IHJ d   1      66.288  12.218  -9.836  0.00  0.00     0.033 H 
ATOM     34  H11 IHJ d   1      65.290  12.010  -7.734  0.00  0.00     0.036 H 
ATOM     35  H12 IHJ d   1      66.302  13.315  -7.028  0.00  0.00     0.036 H 
ATOM     36  H4  IHJ d   1      64.727  14.908  -7.480  0.00  0.00     0.073 H 
ENDBRANCH  18  23
BRANCH  21  37
ATOM     37  C12 IHJ d   1      61.141  17.094  -4.938  0.00  0.00     0.040 C 
ATOM     38  N13 IHJ d   1      62.108  17.894  -5.003  0.00  0.00    -0.308 NA
ATOM     39  H3  IHJ d   1      62.059  18.783  -4.530  0.00  0.00     0.186 HD
ATOM     40  H36 IHJ d   1      60.252  17.364  -4.370  0.00  0.00     0.119 H 
ENDBRANCH  21  37
ENDBRANCH  11  13
ENDBRANCH   1  11
BRANCH   6  41
ATOM     41  O40 IHJ d   1      58.399  10.537  -4.791  0.00  0.00    -0.349 OA
BRANCH  41  42
ATOM     42  C41 IHJ d   1      58.822   9.740  -3.666  0.00  0.00     0.028 C 
ATOM     43  H17 IHJ d   1      57.942   9.368  -3.121  0.00  0.00     0.075 H 
ATOM     44  H18 IHJ d   1      59.441  10.349  -2.990  0.00  0.00     0.075 H 
BRANCH  42  45
ATOM     45  C42 IHJ d   1      59.639   8.561  -4.195  0.00  0.00    -0.022 C 
ATOM     46  H19 IHJ d   1      59.004   7.965  -4.867  0.00  0.00     0.038 H 
ATOM     47  H20 IHJ d   1      59.955   7.941  -3.343  0.00  0.00     0.038 H 
BRANCH  45  48
ATOM     48  C43 IHJ d   1      60.889   9.009  -4.968  0.00  0.00     0.086 C 
ATOM     49  H21 IHJ d   1      61.529   9.601  -4.297  0.00  0.00     0.076 H 
ATOM     50  H22 IHJ d   1      60.577   9.631  -5.820  0.00  0.00     0.076 H 
BRANCH  48  51
ATOM     51  N51 IHJ d   1      61.665   7.854  -5.476  0.00  0.00    -0.068 N 
ATOM     52  C52 IHJ d   1      61.712   7.702  -6.965  0.00  0.00     0.106 C 
ATOM     53  C53 IHJ d   1      62.373   6.364  -7.370  0.00  0.00     0.105 C 
ATOM     54  H24 IHJ d   1      62.293   8.533  -7.392  0.00  0.00     0.078 H 
ATOM     55  H25 IHJ d   1      60.686   7.730  -7.361  0.00  0.00     0.078 H 
ATOM     56  N54 IHJ d   1      63.749   6.276  -6.788  0.00  0.00    -0.072 N 
ATOM     57  H26 IHJ d   1      62.437   6.307  -8.467  0.00  0.00     0.078 H 
ATOM     58  H27 IHJ d   1      61.764   5.529  -6.994  0.00  0.00     0.078 H 
ATOM     59  C55 IHJ d   1      63.725   6.416  -5.294  0.00  0.00     0.105 C 
ATOM     60  H28 IHJ d   1      64.300   7.030  -7.167  0.00  0.00     0.279 HD
ATOM     61  C56 IHJ d   1      63.052   7.754  -4.896  0.00  0.00     0.106 C 
ATOM     62  H29 IHJ d   1      64.756   6.399  -4.910  0.00  0.00     0.078 H 
ATOM     63  H30 IHJ d   1      63.158   5.580  -4.859  0.00  0.00     0.078 H 
ATOM     64  H31 IHJ d   1      62.989   7.812  -3.799  0.00  0.00     0.078 H 
ATOM     65  H32 IHJ d   1      63.661   8.589  -5.273  0.00  0.00     0.078 H 
ATOM     66  H23 IHJ d   1      61.168   7.044  -5.140  0.00  0.00     0.280 HD
BRANCH  56  67
ATOM     67  C61 IHJ d   1      64.385   4.988  -7.169  0.00  0.00     0.066 C 
ATOM     68  H33 IHJ d   1      64.397   4.895  -8.265  0.00  0.00     0.068 H 
ATOM     69  H34 IHJ d   1      63.812   4.154  -6.737  0.00  0.00     0.068 H 
ATOM     70  H35 IHJ d   1      65.416   4.961  -6.787  0.00  0.00     0.068 H 
ENDBRANCH  56  67
ENDBRANCH  48  51
ENDBRANCH  45  48
ENDBRANCH  42  45
ENDBRANCH  41  42
ENDBRANCH   6  41
TORSDOF 10
