REMARK  10 active torsions:
REMARK  status: ('A' for Active; 'I' for Inactive)
REMARK    1  A    between atoms: C34_1  and  C33_2 
REMARK    2  A    between atoms: C33_2  and  C32_3 
REMARK    3  A    between atoms: C32_3  and  C30_4 
REMARK    4  A    between atoms: N28_6  and  C31_7 
REMARK    5  A    between atoms: C7_17  and  S10_24 
REMARK    6  A    between atoms: C4_20  and  O3_21 
REMARK    7  A    between atoms: O3_21  and  C2_22 
REMARK    8  A    between atoms: C2_22  and  C1_23 
REMARK    9  A    between atoms: S10_24  and  N14_27 
REMARK   10  A    between atoms: N17_30  and  C20_31 
ROOT
ATOM      1  C30 VIA d   1      -1.114  63.031  83.405  0.00  0.00     0.086 A 
ATOM      2  N29 VIA d   1      -1.798  62.280  84.370  0.00  0.00    -0.174 NA
ATOM      3  N28 VIA d   1      -1.414  62.696  85.612  0.00  0.00    -0.266 N 
ATOM      4  C24 VIA d   1      -0.495  63.700  85.440  0.00  0.00     0.151 A 
ATOM      5  C23 VIA d   1       0.260  64.519  86.346  0.00  0.00     0.278 A 
ATOM      6  O27 VIA d   1       0.180  64.422  87.549  0.00  0.00    -0.265 OA
ATOM      7  N22 VIA d   1       1.125  65.474  85.816  0.00  0.00    -0.305 N 
ATOM      8  C21 VIA d   1       1.308  65.684  84.442  0.00  0.00     0.144 A 
ATOM      9  N26 VIA d   1       0.597  64.907  83.520  0.00  0.00    -0.226 NA
ATOM     10  C25 VIA d   1      -0.293  63.928  84.046  0.00  0.00     0.119 A 
ATOM     11  C9  VIA d   1       2.223  66.702  84.058  0.00  0.00     0.045 A 
ATOM     12  C8  VIA d   1       1.731  67.655  83.084  0.00  0.00    -0.044 A 
ATOM     13  C7  VIA d   1       2.568  68.758  82.617  0.00  0.00     0.075 A 
ATOM     14  C6  VIA d   1       3.952  68.860  83.180  0.00  0.00    -0.058 A 
ATOM     15  C5  VIA d   1       4.466  67.911  84.162  0.00  0.00    -0.048 A 
ATOM     16  C4  VIA d   1       3.609  66.806  84.633  0.00  0.00     0.082 A 
ATOM     17  H11 VIA d   1       1.646  66.043  86.453  0.00  0.00     0.170 HD
ATOM     18  H12 VIA d   1       0.725  67.548  82.695  0.00  0.00     0.087 H 
ATOM     19  H13 VIA d   1       4.594  69.667  82.846  0.00  0.00     0.086 H 
ATOM     20  H14 VIA d   1       5.475  68.017  84.544  0.00  0.00     0.087 H 
ENDROOT
BRANCH  16  21
ATOM     21  O3  VIA d   1       4.019  65.830  85.620  0.00  0.00    -0.351 OA
BRANCH  21  22
ATOM     22  C2  VIA d   1       5.304  65.803  86.273  0.00  0.00     0.023 C 
ATOM     23  H15 VIA d   1       5.477  66.738  86.826  0.00  0.00     0.074 H 
ATOM     24  H16 VIA d   1       6.109  65.658  85.537  0.00  0.00     0.074 H 
BRANCH  22  25
ATOM     25  C1  VIA d   1       5.234  64.623  87.228  0.00  0.00    -0.056 C 
ATOM     26  H17 VIA d   1       6.187  64.533  87.770  0.00  0.00     0.030 H 
ATOM     27  H18 VIA d   1       5.048  63.701  86.658  0.00  0.00     0.030 H 
ATOM     28  H19 VIA d   1       4.416  64.781  87.947  0.00  0.00     0.030 H 
ENDBRANCH  22  25
ENDBRANCH  21  22
ENDBRANCH  16  21
BRANCH  13  29
ATOM     29  S10 VIA d   1       2.023  69.831  81.561  0.00  0.00     0.243 S 
ATOM     30  O11 VIA d   1       2.313  69.600  80.294  0.00  0.00    -0.206 OA
ATOM     31  O12 VIA d   1       0.712  69.861  81.611  0.00  0.00    -0.206 OA
BRANCH  29  32
ATOM     32  N14 VIA d   1       2.690  71.159  82.127  0.00  0.00    -0.203 NA
ATOM     33  C19 VIA d   1       1.724  72.087  82.963  0.00  0.00     0.016 C 
ATOM     34  C18 VIA d   1       0.820  73.057  82.178  0.00  0.00     0.095 C 
ATOM     35  H20 VIA d   1       2.348  72.691  83.638  0.00  0.00     0.059 H 
ATOM     36  H21 VIA d   1       1.069  71.432  83.557  0.00  0.00     0.059 H 
ATOM     37  N17 VIA d   1       1.426  73.686  80.956  0.00  0.00    -0.073 N 
ATOM     38  H22 VIA d   1       0.524  73.867  82.861  0.00  0.00     0.077 H 
ATOM     39  H23 VIA d   1      -0.074  72.500  81.861  0.00  0.00     0.077 H 
ATOM     40  C16 VIA d   1       2.752  73.145  80.416  0.00  0.00     0.095 C 
ATOM     41  H24 VIA d   1       0.755  73.553  80.216  0.00  0.00     0.279 HD
ATOM     42  C15 VIA d   1       3.539  72.092  81.285  0.00  0.00     0.016 C 
ATOM     43  H28 VIA d   1       3.419  74.007  80.266  0.00  0.00     0.077 H 
ATOM     44  H29 VIA d   1       2.540  72.673  79.445  0.00  0.00     0.077 H 
ATOM     45  H30 VIA d   1       4.142  71.475  80.602  0.00  0.00     0.059 H 
ATOM     46  H31 VIA d   1       4.205  72.646  81.963  0.00  0.00     0.059 H 
BRANCH  37  47
ATOM     47  C20 VIA d   1       1.557  75.156  81.201  0.00  0.00     0.066 C 
ATOM     48  H25 VIA d   1       2.000  75.637  80.316  0.00  0.00     0.068 H 
ATOM     49  H26 VIA d   1       2.205  75.326  82.074  0.00  0.00     0.068 H 
ATOM     50  H27 VIA d   1       0.563  75.586  81.393  0.00  0.00     0.068 H 
ENDBRANCH  37  47
ENDBRANCH  29  32
ENDBRANCH  13  29
BRANCH   1  51
ATOM     51  C32 VIA d   1      -1.261  62.864  81.927  0.00  0.00    -0.021 C 
ATOM     52  H6  VIA d   1      -2.266  62.501  81.667  0.00  0.00     0.042 H 
ATOM     53  H7  VIA d   1      -1.065  63.809  81.400  0.00  0.00     0.042 H 
BRANCH  51  54
ATOM     54  C33 VIA d   1      -0.169  61.792  81.589  0.00  0.00    -0.063 C 
ATOM     55  H4  VIA d   1       0.815  62.180  81.892  0.00  0.00     0.033 H 
ATOM     56  H5  VIA d   1      -0.389  60.872  82.151  0.00  0.00     0.033 H 
BRANCH  54  57
ATOM     57  C34 VIA d   1      -0.132  61.467  80.120  0.00  0.00    -0.076 C 
ATOM     58  H1  VIA d   1       0.646  60.713  79.931  0.00  0.00     0.027 H 
ATOM     59  H2  VIA d   1       0.094  62.379  79.548  0.00  0.00     0.027 H 
ATOM     60  H3  VIA d   1      -1.109  61.071  79.807  0.00  0.00     0.027 H 
ENDBRANCH  54  57
ENDBRANCH  51  54
ENDBRANCH   1  51
BRANCH   3  61
ATOM     61  C31 VIA d   1      -1.948  62.111  86.845  0.00  0.00     0.003 C 
ATOM     62  H8  VIA d   1      -1.491  62.607  87.714  0.00  0.00     0.059 H 
ATOM     63  H9  VIA d   1      -1.715  61.036  86.872  0.00  0.00     0.059 H 
ATOM     64  H10 VIA d   1      -3.039  62.250  86.875  0.00  0.00     0.059 H 
ENDBRANCH   3  61
TORSDOF 10
