REMARK  2 active torsions:
REMARK  status: ('A' for Active; 'I' for Inactive)
REMARK    1  A    between atoms: C13_10  and  C22_21 
REMARK    2  A    between atoms: N15_15  and  C18_20 
ROOT
ATOM      1  C3  CIA d   1      24.435  39.243 103.913  0.00  0.00    -0.081 A 
ATOM      2  C2  CIA d   1      24.136  38.324 102.831  0.00  0.00    -0.082 A 
ATOM      3  C1  CIA d   1      22.783  38.095 102.381  0.00  0.00    -0.070 A 
ATOM      4  C6  CIA d   1      21.678  38.816 103.045  0.00  0.00    -0.001 A 
ATOM      5  C7  CIA d   1      20.265  38.832 102.866  0.00  0.00    -0.018 A 
ATOM      6  C8  CIA d   1      19.777  39.758 103.858  0.00  0.00     0.045 A 
ATOM      7  N9  CIA d   1      20.831  40.320 104.644  0.00  0.00    -0.356 N 
ATOM      8  C5  CIA d   1      21.988  39.748 104.150  0.00  0.00     0.043 A 
ATOM      9  C4  CIA d   1      23.384  39.955 104.577  0.00  0.00    -0.056 A 
ATOM     10  C13 CIA d   1      18.220  40.076 104.023  0.00  0.00     0.082 C 
ATOM     11  N12 CIA d   1      17.274  38.982 103.387  0.00  0.00    -0.323 N 
ATOM     12  C17 CIA d   1      15.867  39.093 103.497  0.00  0.00     0.239 C 
ATOM     13  O20 CIA d   1      15.251  40.023 104.071  0.00  0.00    -0.271 OA
ATOM     14  C16 CIA d   1      14.965  37.999 102.900  0.00  0.00     0.071 C 
ATOM     15  N15 CIA d   1      15.552  37.146 101.801  0.00  0.00    -0.346 N 
ATOM     16  C31 CIA d   1      16.948  37.002 101.611  0.00  0.00     0.243 C 
ATOM     17  O32 CIA d   1      17.432  36.293 100.678  0.00  0.00    -0.271 OA
ATOM     18  C11 CIA d   1      17.928  37.758 102.648  0.00  0.00     0.097 C 
ATOM     19  C10 CIA d   1      19.261  38.105 101.898  0.00  0.00    -0.011 C 
ATOM     20  H1  CIA d   1      25.463  39.392 104.222  0.00  0.00     0.083 H 
ATOM     21  H2  CIA d   1      24.950  37.795 102.348  0.00  0.00     0.083 H 
ATOM     22  H3  CIA d   1      22.582  37.405 101.569  0.00  0.00     0.084 H 
ATOM     23  H4  CIA d   1      20.746  41.002 105.411  0.00  0.00     0.166 HD
ATOM     24  H5  CIA d   1      23.613  40.639 105.386  0.00  0.00     0.086 H 
ATOM     25  H6  CIA d   1      17.983  40.109 105.097  0.00  0.00     0.090 H 
ATOM     26  H7  CIA d   1      14.070  38.493 102.494  0.00  0.00     0.079 H 
ATOM     27  H8  CIA d   1      14.672  37.327 103.720  0.00  0.00     0.079 H 
ATOM     28  H9  CIA d   1      18.181  37.033 103.436  0.00  0.00     0.088 H 
ATOM     29  H10 CIA d   1      19.721  37.176 101.530  0.00  0.00     0.044 H 
ATOM     30  H11 CIA d   1      19.036  38.765 101.047  0.00  0.00     0.044 H 
ENDROOT
BRANCH  10  31
ATOM     31  C22 CIA d   1      18.037  41.572 103.414  0.00  0.00    -0.027 A 
ATOM     32  C27 CIA d   1      17.247  42.553 104.134  0.00  0.00    -0.072 A 
ATOM     33  C26 CIA d   1      17.079  43.883 103.615  0.00  0.00    -0.047 A 
ATOM     34  H15 CIA d   1      16.779  42.280 105.073  0.00  0.00     0.084 H 
ATOM     35  C25 CIA d   1      17.721  44.248 102.333  0.00  0.00     0.105 A 
ATOM     36  H16 CIA d   1      16.488  44.611 104.158  0.00  0.00     0.087 H 
ATOM     37  O30 CIA d   1      17.689  45.437 101.674  0.00  0.00    -0.323 OA
ATOM     38  C24 CIA d   1      18.495  43.294 101.625  0.00  0.00     0.105 A 
ATOM     39  C29 CIA d   1      18.497  45.181 100.487  0.00  0.00     0.115 A 
ATOM     40  O28 CIA d   1      18.998  43.812 100.484  0.00  0.00    -0.323 OA
ATOM     41  H17 CIA d   1      19.349  45.876 100.475  0.00  0.00     0.118 H 
ATOM     42  H18 CIA d   1      17.880  45.341  99.590  0.00  0.00     0.118 H 
ATOM     43  C23 CIA d   1      18.663  41.988 102.130  0.00  0.00    -0.039 A 
ATOM     44  H19 CIA d   1      19.259  41.274 101.573  0.00  0.00     0.088 H 
ENDBRANCH  10  31
BRANCH  15  45
ATOM     45  C18 CIA d   1      14.557  36.465 100.936  0.00  0.00    -0.015 C 
ATOM     46  H12 CIA d   1      15.081  35.872 100.171  0.00  0.00     0.056 H 
ATOM     47  H13 CIA d   1      13.922  37.217 100.445  0.00  0.00     0.056 H 
ATOM     48  H14 CIA d   1      13.931  35.801 101.550  0.00  0.00     0.056 H 
ENDBRANCH  15  45
TORSDOF 2
