REMARK WARNING: 32 MAX_TORS EXCEEDED!!!
REMARK  51 active torsions:
REMARK  status: ('A' for Active; 'I' for Inactive)
REMARK    1  A    between atoms: CA_2  and  N_1 
REMARK    2  A    between atoms: CA_2  and  CB_5 
REMARK    3  A    between atoms: C_3  and  CA_2 
REMARK       I    between atoms: N_8  and  C_3 
REMARK    4  A    between atoms: CB_5  and  CG2_7 
REMARK    5  A    between atoms: CB_5  and  OG1_6 
REMARK    6  A    between atoms: CA_9  and  N_8 
REMARK    7  A    between atoms: CA_9  and  CB_12 
REMARK    8  A    between atoms: C_10  and  CA_9 
REMARK       I    between atoms: N_22  and  C_10 
REMARK    9  A    between atoms: CB_12  and  CG_13 
REMARK   10  A    between atoms: CA_23  and  N_22 
REMARK   11  A    between atoms: CA_23  and  CB_26 
REMARK   12  A    between atoms: C_24  and  CA_23 
REMARK       I    between atoms: N_30  and  C_24 
REMARK   13  A    between atoms: CB_26  and  CG2_28 
REMARK   14  A    between atoms: CB_26  and  CG1_27 
REMARK   15  A    between atoms: CG1_27  and  CD1_29 
REMARK   16  A    between atoms: CA_31  and  N_30 
REMARK   17  A    between atoms: CA_31  and  CB_34 
REMARK   18  A    between atoms: C_32  and  CA_31 
REMARK       I    between atoms: N_39  and  C_32 
REMARK   19  A    between atoms: CB_34  and  CG_35 
REMARK   20  A    between atoms: CG_35  and  CD_36 
REMARK   21  A    between atoms: CA_40  and  N_39 
REMARK   22  A    between atoms: CA_40  and  CB_43 
REMARK   23  A    between atoms: C_41  and  CA_40 
REMARK       I    between atoms: N_47  and  C_41 
REMARK   24  A    between atoms: CB_43  and  CG_44 
REMARK       I    between atoms: CG_44  and  ND2_46 
REMARK   25  A    between atoms: CA_48  and  N_47 
REMARK   26  A    between atoms: CA_48  and  CB_51 
REMARK   27  A    between atoms: C_49  and  CA_48 
REMARK       I    between atoms: N_56  and  C_49 
REMARK   28  A    between atoms: CB_51  and  CG_52 
REMARK   29  A    between atoms: CG_52  and  CD_53 
REMARK   30  A    between atoms: CD_53  and  CE_54 
REMARK   31  A    between atoms: CE_54  and  NZ_55 
REMARK   32  A    between atoms: CA_57  and  N_56 
REMARK   33  A    between atoms: CA_57  and  CB_60 
REMARK   34  A    between atoms: C_58  and  CA_57 
REMARK       I    between atoms: N_64  and  C_58 
REMARK   35  A    between atoms: CB_60  and  CG_61 
REMARK   36  A    between atoms: CG_61  and  CD1_62 
REMARK   37  A    between atoms: CG_61  and  CD2_63 
REMARK   38  A    between atoms: CA_65  and  N_64 
REMARK   39  A    between atoms: CA_65  and  CB_68 
REMARK   40  A    between atoms: C_66  and  CA_65 
REMARK       I    between atoms: N_76  and  C_66 
REMARK   41  A    between atoms: CB_68  and  CG_69 
REMARK   42  A    between atoms: CZ_74  and  OH_75 
REMARK   43  A    between atoms: CA_77  and  N_76 
REMARK   44  A    between atoms: C_78  and  CA_77 
REMARK       I    between atoms: C_78  and  N_80 
REMARK   45  A    between atoms: N_80  and  CA_81 
REMARK   46  A    between atoms: CA_81  and  CB_84 
REMARK   47  A    between atoms: CA_81  and  C_82 
REMARK   48  A    between atoms: C_82  and  O1_88 
REMARK   49  A    between atoms: CB_84  and  CG_85 
REMARK   50  A    between atoms: CG_85  and  SD_86 
REMARK   51  A    between atoms: SD_86  and  CE_87 
ROOT
ATOM      1  C   ASN d   1       6.390  -7.062   6.952  0.00  0.00     0.241 C 
ATOM      2  O   ASN d   1       5.293  -6.538   6.913  0.00  0.00    -0.271 OA
ATOM      3  N   LYS d   1       6.619  -8.157   7.667  0.00  0.00    -0.346 N 
ATOM      4  H43 LYS d   1       7.543  -8.538   7.694  0.00  0.00     0.163 HD
ENDROOT
BRANCH   1   5
ATOM      5  CA  ASN d   1       7.581  -6.465   6.178  0.00  0.00     0.097 C 
ATOM      6  H38 ASN d   1       8.500  -6.735   6.719  0.00  0.00     0.088 H 
BRANCH   5   7
ATOM      7  N   ASN d   1       7.689  -6.985   4.807  0.00  0.00    -0.346 N 
ATOM      8  C   GLU d   1       8.493  -7.994   4.486  0.00  0.00     0.241 C 
ATOM      9  O   GLU d   1       9.192  -8.584   5.304  0.00  0.00    -0.271 OA
ATOM     10  H37 ASN d   1       7.136  -6.563   4.088  0.00  0.00     0.163 HD
BRANCH   8  11
ATOM     11  CA  GLU d   1       8.522  -8.403   3.025  0.00  0.00     0.090 C 
ATOM     12  H32 GLU d   1       8.254  -7.557   2.375  0.00  0.00     0.087 H 
BRANCH  11  13
ATOM     13  N   GLU d   1       9.895  -8.822   2.785  0.00  0.00    -0.346 N 
ATOM     14  C   ILE d   1      10.857  -7.938   2.563  0.00  0.00     0.241 C 
ATOM     15  O   ILE d   1      10.640  -6.743   2.444  0.00  0.00    -0.271 OA
ATOM     16  H31 GLU d   1      10.117  -9.797   2.788  0.00  0.00     0.163 HD
BRANCH  14  17
ATOM     17  CA  ILE d   1      12.267  -8.492   2.390  0.00  0.00     0.092 C 
ATOM     18  H21 ILE d   1      12.210  -9.500   1.953  0.00  0.00     0.088 H 
BRANCH  17  19
ATOM     19  N   ILE d   1      12.954  -7.619   1.436  0.00  0.00    -0.346 N 
ATOM     20  C   TRP d   1      13.873  -8.101   0.595  0.00  0.00     0.241 C 
ATOM     21  O   TRP d   1      14.288  -9.251   0.665  0.00  0.00    -0.271 OA
ATOM     22  H20 ILE d   1      12.731  -6.644   1.414  0.00  0.00     0.163 HD
BRANCH  20  23
ATOM     23  CA  TRP d   1      14.419  -7.117  -0.445  0.00  0.00     0.093 C 
ATOM     24  H11 TRP d   1      14.592  -6.182   0.107  0.00  0.00     0.088 H 
BRANCH  23  25
ATOM     25  N   TRP d   1      15.668  -7.353  -1.182  0.00  0.00    -0.346 N 
ATOM     26  C   THR d   1      16.772  -6.662  -0.902  0.00  0.00     0.251 C 
ATOM     27  O   THR d   1      16.863  -5.894   0.061  0.00  0.00    -0.271 OA
ATOM     28  H10 TRP d   1      15.690  -8.043  -1.905  0.00  0.00     0.163 HD
BRANCH  26  29
ATOM     29  CA  THR d   1      17.974  -6.875  -1.793  0.00  0.00     0.199 C 
ATOM     30  H4  THR d   1      18.818  -6.294  -1.394  0.00  0.00     0.103 H 
BRANCH  29  31
ATOM     31  N   THR d   1      18.403  -8.301  -1.822  0.00  0.00    -0.064 N 
ATOM     32  H1  THR d   1      19.204  -8.399  -2.426  0.00  0.00     0.275 HD
ATOM     33  H2  THR d   1      17.649  -8.872  -2.170  0.00  0.00     0.275 HD
ATOM     34  H3  THR d   1      18.646  -8.598  -0.890  0.00  0.00     0.275 HD
ENDBRANCH  29  31
BRANCH  29  35
ATOM     35  CB  THR d   1      17.570  -6.257  -3.222  0.00  0.00     0.068 C 
ATOM     36  H5  THR d   1      16.639  -5.687  -3.087  0.00  0.00     0.086 H 
BRANCH  35  37
ATOM     37  CG2 THR d   1      18.634  -5.295  -3.789  0.00  0.00    -0.050 C 
ATOM     38  H7  THR d   1      18.298  -4.909  -4.763  0.00  0.00     0.031 H 
ATOM     39  H8  THR d   1      19.585  -5.833  -3.916  0.00  0.00     0.031 H 
ATOM     40  H9  THR d   1      18.778  -4.456  -3.092  0.00  0.00     0.031 H 
ENDBRANCH  35  37
BRANCH  35  41
ATOM     41  OG1 THR d   1      17.326  -7.301  -4.162  0.00  0.00    -0.393 OA
ATOM     42  H6  THR d   1      16.671  -7.893  -3.813  0.00  0.00     0.210 HD
ENDBRANCH  35  41
ENDBRANCH  29  35
ENDBRANCH  26  29
ENDBRANCH  23  25
BRANCH  23  43
ATOM     43  CB  TRP d   1      13.290  -6.869  -1.456  0.00  0.00    -0.012 C 
ATOM     44  H12 TRP d   1      12.354  -6.739  -0.892  0.00  0.00     0.044 H 
ATOM     45  H13 TRP d   1      13.210  -7.759  -2.098  0.00  0.00     0.044 H 
BRANCH  43  46
ATOM     46  CG  TRP d   1      13.466  -5.639  -2.371  0.00  0.00    -0.028 A 
ATOM     47  CD1 TRP d   1      14.405  -5.462  -3.357  0.00  0.00    -0.015 A 
ATOM     48  NE1 TRP d   1      14.214  -4.263  -3.997  0.00  0.00    -0.365 N 
ATOM     49  H14 TRP d   1      15.193  -6.175  -3.598  0.00  0.00     0.112 H 
ATOM     50  CE2 TRP d   1      13.135  -3.628  -3.443  0.00  0.00     0.042 A 
ATOM     51  H15 TRP d   1      14.790  -3.899  -4.770  0.00  0.00     0.165 HD
ATOM     52  CD2 TRP d   1      12.637  -4.463  -2.401  0.00  0.00    -0.002 A 
ATOM     53  CZ2 TRP d   1      12.557  -2.402  -3.760  0.00  0.00    -0.056 A 
ATOM     54  CE3 TRP d   1      11.526  -4.042  -1.659  0.00  0.00    -0.070 A 
ATOM     55  CZ3 TRP d   1      10.948  -2.817  -1.974  0.00  0.00    -0.082 A 
ATOM     56  H16 TRP d   1      11.127  -4.656  -0.860  0.00  0.00     0.084 H 
ATOM     57  CH2 TRP d   1      11.465  -2.011  -3.020  0.00  0.00    -0.081 A 
ATOM     58  H18 TRP d   1      10.088  -2.473  -1.411  0.00  0.00     0.083 H 
ATOM     59  H19 TRP d   1      10.988  -1.063  -3.242  0.00  0.00     0.083 H 
ATOM     60  H17 TRP d   1      12.951  -1.781  -4.557  0.00  0.00     0.086 H 
ENDBRANCH  43  46
ENDBRANCH  23  43
ENDBRANCH  20  23
ENDBRANCH  17  19
BRANCH  17  61
ATOM     61  CB  ILE d   1      12.970  -8.624   3.824  0.00  0.00    -0.030 C 
ATOM     62  H22 ILE d   1      12.413  -9.372   4.407  0.00  0.00     0.043 H 
BRANCH  61  63
ATOM     63  CG2 ILE d   1      14.416  -9.099   3.699  0.00  0.00    -0.071 C 
ATOM     64  H25 ILE d   1      14.442 -10.055   3.155  0.00  0.00     0.028 H 
ATOM     65  H26 ILE d   1      14.845  -9.236   4.703  0.00  0.00     0.028 H 
ATOM     66  H27 ILE d   1      15.002  -8.348   3.149  0.00  0.00     0.028 H 
ENDBRANCH  61  63
BRANCH  61  67
ATOM     67  CG1 ILE d   1      12.924  -7.309   4.571  0.00  0.00    -0.063 C 
ATOM     68  H23 ILE d   1      12.920  -6.482   3.846  0.00  0.00     0.033 H 
ATOM     69  H24 ILE d   1      13.813  -7.228   5.214  0.00  0.00     0.033 H 
BRANCH  67  70
ATOM     70  CD1 ILE d   1      11.733  -7.226   5.393  0.00  0.00    -0.076 C 
ATOM     71  H28 ILE d   1      11.721  -6.263   5.925  0.00  0.00     0.027 H 
ATOM     72  H29 ILE d   1      11.733  -8.049   6.123  0.00  0.00     0.027 H 
ATOM     73  H30 ILE d   1      10.841  -7.303   4.754  0.00  0.00     0.027 H 
ENDBRANCH  67  70
ENDBRANCH  61  67
ENDBRANCH  17  61
ENDBRANCH  14  17
ENDBRANCH  11  13
BRANCH  11  74
ATOM     74  CB  GLU d   1       7.553  -9.559   2.792  0.00  0.00    -0.029 C 
ATOM     75  H33 GLU d   1       6.878  -9.617   3.659  0.00  0.00     0.037 H 
ATOM     76  H34 GLU d   1       8.140 -10.486   2.721  0.00  0.00     0.037 H 
BRANCH  74  77
ATOM     77  CG  GLU d   1       6.705  -9.446   1.545  0.00  0.00     0.018 C 
ATOM     78  H35 GLU d   1       6.133  -8.508   1.593  0.00  0.00     0.049 H 
ATOM     79  H36 GLU d   1       6.010 -10.298   1.514  0.00  0.00     0.049 H 
BRANCH  77  80
ATOM     80  CD  GLU d   1       7.526  -9.446   0.278  0.00  0.00     0.172 C 
ATOM     81  OE2 GLU d   1       7.310 -10.346  -0.563  0.00  0.00    -0.648 OA
ATOM     82  OE1 GLU d   1       8.381  -8.553   0.107  0.00  0.00    -0.648 OA
ENDBRANCH  77  80
ENDBRANCH  74  77
ENDBRANCH  11  74
ENDBRANCH   8  11
ENDBRANCH   5   7
BRANCH   5  83
ATOM     83  CB  ASN d   1       7.481  -4.931   6.120  0.00  0.00     0.036 C 
ATOM     84  H39 ASN d   1       6.599  -4.660   5.520  0.00  0.00     0.051 H 
ATOM     85  H40 ASN d   1       8.388  -4.539   5.636  0.00  0.00     0.051 H 
BRANCH  83  86
ATOM     86  CG  ASN d   1       7.350  -4.297   7.476  0.00  0.00     0.217 C 
ATOM     87  ND2 ASN d   1       6.635  -3.192   7.526  0.00  0.00    -0.370 N 
ATOM     88  H41 ASN d   1       6.507  -2.718   8.397  0.00  0.00     0.159 HD
ATOM     89  H42 ASN d   1       6.220  -2.827   6.693  0.00  0.00     0.159 HD
ATOM     90  OD1 ASN d   1       7.904  -4.775   8.464  0.00  0.00    -0.274 OA
ENDBRANCH  83  86
ENDBRANCH   5  83
ENDBRANCH   1   5
BRANCH   3  91
ATOM     91  CA  LYS d   1       5.545  -8.824   8.421  0.00  0.00     0.089 C 
ATOM     92  H44 LYS d   1       4.874  -9.300   7.691  0.00  0.00     0.087 H 
BRANCH  91  93
ATOM     93  CB  LYS d   1       6.149  -9.930   9.313  0.00  0.00    -0.038 C 
ATOM     94  H45 LYS d   1       5.458 -10.104  10.151  0.00  0.00     0.036 H 
ATOM     95  H46 LYS d   1       7.111  -9.564   9.701  0.00  0.00     0.036 H 
BRANCH  93  96
ATOM     96  CG  LYS d   1       6.404 -11.291   8.615  0.00  0.00    -0.061 C 
ATOM     97  H47 LYS d   1       5.434 -11.779   8.439  0.00  0.00     0.033 H 
ATOM     98  H48 LYS d   1       7.013 -11.916   9.284  0.00  0.00     0.033 H 
BRANCH  96  99
ATOM     99  CD  LYS d   1       7.126 -11.165   7.286  0.00  0.00    -0.043 C 
ATOM    100  H49 LYS d   1       8.115 -11.639   7.368  0.00  0.00     0.035 H 
ATOM    101  H50 LYS d   1       7.249 -10.099   7.044  0.00  0.00     0.035 H 
BRANCH  99 102
ATOM    102  CE  LYS d   1       6.334 -11.848   6.157  0.00  0.00     0.080 C 
ATOM    103  H51 LYS d   1       6.273 -12.924   6.377  0.00  0.00     0.075 H 
ATOM    104  H52 LYS d   1       6.876 -11.697   5.212  0.00  0.00     0.075 H 
BRANCH 102 105
ATOM    105  NZ  LYS d   1       4.944 -11.320   5.994  0.00  0.00    -0.079 N 
ATOM    106  H53 LYS d   1       4.485 -11.809   5.242  0.00  0.00     0.274 HD
ATOM    107  H54 LYS d   1       4.981 -10.335   5.781  0.00  0.00     0.274 HD
ATOM    108  H55 LYS d   1       4.429 -11.460   6.849  0.00  0.00     0.274 HD
ENDBRANCH 102 105
ENDBRANCH  99 102
ENDBRANCH  96  99
ENDBRANCH  93  96
ENDBRANCH  91  93
BRANCH  91 109
ATOM    109  C   LYS d   1       4.692  -7.860   9.271  0.00  0.00     0.241 C 
ATOM    110  O   LYS d   1       3.482  -8.049   9.417  0.00  0.00    -0.271 OA
ATOM    111  N   LEU d   1       5.330  -6.820   9.804  0.00  0.00    -0.346 N 
ATOM    112  H56 LEU d   1       6.306  -6.714   9.613  0.00  0.00     0.163 HD
BRANCH 111 113
ATOM    113  CA  LEU d   1       4.679  -5.825  10.654  0.00  0.00     0.089 C 
ATOM    114  H57 LEU d   1       4.163  -6.350  11.472  0.00  0.00     0.087 H 
BRANCH 113 115
ATOM    115  CB  LEU d   1       5.765  -4.919  11.255  0.00  0.00    -0.035 C 
ATOM    116  H58 LEU d   1       5.984  -4.147  10.502  0.00  0.00     0.037 H 
ATOM    117  H59 LEU d   1       6.654  -5.549  11.403  0.00  0.00     0.037 H 
BRANCH 115 118
ATOM    118  CG  LEU d   1       5.525  -4.190  12.568  0.00  0.00    -0.059 C 
ATOM    119  H60 LEU d   1       6.469  -4.169  13.133  0.00  0.00     0.038 H 
BRANCH 118 120
ATOM    120  CD1 LEU d   1       5.126  -2.775  12.265  0.00  0.00    -0.073 C 
ATOM    121  H61 LEU d   1       4.949  -2.234  13.207  0.00  0.00     0.028 H 
ATOM    122  H62 LEU d   1       4.205  -2.775  11.663  0.00  0.00     0.028 H 
ATOM    123  H63 LEU d   1       5.931  -2.279  11.704  0.00  0.00     0.028 H 
ENDBRANCH 118 120
BRANCH 118 124
ATOM    124  CD2 LEU d   1       4.485  -4.915  13.424  0.00  0.00    -0.073 C 
ATOM    125  H64 LEU d   1       4.822  -5.944  13.618  0.00  0.00     0.028 H 
ATOM    126  H65 LEU d   1       3.523  -4.939  12.891  0.00  0.00     0.028 H 
ATOM    127  H66 LEU d   1       4.362  -4.384  14.379  0.00  0.00     0.028 H 
ENDBRANCH 118 124
ENDBRANCH 115 118
ENDBRANCH 113 115
BRANCH 113 128
ATOM    128  C   LEU d   1       3.640  -4.997   9.897  0.00  0.00     0.241 C 
ATOM    129  O   LEU d   1       3.005  -4.116  10.452  0.00  0.00    -0.271 OA
ATOM    130  N   PTR d   1       3.467  -5.304   8.622  0.00  0.00    -0.346 N 
ATOM    131  H67 PTR d   1       3.996  -6.057   8.230  0.00  0.00     0.163 HD
BRANCH 130 132
ATOM    132  CA  PTR d   1       2.538  -4.587   7.775  0.00  0.00     0.093 C 
ATOM    133  H68 PTR d   1       2.726  -3.515   7.937  0.00  0.00     0.088 H 
BRANCH 132 134
ATOM    134  CB  PTR d   1       2.828  -4.910   6.321  0.00  0.00    -0.014 C 
ATOM    135  H69 PTR d   1       2.534  -5.950   6.116  0.00  0.00     0.043 H 
ATOM    136  H70 PTR d   1       3.905  -4.789   6.132  0.00  0.00     0.043 H 
BRANCH 134 137
ATOM    137  CG  PTR d   1       2.072  -4.005   5.424  0.00  0.00    -0.056 A 
ATOM    138  CD1 PTR d   1       2.494  -2.687   5.262  0.00  0.00    -0.074 A 
ATOM    139  CE1 PTR d   1       1.718  -1.772   4.601  0.00  0.00    -0.051 A 
ATOM    140  H71 PTR d   1       3.452  -2.381   5.666  0.00  0.00     0.084 H 
ATOM    141  CZ  PTR d   1       0.502  -2.163   4.090  0.00  0.00     0.065 A 
ATOM    142  H73 PTR d   1       2.059  -0.750   4.482  0.00  0.00     0.087 H 
ATOM    143  CE2 PTR d   1       0.043  -3.480   4.207  0.00  0.00    -0.051 A 
ATOM    144  CD2 PTR d   1       0.838  -4.392   4.875  0.00  0.00    -0.074 A 
ATOM    145  H74 PTR d   1      -0.910  -3.777   3.785  0.00  0.00     0.087 H 
ATOM    146  H72 PTR d   1       0.505  -5.419   4.977  0.00  0.00     0.084 H 
BRANCH 141 147
ATOM    147  OH  PTR d   1      -0.254  -1.193   3.519  0.00  0.00    -0.361 OA
ATOM    148  H75 PTR d   1       0.224  -0.372   3.531  0.00  0.00     0.217 HD
ENDBRANCH 141 147
ENDBRANCH 134 137
ENDBRANCH 132 134
BRANCH 132 149
ATOM    149  C   PTR d   1       1.047  -4.819   8.025  0.00  0.00     0.241 C 
ATOM    150  O   PTR d   1       0.527  -5.906   7.783  0.00  0.00    -0.271 OA
ATOM    151  N   GLY d   1       0.359  -3.776   8.474  0.00  0.00    -0.351 N 
ATOM    152  H76 GLY d   1       0.830  -2.910   8.641  0.00  0.00     0.163 HD
BRANCH 151 153
ATOM    153  CA  GLY d   1      -1.063  -3.875   8.725  0.00  0.00     0.069 C 
ATOM    154  H77 GLY d   1      -1.489  -4.587   8.002  0.00  0.00     0.078 H 
ATOM    155  H78 GLY d   1      -1.508  -2.881   8.566  0.00  0.00     0.078 H 
BRANCH 153 156
ATOM    156  C   GLY d   1      -1.435  -4.340  10.118  0.00  0.00     0.236 C 
ATOM    157  O   GLY d   1      -2.582  -4.714  10.345  0.00  0.00    -0.272 OA
ATOM    158  N   MET d   1      -0.489  -4.322  11.058  0.00  0.00    -0.345 N 
ATOM    159  H79 MET d   1       0.433  -4.012  10.825  0.00  0.00     0.163 HD
BRANCH 158 160
ATOM    160  CA  MET d   1      -0.784  -4.751  12.430  0.00  0.00     0.094 C 
ATOM    161  H80 MET d   1      -1.730  -5.312  12.412  0.00  0.00     0.089 H 
BRANCH 160 162
ATOM    162  CB  MET d   1       0.325  -5.671  12.951  0.00  0.00    -0.029 C 
ATOM    163  H81 MET d   1      -0.037  -6.158  13.869  0.00  0.00     0.037 H 
ATOM    164  H82 MET d   1       1.202  -5.050  13.186  0.00  0.00     0.037 H 
BRANCH 162 165
ATOM    165  CG  MET d   1       0.757  -6.748  11.988  0.00  0.00    -0.021 C 
ATOM    166  H83 MET d   1       1.573  -6.358  11.362  0.00  0.00     0.049 H 
ATOM    167  H84 MET d   1      -0.098  -7.017  11.350  0.00  0.00     0.049 H 
BRANCH 165 168
ATOM    168  SD  MET d   1       1.331  -8.218  12.835  0.00  0.00    -0.173 SA
BRANCH 168 169
ATOM    169  CE  MET d   1       3.129  -7.924  12.965  0.00  0.00    -0.035 C 
ATOM    170  H85 MET d   1       3.603  -8.774  13.477  0.00  0.00     0.041 H 
ATOM    171  H86 MET d   1       3.309  -7.003  13.539  0.00  0.00     0.041 H 
ATOM    172  H87 MET d   1       3.557  -7.818  11.957  0.00  0.00     0.041 H 
ENDBRANCH 168 169
ENDBRANCH 165 168
ENDBRANCH 162 165
ENDBRANCH 160 162
BRANCH 160 173
ATOM    173  C   MET d   1      -0.941  -3.569  13.417  0.00  0.00     0.163 C 
ATOM    174  O   MET d   1      -2.084  -3.090  13.675  0.00  0.00    -0.648 OA
BRANCH 173 175
ATOM    175  O1  MET d   1       0.136  -3.051  14.000  0.00  0.00    -0.775 OA
ATOM    176  H88 MET d   1       0.056  -3.135  14.943  0.00  0.00     0.167 HD
ENDBRANCH 173 175
ENDBRANCH 160 173
ENDBRANCH 158 160
ENDBRANCH 153 156
ENDBRANCH 151 153
ENDBRANCH 132 149
ENDBRANCH 130 132
ENDBRANCH 113 128
ENDBRANCH 111 113
ENDBRANCH  91 109
ENDBRANCH   3  91
TORSDOF 51
