REMARK  3 active torsions:
REMARK  status: ('A' for Active; 'I' for Inactive)
REMARK    1  A    between atoms: C1_1  and  C2_2 
REMARK    2  A    between atoms: C2_2  and  C3_3 
REMARK    3  A    between atoms: C3_3  and  C4_4 
ROOT
ATOM      1  C2  BUA d   1       8.792  34.859  19.076  0.00  0.00    -0.059 C 
ATOM      2  H4  BUA d   1       9.011  35.657  19.801  0.00  0.00     0.033 H 
ATOM      3  H5  BUA d   1       7.833  35.068  18.579  0.00  0.00     0.033 H 
ENDROOT
BRANCH   1   4
ATOM      4  C1  BUA d   1       8.348  33.738  20.045  0.00  0.00    -0.076 C 
ATOM      5  H1  BUA d   1       7.518  34.101  20.670  0.00  0.00     0.027 H 
ATOM      6  H2  BUA d   1       9.194  33.453  20.688  0.00  0.00     0.027 H 
ATOM      7  H3  BUA d   1       8.016  32.863  19.466  0.00  0.00     0.027 H 
ENDBRANCH   1   4
BRANCH   1   8
ATOM      8  C3  BUA d   1       9.767  35.257  17.944  0.00  0.00     0.015 C 
ATOM      9  H6  BUA d   1      10.715  34.715  18.076  0.00  0.00     0.049 H 
ATOM     10  H7  BUA d   1       9.954  36.340  17.993  0.00  0.00     0.049 H 
BRANCH   8  11
ATOM     11  C4  BUA d   1       9.176  34.910  16.575  0.00  0.00     0.172 C 
ATOM     12  O1  BUA d   1       9.302  35.749  15.645  0.00  0.00    -0.648 OA
ATOM     13  O2  BUA d   1       8.606  33.820  16.436  0.00  0.00    -0.648 OA
ENDBRANCH   8  11
ENDBRANCH   1   8
TORSDOF 3
