REMARK  6 active torsions:
REMARK  status: ('A' for Active; 'I' for Inactive)
REMARK    1  A    between atoms: C1_1  and  O1_7 
REMARK    2  A    between atoms: C2_2  and  O2_8 
REMARK    3  A    between atoms: C3_3  and  O3_9 
REMARK    4  A    between atoms: C4_4  and  O4_10 
REMARK    5  A    between atoms: C5_5  and  C6_6 
REMARK    6  A    between atoms: C6_6  and  O6_12 
ROOT
ATOM      1  C1  NON d   1      51.600  54.879  66.445  0.00  0.00     0.156 C 
ATOM      2  C2  NON d   1      52.329  56.227  66.185  0.00  0.00     0.110 C 
ATOM      3  C3  NON d   1      52.269  57.144  67.415  0.00  0.00     0.092 C 
ATOM      4  C4  NON d   1      50.802  57.286  67.887  0.00  0.00     0.090 C 
ATOM      5  C5  NON d   1      50.250  55.888  68.132  0.00  0.00     0.089 C 
ATOM      6  O5  NON d   1      50.266  55.128  66.905  0.00  0.00    -0.349 OA
ATOM      7  H1  NON d   1      52.157  54.298  67.195  0.00  0.00     0.133 H 
ATOM      8  H2  NON d   1      51.839  56.736  65.342  0.00  0.00     0.094 H 
ATOM      9  H3  NON d   1      52.876  56.718  68.227  0.00  0.00     0.091 H 
ATOM     10  H4  NON d   1      50.763  57.872  68.817  0.00  0.00     0.091 H 
ATOM     11  H5  NON d   1      50.903  55.392  68.865  0.00  0.00     0.090 H 
ENDROOT
BRANCH   5  12
ATOM     12  C6  NON d   1      48.839  55.883  68.679  0.00  0.00     0.043 C 
ATOM     13  H6  NON d   1      48.759  56.647  69.467  0.00  0.00     0.078 H 
ATOM     14  H7  NON d   1      48.625  54.892  69.106  0.00  0.00     0.078 H 
BRANCH  12  15
ATOM     15  O6  NON d   1      47.888  56.163  67.670  0.00  0.00    -0.398 OA
ATOM     16  H12 NON d   1      48.064  57.020  67.300  0.00  0.00     0.209 HD
ENDBRANCH  12  15
ENDBRANCH   5  12
BRANCH   4  17
ATOM     17  O4  NON d   1      50.035  57.942  66.877  0.00  0.00    -0.390 OA
ATOM     18  H11 NON d   1      49.130  58.007  67.160  0.00  0.00     0.210 HD
ENDBRANCH   4  17
BRANCH   3  19
ATOM     19  O3  NON d   1      52.781  58.410  67.050  0.00  0.00    -0.390 OA
ATOM     20  H10 NON d   1      52.747  58.992  67.800  0.00  0.00     0.210 HD
ENDBRANCH   3  19
BRANCH   1  21
ATOM     21  O1  NON d   1      51.495  54.158  65.264  0.00  0.00    -0.369 OA
ATOM     22  H8  NON d   1      51.009  54.667  64.626  0.00  0.00     0.212 HD
ENDBRANCH   1  21
BRANCH   2  23
ATOM     23  O2  NON d   1      53.685  55.971  65.849  0.00  0.00    -0.388 OA
ATOM     24  H9  NON d   1      54.122  56.792  65.654  0.00  0.00     0.210 HD
ENDBRANCH   2  23
TORSDOF 6
