REMARK  12 active torsions:
REMARK  status: ('A' for Active; 'I' for Inactive)
REMARK    1  A    between atoms: O6_23  and  C1_1 
REMARK    2  A    between atoms: C2_2  and  O2_7 
REMARK    3  A    between atoms: C3_3  and  O3_8 
REMARK    4  A    between atoms: C4_4  and  O4_9 
REMARK    5  A    between atoms: C5_5  and  C6_6 
REMARK    6  A    between atoms: C6_6  and  O6_11 
REMARK    7  A    between atoms: C1_12  and  O1_18 
REMARK    8  A    between atoms: C2_13  and  O2_19 
REMARK    9  A    between atoms: C3_14  and  O3_20 
REMARK   10  A    between atoms: C4_15  and  O4_21 
REMARK   11  A    between atoms: C6_17  and  C5_16 
REMARK   12  A    between atoms: C6_17  and  O6_23 
ROOT
ATOM      1  O6  NON d   1      52.313  53.856  67.358  0.00  0.00    -0.356 OA
ENDROOT
BRANCH   1   2
ATOM      2  C1  NON d   1      51.600  54.610  66.443  0.00  0.00     0.158 C 
ATOM      3  C2  NON d   1      52.375  55.888  66.146  0.00  0.00     0.110 C 
ATOM      4  C3  NON d   1      52.356  56.812  67.351  0.00  0.00     0.092 C 
ATOM      5  H2  NON d   1      51.919  56.401  65.286  0.00  0.00     0.094 H 
ATOM      6  C4  NON d   1      50.920  57.036  67.836  0.00  0.00     0.090 C 
ATOM      7  H3  NON d   1      52.928  56.341  68.164  0.00  0.00     0.091 H 
ATOM      8  C5  NON d   1      50.238  55.687  68.101  0.00  0.00     0.089 C 
ATOM      9  H4  NON d   1      50.943  57.610  68.774  0.00  0.00     0.091 H 
ATOM     10  O5  NON d   1      50.278  54.891  66.900  0.00  0.00    -0.348 OA
ATOM     11  H5  NON d   1      50.826  55.175  68.877  0.00  0.00     0.090 H 
ATOM     12  H1  NON d   1      51.516  54.032  65.511  0.00  0.00     0.133 H 
BRANCH   3  13
ATOM     13  O2  NON d   1      53.722  55.548  65.843  0.00  0.00    -0.388 OA
ATOM     14  H8  NON d   1      54.112  55.109  66.590  0.00  0.00     0.210 HD
ENDBRANCH   3  13
BRANCH   4  15
ATOM     15  O3  NON d   1      52.976  58.055  67.019  0.00  0.00    -0.390 OA
ATOM     16  H9  NON d   1      52.994  58.614  67.787  0.00  0.00     0.210 HD
ENDBRANCH   4  15
BRANCH   6  17
ATOM     17  O4  NON d   1      50.210  57.779  66.860  0.00  0.00    -0.390 OA
ATOM     18  H10 NON d   1      49.325  57.939  67.167  0.00  0.00     0.210 HD
ENDBRANCH   6  17
BRANCH   8  19
ATOM     19  C6  NON d   1      48.800  55.758  68.603  0.00  0.00     0.043 C 
ATOM     20  H6  NON d   1      48.709  56.594  69.312  0.00  0.00     0.078 H 
ATOM     21  H7  NON d   1      48.551  54.816  69.113  0.00  0.00     0.078 H 
BRANCH  19  22
ATOM     22  O6  NON d   1      47.894  55.958  67.536  0.00  0.00    -0.398 OA
ATOM     23  H11 NON d   1      48.102  56.773  67.094  0.00  0.00     0.209 HD
ENDBRANCH  19  22
ENDBRANCH   8  19
ENDBRANCH   1   2
BRANCH   1  24
ATOM     24  C6  NON d   1      51.760  52.550  67.554  0.00  0.00     0.049 C 
ATOM     25  H17 NON d   1      50.949  52.590  68.296  0.00  0.00     0.078 H 
ATOM     26  H18 NON d   1      51.368  52.158  66.604  0.00  0.00     0.078 H 
BRANCH  24  27
ATOM     27  C5  NON d   1      52.861  51.687  68.047  0.00  0.00     0.089 C 
ATOM     28  C4  NON d   1      53.551  51.010  66.857  0.00  0.00     0.090 C 
ATOM     29  C3  NON d   1      54.484  49.888  67.291  0.00  0.00     0.092 C 
ATOM     30  H15 NON d   1      52.782  50.593  66.190  0.00  0.00     0.091 H 
ATOM     31  C2  NON d   1      53.822  48.990  68.347  0.00  0.00     0.110 C 
ATOM     32  H14 NON d   1      55.396  50.327  67.722  0.00  0.00     0.091 H 
ATOM     33  C1  NON d   1      53.296  49.859  69.486  0.00  0.00     0.156 C 
ATOM     34  H13 NON d   1      52.979  48.454  67.886  0.00  0.00     0.094 H 
ATOM     35  O5  NON d   1      52.294  50.735  68.962  0.00  0.00    -0.349 OA
ATOM     36  H12 NON d   1      54.124  50.450  69.904  0.00  0.00     0.133 H 
ATOM     37  H16 NON d   1      53.601  52.301  68.581  0.00  0.00     0.090 H 
BRANCH  28  38
ATOM     38  O4  NON d   1      54.306  51.991  66.157  0.00  0.00    -0.390 OA
ATOM     39  H22 NON d   1      53.724  52.676  65.849  0.00  0.00     0.210 HD
ENDBRANCH  28  38
BRANCH  29  40
ATOM     40  O3  NON d   1      54.828  49.118  66.150  0.00  0.00    -0.390 OA
ATOM     41  H21 NON d   1      54.039  48.753  65.766  0.00  0.00     0.210 HD
ENDBRANCH  29  40
BRANCH  31  42
ATOM     42  O2  NON d   1      54.754  48.040  68.840  0.00  0.00    -0.388 OA
ATOM     43  H20 NON d   1      54.332  47.492  69.491  0.00  0.00     0.210 HD
ENDBRANCH  31  42
BRANCH  33  44
ATOM     44  O1  NON d   1      52.738  49.084  70.491  0.00  0.00    -0.369 OA
ATOM     45  H19 NON d   1      53.399  48.500  70.843  0.00  0.00     0.212 HD
ENDBRANCH  33  44
ENDBRANCH  24  27
ENDBRANCH   1  24
TORSDOF 12
