REMARK  14 active torsions:
REMARK  status: ('A' for Active; 'I' for Inactive)
REMARK    1  A    between atoms: O3_24  and  C1_1 
REMARK    2  A    between atoms: C2_2  and  N2_9 
REMARK    3  A    between atoms: C3_3  and  O3_10 
REMARK    4  A    between atoms: C4_4  and  O4_11 
REMARK    5  A    between atoms: C5_5  and  C6_6 
REMARK    6  A    between atoms: C6_6  and  O6_13 
REMARK    7  A    between atoms: C7_7  and  C8_8 
REMARK       I    between atoms: N2_9  and  C7_7 
REMARK    8  A    between atoms: C1_15  and  O1_22 
REMARK    9  A    between atoms: C2_16  and  O2_23 
REMARK   10  A    between atoms: C3_17  and  O3_24 
REMARK   11  A    between atoms: C4_18  and  O4_25 
REMARK   12  A    between atoms: C5_19  and  C6_20 
REMARK   13  A    between atoms: C6_20  and  O6_27 
REMARK   14  A    between atoms: O1_22  and  C7_21 
ROOT
ATOM      1  C1  NGA d   1      30.342  85.051  38.828  0.00  0.00     0.154 C 
ATOM      2  C2  NGA d   1      29.929  85.091  40.321  0.00  0.00     0.087 C 
ATOM      3  C3  NGA d   1      30.782  84.038  41.076  0.00  0.00     0.086 C 
ATOM      4  C4  NGA d   1      30.485  82.571  40.512  0.00  0.00     0.089 C 
ATOM      5  C5  NGA d   1      31.009  82.540  38.995  0.00  0.00     0.089 C 
ATOM      6  O5  NGA d   1      30.203  83.666  38.270  0.00  0.00    -0.349 OA
ATOM      7  H1  NGA d   1      31.386  85.390  38.758  0.00  0.00     0.132 H 
ATOM      8  H2  NGA d   1      28.864  84.843  40.439  0.00  0.00     0.084 H 
ATOM      9  H3  NGA d   1      31.853  84.270  40.979  0.00  0.00     0.090 H 
ATOM     10  H4  NGA d   1      31.035  81.826  41.106  0.00  0.00     0.091 H 
ATOM     11  H5  NGA d   1      32.083  82.775  38.973  0.00  0.00     0.090 H 
ENDROOT
BRANCH   1  12
ATOM     12  O3  AMG d   1      29.660  85.700  38.082  0.00  0.00    -0.348 OA
BRANCH  12  13
ATOM     13  C3  AMG d   1      30.207  86.062  36.752  0.00  0.00     0.098 C 
ATOM     14  C2  AMG d   1      29.976  87.643  36.640  0.00  0.00     0.110 C 
ATOM     15  C1  AMG d   1      30.385  88.080  35.316  0.00  0.00     0.158 C 
ATOM     16  H16 NGA d   1      28.906  87.869  36.760  0.00  0.00     0.094 H 
ATOM     17  O5  AMG d   1      29.630  87.382  34.317  0.00  0.00    -0.349 OA
ATOM     18  H15 NGA d   1      30.122  89.146  35.254  0.00  0.00     0.133 H 
ATOM     19  C5  AMG d   1      29.844  85.927  34.228  0.00  0.00     0.089 C 
ATOM     20  C4  AMG d   1      29.435  85.332  35.581  0.00  0.00     0.090 C 
ATOM     21  H19 NGA d   1      30.925  85.749  34.133  0.00  0.00     0.090 H 
ATOM     22  H18 NGA d   1      29.647  84.253  35.580  0.00  0.00     0.091 H 
ATOM     23  H17 NGA d   1      31.278  85.816  36.696  0.00  0.00     0.091 H 
BRANCH  14  24
ATOM     24  O2  AMG d   1      30.671  88.240  37.690  0.00  0.00    -0.388 OA
ATOM     25  H25 NGA d   1      30.337  87.912  38.517  0.00  0.00     0.210 HD
ENDBRANCH  14  24
BRANCH  15  26
ATOM     26  O1  AMG d   1      31.794  87.989  34.979  0.00  0.00    -0.363 OA
BRANCH  26  27
ATOM     27  C7  AMG d   1      32.341  88.646  33.781  0.00  0.00     0.007 C 
ATOM     28  H22 NGA d   1      33.422  88.450  33.717  0.00  0.00     0.066 H 
ATOM     29  H23 NGA d   1      32.168  89.730  33.846  0.00  0.00     0.066 H 
ATOM     30  H24 NGA d   1      31.842  88.248  32.885  0.00  0.00     0.066 H 
ENDBRANCH  26  27
ENDBRANCH  15  26
BRANCH  19  31
ATOM     31  C6  AMG d   1      29.232  85.380  32.947  0.00  0.00     0.043 C 
ATOM     32  H20 NGA d   1      29.299  84.282  32.944  0.00  0.00     0.078 H 
ATOM     33  H21 NGA d   1      29.772  85.783  32.077  0.00  0.00     0.078 H 
BRANCH  31  34
ATOM     34  O6  AMG d   1      27.872  85.775  32.889  0.00  0.00    -0.398 OA
ATOM     35  H27 NGA d   1      27.410  85.427  33.642  0.00  0.00     0.209 HD
ENDBRANCH  31  34
ENDBRANCH  19  31
BRANCH  20  36
ATOM     36  O4  AMG d   1      28.084  85.569  35.892  0.00  0.00    -0.390 OA
ATOM     37  H26 NGA d   1      27.533  85.179  35.224  0.00  0.00     0.210 HD
ENDBRANCH  20  36
ENDBRANCH  12  13
ENDBRANCH   1  12
BRANCH   2  38
ATOM     38  N2  NGA d   1      30.157  86.442  40.748  0.00  0.00    -0.349 N 
ATOM     39  C7  NGA d   1      29.280  87.528  40.578  0.00  0.00     0.214 C 
ATOM     40  O7  NGA d   1      28.175  87.456  40.003  0.00  0.00    -0.274 OA
ATOM     41  H11 NGA d   1      31.023  86.629  41.211  0.00  0.00     0.163 HD
BRANCH  39  42
ATOM     42  C8  NGA d   1      29.727  88.870  41.106  0.00  0.00    -0.003 C 
ATOM     43  H8  NGA d   1      28.948  89.621  40.905  0.00  0.00     0.040 H 
ATOM     44  H9  NGA d   1      30.661  89.168  40.607  0.00  0.00     0.040 H 
ATOM     45  H10 NGA d   1      29.897  88.799  42.190  0.00  0.00     0.040 H 
ENDBRANCH  39  42
ENDBRANCH   2  38
BRANCH   3  46
ATOM     46  O3  NGA d   1      30.383  84.087  42.410  0.00  0.00    -0.391 OA
ATOM     47  H12 NGA d   1      29.454  83.898  42.469  0.00  0.00     0.210 HD
ENDBRANCH   3  46
BRANCH   5  48
ATOM     48  C6  NGA d   1      30.799  81.180  38.312  0.00  0.00     0.043 C 
ATOM     49  H6  NGA d   1      29.754  80.872  38.463  0.00  0.00     0.078 H 
ATOM     50  H7  NGA d   1      31.469  80.446  38.783  0.00  0.00     0.078 H 
BRANCH  48  51
ATOM     51  O6  NGA d   1      31.071  81.203  36.886  0.00  0.00    -0.398 OA
ATOM     52  H14 NGA d   1      30.924  80.338  36.523  0.00  0.00     0.209 HD
ENDBRANCH  48  51
ENDBRANCH   5  48
BRANCH   4  53
ATOM     53  O4  NGA d   1      29.085  82.281  40.590  0.00  0.00    -0.390 OA
ATOM     54  H13 NGA d   1      28.601  82.928  40.091  0.00  0.00     0.210 HD
ENDBRANCH   4  53
TORSDOF 14
