REMARK WARNING: 32 MAX_TORS EXCEEDED!!!
REMARK  37 active torsions:
REMARK  status: ('A' for Active; 'I' for Inactive)
REMARK    1  A    between atoms: N_1  and  CA_2 
REMARK    2  A    between atoms: CA_2  and  C_3 
REMARK    3  A    between atoms: CA_2  and  CB_5 
REMARK       I    between atoms: C_3  and  N_9 
REMARK    4  A    between atoms: CB_5  and  CG_6 
REMARK    5  A    between atoms: N_9  and  CA_10 
REMARK    6  A    between atoms: CA_10  and  C_11 
REMARK    7  A    between atoms: CA_10  and  CB_13 
REMARK       I    between atoms: C_11  and  N_17 
REMARK    8  A    between atoms: CB_13  and  CG_14 
REMARK    9  A    between atoms: N_17  and  CA_18 
REMARK   10  A    between atoms: CA_18  and  C_19 
REMARK   11  A    between atoms: CA_18  and  CB_21 
REMARK       I    between atoms: C_19  and  N_25 
REMARK   12  A    between atoms: CB_21  and  CG1_22 
REMARK   13  A    between atoms: CB_21  and  CG2_23 
REMARK   14  A    between atoms: CG1_22  and  CD1_24 
REMARK   15  A    between atoms: N_25  and  CA_26 
REMARK   16  A    between atoms: CA_26  and  C_27 
REMARK   17  A    between atoms: CA_26  and  CB_29 
REMARK       I    between atoms: C_27  and  N_31 
REMARK   18  A    between atoms: CB_29  and  OG_30 
REMARK   19  A    between atoms: N_31  and  CA_32 
REMARK   20  A    between atoms: CA_32  and  C_33 
REMARK   21  A    between atoms: CA_32  and  CB_35 
REMARK       I    between atoms: C_33  and  N_39 
REMARK   22  A    between atoms: CB_35  and  CG_36 
REMARK   23  A    between atoms: CG_36  and  CD1_37 
REMARK   24  A    between atoms: CG_36  and  CD2_38 
REMARK   25  A    between atoms: N_39  and  CA_40 
REMARK   26  A    between atoms: CA_40  and  C_41 
REMARK   27  A    between atoms: CA_40  and  CB_43 
REMARK       I    between atoms: C_41  and  N_47 
REMARK   28  A    between atoms: CB_43  and  CG_44 
REMARK   29  A    between atoms: CG_44  and  CD1_45 
REMARK   30  A    between atoms: CG_44  and  CD2_46 
REMARK   31  A    between atoms: N_47  and  CA_48 
REMARK   32  A    between atoms: CA_48  and  C_49 
REMARK   33  A    between atoms: CA_48  and  CB_51 
REMARK   34  A    between atoms: CB_51  and  CG_52 
REMARK   35  A    between atoms: CG_52  and  CD_53 
REMARK   36  A    between atoms: CD_53  and  CE_54 
REMARK   37  A    between atoms: CE_54  and  NZ_55 
ROOT
ATOM      1  CA  LEU d   1     117.358  10.903  15.507  0.00  0.00     0.089 C 
ATOM      2  H28 LEU d   1     116.958  11.926  15.446  0.00  0.00     0.087 H 
ENDROOT
BRANCH   1   3
ATOM      3  N   LEU d   1     116.715  10.094  14.470  0.00  0.00    -0.346 N 
ATOM      4  C   SER d   1     116.727  10.438  13.182  0.00  0.00     0.243 C 
ATOM      5  O   SER d   1     117.266  11.463  12.755  0.00  0.00    -0.271 OA
ATOM      6  H27 LEU d   1     116.249   9.251  14.738  0.00  0.00     0.163 HD
BRANCH   4   7
ATOM      7  CA  SER d   1     116.020   9.481  12.229  0.00  0.00     0.109 C 
ATOM      8  H23 SER d   1     115.055   9.188  12.669  0.00  0.00     0.090 H 
BRANCH   7   9
ATOM      9  N   SER d   1     115.776  10.125  10.951  0.00  0.00    -0.344 N 
ATOM     10  C   ILE d   1     114.687  10.853  10.748  0.00  0.00     0.241 C 
ATOM     11  O   ILE d   1     113.829  10.999  11.615  0.00  0.00    -0.271 OA
ATOM     12  H22 SER d   1     116.441  10.018  10.211  0.00  0.00     0.163 HD
BRANCH  10  13
ATOM     13  CA  ILE d   1     114.527  11.494   9.362  0.00  0.00     0.092 C 
ATOM     14  H12 ILE d   1     114.627  10.708   8.598  0.00  0.00     0.088 H 
BRANCH  13  15
ATOM     15  N   ILE d   1     113.201  12.090   9.246  0.00  0.00    -0.346 N 
ATOM     16  C   ASP d   1     112.111  11.332   9.149  0.00  0.00     0.241 C 
ATOM     17  O   ASP d   1     112.159  10.106   9.146  0.00  0.00    -0.271 OA
ATOM     18  H11 ILE d   1     113.109  13.086   9.239  0.00  0.00     0.163 HD
BRANCH  16  19
ATOM     19  CA  ASP d   1     110.770  12.053   9.035  0.00  0.00     0.098 C 
ATOM     20  H8  ASP d   1     110.935  13.035   8.568  0.00  0.00     0.088 H 
BRANCH  19  21
ATOM     21  N   ASP d   1     109.855  11.281   8.210  0.00  0.00    -0.345 N 
ATOM     22  C   ASP d   1     108.763  11.827   7.684  0.00  0.00     0.249 C 
ATOM     23  O   ASP d   1     108.467  13.020   7.838  0.00  0.00    -0.271 OA
ATOM     24  H7  ASP d   1     110.052  10.316   8.034  0.00  0.00     0.163 HD
BRANCH  22  25
ATOM     25  CA  ASP d   1     107.881  10.894   6.843  0.00  0.00     0.185 C 
ATOM     26  H4  ASP d   1     107.954   9.872   7.242  0.00  0.00     0.100 H 
BRANCH  25  27
ATOM     27  N   ASP d   1     106.455  11.336   6.907  0.00  0.00    -0.066 N 
ATOM     28  H1  ASP d   1     105.886  10.716   6.352  0.00  0.00     0.275 HD
ATOM     29  H2  ASP d   1     106.378  12.275   6.548  0.00  0.00     0.275 HD
ATOM     30  H3  ASP d   1     106.139  11.315   7.864  0.00  0.00     0.275 HD
ENDBRANCH  25  27
BRANCH  25  31
ATOM     31  CB  ASP d   1     108.384  10.903   5.393  0.00  0.00     0.050 C 
ATOM     32  H5  ASP d   1     107.648  10.385   4.761  0.00  0.00     0.052 H 
ATOM     33  H6  ASP d   1     109.345  10.369   5.349  0.00  0.00     0.052 H 
BRANCH  31  34
ATOM     34  CG  ASP d   1     108.584  12.316   4.854  0.00  0.00     0.175 C 
ATOM     35  OD1 ASP d   1     107.579  13.038   4.664  0.00  0.00    -0.648 OA
ATOM     36  OD2 ASP d   1     109.751  12.706   4.635  0.00  0.00    -0.648 OA
ENDBRANCH  31  34
ENDBRANCH  25  31
ENDBRANCH  22  25
ENDBRANCH  19  21
BRANCH  19  37
ATOM     37  CB  ASP d   1     110.144  12.257  10.419  0.00  0.00     0.043 C 
ATOM     38  H9  ASP d   1     109.870  11.274  10.829  0.00  0.00     0.052 H 
ATOM     39  H10 ASP d   1     109.239  12.873  10.308  0.00  0.00     0.052 H 
BRANCH  37  40
ATOM     40  CG  ASP d   1     111.079  12.943  11.392  0.00  0.00     0.175 C 
ATOM     41  OD1 ASP d   1     111.810  13.854  10.973  0.00  0.00    -0.648 OA
ATOM     42  OD2 ASP d   1     111.074  12.582  12.586  0.00  0.00    -0.648 OA
ENDBRANCH  37  40
ENDBRANCH  19  37
ENDBRANCH  16  19
ENDBRANCH  13  15
BRANCH  13  43
ATOM     43  CB  ILE d   1     115.636  12.563   9.116  0.00  0.00    -0.030 C 
ATOM     44  H13 ILE d   1     115.400  13.110   8.191  0.00  0.00     0.043 H 
BRANCH  43  45
ATOM     45  CG1 ILE d   1     117.002  11.884   8.963  0.00  0.00    -0.063 C 
ATOM     46  H14 ILE d   1     116.964  11.228   8.081  0.00  0.00     0.033 H 
ATOM     47  H15 ILE d   1     117.189  11.279   9.862  0.00  0.00     0.033 H 
BRANCH  45  48
ATOM     48  CD1 ILE d   1     118.171  12.857   8.788  0.00  0.00    -0.076 C 
ATOM     49  H19 ILE d   1     119.108  12.290   8.686  0.00  0.00     0.027 H 
ATOM     50  H20 ILE d   1     118.235  13.515   9.667  0.00  0.00     0.027 H 
ATOM     51  H21 ILE d   1     118.010  13.465   7.885  0.00  0.00     0.027 H 
ENDBRANCH  45  48
ENDBRANCH  43  45
BRANCH  43  52
ATOM     52  CG2 ILE d   1     115.703  13.551  10.270  0.00  0.00    -0.071 C 
ATOM     53  H16 ILE d   1     114.727  14.044  10.388  0.00  0.00     0.028 H 
ATOM     54  H17 ILE d   1     116.473  14.308  10.060  0.00  0.00     0.028 H 
ATOM     55  H18 ILE d   1     115.958  13.016  11.197  0.00  0.00     0.028 H 
ENDBRANCH  43  52
ENDBRANCH  13  43
ENDBRANCH  10  13
ENDBRANCH   7   9
BRANCH   7  56
ATOM     56  CB  SER d   1     116.877   8.231  12.029  0.00  0.00     0.044 C 
ATOM     57  H24 SER d   1     117.056   7.756  13.005  0.00  0.00     0.077 H 
ATOM     58  H25 SER d   1     117.838   8.520  11.579  0.00  0.00     0.077 H 
BRANCH  56  59
ATOM     59  OG  SER d   1     116.224   7.308  11.176  0.00  0.00    -0.398 OA
ATOM     60  H26 SER d   1     116.771   6.540  11.064  0.00  0.00     0.209 HD
ENDBRANCH  56  59
ENDBRANCH   7  56
ENDBRANCH   4   7
ENDBRANCH   1   3
BRANCH   1  61
ATOM     61  C   LEU d   1     118.866  10.955  15.309  0.00  0.00     0.241 C 
ATOM     62  O   LEU d   1     119.517   9.929  15.171  0.00  0.00    -0.271 OA
ATOM     63  N   LEU d   1     119.418  12.158  15.294  0.00  0.00    -0.346 N 
ATOM     64  H38 LEU d   1     118.837  12.966  15.396  0.00  0.00     0.163 HD
BRANCH  63  65
ATOM     65  CA  LEU d   1     120.848  12.327  15.132  0.00  0.00     0.089 C 
ATOM     66  H39 LEU d   1     121.161  11.893  14.171  0.00  0.00     0.087 H 
BRANCH  65  67
ATOM     67  C   LEU d   1     121.576  11.620  16.268  0.00  0.00     0.241 C 
ATOM     68  O   LEU d   1     120.992  11.374  17.319  0.00  0.00    -0.271 OA
ATOM     69  N   LYS d   1     122.846  11.290  16.046  0.00  0.00    -0.345 N 
ATOM     70  H49 LYS d   1     123.251  11.507  15.158  0.00  0.00     0.163 HD
BRANCH  69  71
ATOM     71  CA  LYS d   1     123.672  10.622  17.051  0.00  0.00     0.096 C 
ATOM     72  H50 LYS d   1     123.019  10.332  17.887  0.00  0.00     0.089 H 
BRANCH  71  73
ATOM     73  C   LYS d   1     124.776  11.543  17.618  0.00  0.00     0.196 C 
ATOM     74  O   LYS d   1     125.981  11.307  17.349  0.00  0.00    -0.646 OA
ATOM     75  OXT LYS d   1     124.410  12.507  18.339  0.00  0.00    -0.646 OA
ENDBRANCH  71  73
BRANCH  71  76
ATOM     76  CB  LYS d   1     124.277   9.349  16.451  0.00  0.00    -0.037 C 
ATOM     77  H51 LYS d   1     125.107   9.020  17.093  0.00  0.00     0.036 H 
ATOM     78  H52 LYS d   1     124.661   9.584  15.447  0.00  0.00     0.036 H 
BRANCH  76  79
ATOM     79  CG  LYS d   1     123.278   8.210  16.332  0.00  0.00    -0.061 C 
ATOM     80  H53 LYS d   1     123.760   7.356  15.834  0.00  0.00     0.033 H 
ATOM     81  H54 LYS d   1     122.417   8.544  15.735  0.00  0.00     0.033 H 
BRANCH  79  82
ATOM     82  CD  LYS d   1     122.793   7.777  17.719  0.00  0.00    -0.043 C 
ATOM     83  H55 LYS d   1     122.469   8.669  18.275  0.00  0.00     0.035 H 
ATOM     84  H56 LYS d   1     123.627   7.296  18.251  0.00  0.00     0.035 H 
BRANCH  82  85
ATOM     85  CE  LYS d   1     121.625   6.793  17.647  0.00  0.00     0.080 C 
ATOM     86  H57 LYS d   1     120.782   7.293  17.148  0.00  0.00     0.075 H 
ATOM     87  H58 LYS d   1     121.336   6.523  18.674  0.00  0.00     0.075 H 
BRANCH  85  88
ATOM     88  NZ  LYS d   1     121.935   5.536  16.900  0.00  0.00    -0.079 N 
ATOM     89  H59 LYS d   1     121.123   4.939  16.894  0.00  0.00     0.274 HD
ATOM     90  H60 LYS d   1     122.700   5.058  17.350  0.00  0.00     0.274 HD
ATOM     91  H61 LYS d   1     122.192   5.763  15.952  0.00  0.00     0.274 HD
ENDBRANCH  85  88
ENDBRANCH  82  85
ENDBRANCH  79  82
ENDBRANCH  76  79
ENDBRANCH  71  76
ENDBRANCH  69  71
ENDBRANCH  65  67
BRANCH  65  92
ATOM     92  CB  LEU d   1     121.192  13.809  15.153  0.00  0.00    -0.035 C 
ATOM     93  H40 LEU d   1     120.823  14.231  16.099  0.00  0.00     0.037 H 
ATOM     94  H41 LEU d   1     120.675  14.291  14.310  0.00  0.00     0.037 H 
BRANCH  92  95
ATOM     95  CG  LEU d   1     122.673  14.128  15.041  0.00  0.00    -0.059 C 
ATOM     96  H42 LEU d   1     123.215  13.617  15.850  0.00  0.00     0.038 H 
BRANCH  95  97
ATOM     97  CD1 LEU d   1     123.186  13.623  13.710  0.00  0.00    -0.073 C 
ATOM     98  H43 LEU d   1     124.259  13.850  13.620  0.00  0.00     0.028 H 
ATOM     99  H44 LEU d   1     122.637  14.117  12.894  0.00  0.00     0.028 H 
ATOM    100  H45 LEU d   1     123.035  12.535  13.648  0.00  0.00     0.028 H 
ENDBRANCH  95  97
BRANCH  95 101
ATOM    101  CD2 LEU d   1     122.891  15.621  15.175  0.00  0.00    -0.073 C 
ATOM    102  H46 LEU d   1     122.510  15.961  16.149  0.00  0.00     0.028 H 
ATOM    103  H47 LEU d   1     122.355  16.144  14.369  0.00  0.00     0.028 H 
ATOM    104  H48 LEU d   1     123.966  15.842  15.104  0.00  0.00     0.028 H 
ENDBRANCH  95 101
ENDBRANCH  92  95
ENDBRANCH  65  92
ENDBRANCH  63  65
ENDBRANCH   1  61
BRANCH   1 105
ATOM    105  CB  LEU d   1     117.059  10.337  16.902  0.00  0.00    -0.035 C 
ATOM    106  H29 LEU d   1     117.182   9.245  16.847  0.00  0.00     0.037 H 
ATOM    107  H30 LEU d   1     116.011  10.576  17.136  0.00  0.00     0.037 H 
BRANCH 105 108
ATOM    108  CG  LEU d   1     117.915  10.836  18.074  0.00  0.00    -0.059 C 
ATOM    109  H31 LEU d   1     118.977  10.694  17.826  0.00  0.00     0.038 H 
BRANCH 108 110
ATOM    110  CD1 LEU d   1     117.661  12.313  18.320  0.00  0.00    -0.073 C 
ATOM    111  H32 LEU d   1     118.281  12.656  19.162  0.00  0.00     0.028 H 
ATOM    112  H33 LEU d   1     116.599  12.467  18.560  0.00  0.00     0.028 H 
ATOM    113  H34 LEU d   1     117.920  12.885  17.417  0.00  0.00     0.028 H 
ENDBRANCH 108 110
BRANCH 108 114
ATOM    114  CD2 LEU d   1     117.585  10.029  19.340  0.00  0.00    -0.073 C 
ATOM    115  H35 LEU d   1     117.772   8.961  19.153  0.00  0.00     0.028 H 
ATOM    116  H36 LEU d   1     116.527  10.176  19.603  0.00  0.00     0.028 H 
ATOM    117  H37 LEU d   1     118.220  10.373  20.170  0.00  0.00     0.028 H 
ENDBRANCH 108 114
ENDBRANCH 105 108
ENDBRANCH   1 105
TORSDOF 37
