REMARK WARNING: 32 MAX_TORS EXCEEDED!!!
REMARK  38 active torsions:
REMARK  status: ('A' for Active; 'I' for Inactive)
REMARK    1  A    between atoms: N_1  and  CA_2 
REMARK    2  A    between atoms: CA_2  and  C_3 
REMARK    3  A    between atoms: CA_2  and  CB_5 
REMARK       I    between atoms: C_3  and  N_9 
REMARK    4  A    between atoms: CB_5  and  CG_6 
REMARK    5  A    between atoms: N_9  and  CA_10 
REMARK    6  A    between atoms: CA_10  and  C_11 
REMARK    7  A    between atoms: CA_10  and  CB_13 
REMARK       I    between atoms: C_11  and  N_17 
REMARK    8  A    between atoms: CB_13  and  CG_14 
REMARK    9  A    between atoms: N_17  and  CA_18 
REMARK   10  A    between atoms: CA_18  and  C_19 
REMARK   11  A    between atoms: CA_18  and  CB_21 
REMARK       I    between atoms: C_19  and  N_25 
REMARK   12  A    between atoms: CB_21  and  CG1_22 
REMARK   13  A    between atoms: CB_21  and  CG2_23 
REMARK   14  A    between atoms: CG1_22  and  CD1_24 
REMARK   15  A    between atoms: N_25  and  CA_26 
REMARK   16  A    between atoms: CA_26  and  CB_27 
REMARK   17  A    between atoms: CA_26  and  C_29 
REMARK   18  A    between atoms: CB_27  and  OG_28 
REMARK   19  A    between atoms: OG_28  and  P_31 
REMARK       I    between atoms: C_29  and  N_35 
REMARK   20  A    between atoms: N_35  and  CA_36 
REMARK   21  A    between atoms: CA_36  and  C_37 
REMARK   22  A    between atoms: CA_36  and  CB_39 
REMARK       I    between atoms: C_37  and  N_43 
REMARK   23  A    between atoms: CB_39  and  CG_40 
REMARK   24  A    between atoms: CG_40  and  CD1_41 
REMARK   25  A    between atoms: CG_40  and  CD2_42 
REMARK   26  A    between atoms: N_43  and  CA_44 
REMARK   27  A    between atoms: CA_44  and  C_45 
REMARK   28  A    between atoms: CA_44  and  CB_47 
REMARK       I    between atoms: C_45  and  N_51 
REMARK   29  A    between atoms: CB_47  and  CG_48 
REMARK   30  A    between atoms: CG_48  and  CD1_49 
REMARK   31  A    between atoms: CG_48  and  CD2_50 
REMARK   32  A    between atoms: N_51  and  CA_52 
REMARK   33  A    between atoms: CA_52  and  C_53 
REMARK   34  A    between atoms: CA_52  and  CB_55 
REMARK   35  A    between atoms: CB_55  and  CG_56 
REMARK   36  A    between atoms: CG_56  and  CD_57 
REMARK   37  A    between atoms: CD_57  and  CE_58 
REMARK   38  A    between atoms: CE_58  and  NZ_59 
ROOT
ATOM      1  C   SEP d   1      24.202 -17.336 -20.630  0.00  0.00     0.243 C 
ATOM      2  O   SEP d   1      23.733 -16.793 -21.630  0.00  0.00    -0.271 OA
ATOM      3  N   LEU d   1      25.131 -16.776 -19.863  0.00  0.00    -0.346 N 
ATOM      4  H26 LEU d   1      25.455 -17.273 -19.058  0.00  0.00     0.163 HD
ENDROOT
BRANCH   3   5
ATOM      5  CA  LEU d   1      25.695 -15.465 -20.152  0.00  0.00     0.089 C 
ATOM      6  H27 LEU d   1      24.874 -14.743 -20.272  0.00  0.00     0.087 H 
BRANCH   5   7
ATOM      7  C   LEU d   1      26.516 -15.504 -21.439  0.00  0.00     0.241 C 
ATOM      8  O   LEU d   1      27.296 -16.430 -21.660  0.00  0.00    -0.271 OA
ATOM      9  N   LEU d   1      26.334 -14.490 -22.279  0.00  0.00    -0.346 N 
ATOM     10  H37 LEU d   1      25.675 -13.776 -22.041  0.00  0.00     0.163 HD
BRANCH   9  11
ATOM     11  CA  LEU d   1      27.065 -14.387 -23.536  0.00  0.00     0.089 C 
ATOM     12  H38 LEU d   1      27.165 -15.386 -23.985  0.00  0.00     0.087 H 
BRANCH  11  13
ATOM     13  C   LEU d   1      28.449 -13.815 -23.251  0.00  0.00     0.241 C 
ATOM     14  O   LEU d   1      28.579 -12.663 -22.832  0.00  0.00    -0.271 OA
ATOM     15  N   LYS d   1      29.484 -14.619 -23.476  0.00  0.00    -0.345 N 
ATOM     16  H48 LYS d   1      29.323 -15.543 -23.824  0.00  0.00     0.163 HD
BRANCH  15  17
ATOM     17  CA  LYS d   1      30.850 -14.175 -23.223  0.00  0.00     0.096 C 
ATOM     18  H49 LYS d   1      30.848 -13.530 -22.332  0.00  0.00     0.089 H 
BRANCH  17  19
ATOM     19  C   LYS d   1      31.401 -13.375 -24.401  0.00  0.00     0.196 C 
ATOM     20  O   LYS d   1      30.783 -13.415 -25.486  0.00  0.00    -0.646 OA
ATOM     21  OXT LYS d   1      32.450 -12.722 -24.226  0.00  0.00    -0.646 OA
ENDBRANCH  17  19
BRANCH  17  22
ATOM     22  CB  LYS d   1      31.750 -15.384 -22.957  0.00  0.00    -0.037 C 
ATOM     23  H50 LYS d   1      32.679 -15.027 -22.488  0.00  0.00     0.036 H 
ATOM     24  H51 LYS d   1      31.985 -15.858 -23.921  0.00  0.00     0.036 H 
BRANCH  22  25
ATOM     25  CG  LYS d   1      31.126 -16.437 -22.044  0.00  0.00    -0.061 C 
ATOM     26  H52 LYS d   1      31.841 -17.263 -21.919  0.00  0.00     0.033 H 
ATOM     27  H53 LYS d   1      30.208 -16.815 -22.518  0.00  0.00     0.033 H 
BRANCH  25  28
ATOM     28  CD  LYS d   1      30.772 -15.885 -20.667  0.00  0.00    -0.043 C 
ATOM     29  H54 LYS d   1      30.164 -16.629 -20.131  0.00  0.00     0.035 H 
ATOM     30  H55 LYS d   1      30.191 -14.959 -20.794  0.00  0.00     0.035 H 
BRANCH  28  31
ATOM     31  CE  LYS d   1      32.013 -15.578 -19.842  0.00  0.00     0.080 C 
ATOM     32  H56 LYS d   1      32.594 -14.795 -20.351  0.00  0.00     0.075 H 
ATOM     33  H57 LYS d   1      32.621 -16.491 -19.761  0.00  0.00     0.075 H 
BRANCH  31  34
ATOM     34  NZ  LYS d   1      31.664 -15.106 -18.469  0.00  0.00    -0.079 N 
ATOM     35  H58 LYS d   1      32.509 -14.914 -17.955  0.00  0.00     0.274 HD
ATOM     36  H59 LYS d   1      31.136 -15.820 -17.992  0.00  0.00     0.274 HD
ATOM     37  H60 LYS d   1      31.111 -14.266 -18.533  0.00  0.00     0.274 HD
ENDBRANCH  31  34
ENDBRANCH  28  31
ENDBRANCH  25  28
ENDBRANCH  22  25
ENDBRANCH  17  22
ENDBRANCH  15  17
ENDBRANCH  11  13
BRANCH  11  38
ATOM     38  CB  LEU d   1      26.316 -13.470 -24.505  0.00  0.00    -0.035 C 
ATOM     39  H39 LEU d   1      26.228 -12.484 -24.026  0.00  0.00     0.037 H 
ATOM     40  H40 LEU d   1      25.313 -13.896 -24.655  0.00  0.00     0.037 H 
BRANCH  38  41
ATOM     41  CG  LEU d   1      26.936 -13.256 -25.887  0.00  0.00    -0.059 C 
ATOM     42  H41 LEU d   1      27.965 -12.886 -25.767  0.00  0.00     0.038 H 
BRANCH  41  43
ATOM     43  CD1 LEU d   1      26.969 -14.573 -26.647  0.00  0.00    -0.073 C 
ATOM     44  H42 LEU d   1      27.416 -14.413 -27.639  0.00  0.00     0.028 H 
ATOM     45  H43 LEU d   1      25.944 -14.955 -26.764  0.00  0.00     0.028 H 
ATOM     46  H44 LEU d   1      27.571 -15.304 -26.088  0.00  0.00     0.028 H 
ENDBRANCH  41  43
BRANCH  41  47
ATOM     47  CD2 LEU d   1      26.125 -12.225 -26.651  0.00  0.00    -0.073 C 
ATOM     48  H45 LEU d   1      26.111 -11.280 -26.089  0.00  0.00     0.028 H 
ATOM     49  H46 LEU d   1      25.096 -12.590 -26.780  0.00  0.00     0.028 H 
ATOM     50  H47 LEU d   1      26.581 -12.058 -27.638  0.00  0.00     0.028 H 
ENDBRANCH  41  47
ENDBRANCH  38  41
ENDBRANCH  11  38
ENDBRANCH   9  11
ENDBRANCH   5   7
BRANCH   5  51
ATOM     51  CB  LEU d   1      26.594 -15.016 -18.994  0.00  0.00    -0.035 C 
ATOM     52  H28 LEU d   1      27.272 -15.849 -18.757  0.00  0.00     0.037 H 
ATOM     53  H29 LEU d   1      25.946 -14.813 -18.129  0.00  0.00     0.037 H 
BRANCH  51  54
ATOM     54  CG  LEU d   1      27.454 -13.771 -19.231  0.00  0.00    -0.059 C 
ATOM     55  H30 LEU d   1      28.051 -13.916 -20.143  0.00  0.00     0.038 H 
BRANCH  54  56
ATOM     56  CD1 LEU d   1      26.553 -12.561 -19.419  0.00  0.00    -0.073 C 
ATOM     57  H31 LEU d   1      27.171 -11.667 -19.589  0.00  0.00     0.028 H 
ATOM     58  H32 LEU d   1      25.940 -12.417 -18.517  0.00  0.00     0.028 H 
ATOM     59  H33 LEU d   1      25.897 -12.724 -20.287  0.00  0.00     0.028 H 
ENDBRANCH  54  56
BRANCH  54  60
ATOM     60  CD2 LEU d   1      28.397 -13.559 -18.056  0.00  0.00    -0.073 C 
ATOM     61  H34 LEU d   1      29.039 -14.444 -17.937  0.00  0.00     0.028 H 
ATOM     62  H35 LEU d   1      27.811 -13.405 -17.138  0.00  0.00     0.028 H 
ATOM     63  H36 LEU d   1      29.023 -12.674 -18.243  0.00  0.00     0.028 H 
ENDBRANCH  54  60
ENDBRANCH  51  54
ENDBRANCH   5  51
ENDBRANCH   3   5
BRANCH   1  64
ATOM     64  CA  SEP d   1      23.737 -18.720 -20.195  0.00  0.00     0.110 C 
ATOM     65  H23 SEP d   1      23.675 -18.742 -19.097  0.00  0.00     0.090 H 
BRANCH  64  66
ATOM     66  N   SEP d   1      22.414 -19.010 -20.733  0.00  0.00    -0.344 N 
ATOM     67  C   ILE d   1      21.311 -18.573 -20.133  0.00  0.00     0.241 C 
ATOM     68  O   ILE d   1      21.328 -17.900 -19.103  0.00  0.00    -0.271 OA
ATOM     69  H22 SEP d   1      22.334 -19.549 -21.571  0.00  0.00     0.163 HD
BRANCH  67  70
ATOM     70  CA  ILE d   1      19.994 -18.948 -20.794  0.00  0.00     0.092 C 
ATOM     71  H12 ILE d   1      19.903 -20.044 -20.802  0.00  0.00     0.088 H 
BRANCH  70  72
ATOM     72  N   ILE d   1      18.856 -18.404 -20.059  0.00  0.00    -0.346 N 
ATOM     73  C   ASP d   1      18.104 -19.172 -19.275  0.00  0.00     0.241 C 
ATOM     74  O   ASP d   1      18.310 -20.376 -19.126  0.00  0.00    -0.271 OA
ATOM     75  H11 ILE d   1      18.637 -17.432 -20.147  0.00  0.00     0.163 HD
BRANCH  73  76
ATOM     76  CA  ASP d   1      16.938 -18.498 -18.557  0.00  0.00     0.098 C 
ATOM     77  H8  ASP d   1      16.351 -17.923 -19.288  0.00  0.00     0.088 H 
BRANCH  76  78
ATOM     78  N   ASP d   1      16.090 -19.518 -17.954  0.00  0.00    -0.345 N 
ATOM     79  C   ASP d   1      14.863 -19.244 -17.522  0.00  0.00     0.249 C 
ATOM     80  O   ASP d   1      14.356 -18.124 -17.603  0.00  0.00    -0.271 OA
ATOM     81  H7  ASP d   1      16.441 -20.450 -17.863  0.00  0.00     0.163 HD
BRANCH  79  82
ATOM     82  CA  ASP d   1      14.093 -20.407 -16.905  0.00  0.00     0.185 C 
ATOM     83  H4  ASP d   1      14.620 -20.731 -15.995  0.00  0.00     0.100 H 
BRANCH  82  84
ATOM     84  N   ASP d   1      12.710 -19.998 -16.529  0.00  0.00    -0.066 N 
ATOM     85  H1  ASP d   1      12.225 -20.784 -16.125  0.00  0.00     0.275 HD
ATOM     86  H2  ASP d   1      12.217 -19.686 -17.351  0.00  0.00     0.275 HD
ATOM     87  H3  ASP d   1      12.752 -19.248 -15.857  0.00  0.00     0.275 HD
ENDBRANCH  82  84
BRANCH  82  88
ATOM     88  CB  ASP d   1      14.046 -21.580 -17.889  0.00  0.00     0.050 C 
ATOM     89  H5  ASP d   1      13.626 -22.456 -17.373  0.00  0.00     0.052 H 
ATOM     90  H6  ASP d   1      15.071 -21.805 -18.218  0.00  0.00     0.052 H 
BRANCH  88  91
ATOM     91  CG  ASP d   1      13.197 -21.283 -19.111  0.00  0.00     0.175 C 
ATOM     92  OD1 ASP d   1      13.091 -22.165 -19.991  0.00  0.00    -0.648 OA
ATOM     93  OD2 ASP d   1      12.634 -20.171 -19.193  0.00  0.00    -0.648 OA
ENDBRANCH  88  91
ENDBRANCH  82  88
ENDBRANCH  79  82
ENDBRANCH  76  78
BRANCH  76  94
ATOM     94  CB  ASP d   1      17.447 -17.547 -17.465  0.00  0.00     0.043 C 
ATOM     95  H9  ASP d   1      18.093 -18.114 -16.778  0.00  0.00     0.052 H 
ATOM     96  H10 ASP d   1      16.582 -17.152 -16.912  0.00  0.00     0.052 H 
BRANCH  94  97
ATOM     97  CG  ASP d   1      18.240 -16.380 -18.023  0.00  0.00     0.175 C 
ATOM     98  OD1 ASP d   1      17.952 -15.948 -19.159  0.00  0.00    -0.648 OA
ATOM     99  OD2 ASP d   1      19.137 -15.880 -17.312  0.00  0.00    -0.648 OA
ENDBRANCH  94  97
ENDBRANCH  76  94
ENDBRANCH  73  76
ENDBRANCH  70  72
BRANCH  70 100
ATOM    100  CB  ILE d   1      20.018 -18.443 -22.257  0.00  0.00    -0.030 C 
ATOM    101  H13 ILE d   1      20.906 -18.855 -22.758  0.00  0.00     0.043 H 
BRANCH 100 102
ATOM    102  CG1 ILE d   1      20.108 -16.914 -22.286  0.00  0.00    -0.063 C 
ATOM    103  H14 ILE d   1      21.000 -16.609 -21.719  0.00  0.00     0.033 H 
ATOM    104  H15 ILE d   1      19.209 -16.505 -21.803  0.00  0.00     0.033 H 
BRANCH 102 105
ATOM    105  CD1 ILE d   1      20.207 -16.329 -23.686  0.00  0.00    -0.076 C 
ATOM    106  H19 ILE d   1      20.268 -15.233 -23.622  0.00  0.00     0.027 H 
ATOM    107  H20 ILE d   1      19.317 -16.614 -24.266  0.00  0.00     0.027 H 
ATOM    108  H21 ILE d   1      21.108 -16.718 -24.183  0.00  0.00     0.027 H 
ENDBRANCH 102 105
ENDBRANCH 100 102
BRANCH 100 109
ATOM    109  CG2 ILE d   1      18.778 -18.925 -22.994  0.00  0.00    -0.071 C 
ATOM    110  H16 ILE d   1      18.735 -20.024 -22.960  0.00  0.00     0.028 H 
ATOM    111  H17 ILE d   1      18.822 -18.592 -24.041  0.00  0.00     0.028 H 
ATOM    112  H18 ILE d   1      17.881 -18.508 -22.514  0.00  0.00     0.028 H 
ENDBRANCH 100 109
ENDBRANCH  70 100
ENDBRANCH  67  70
ENDBRANCH  64  66
BRANCH  64 113
ATOM    113  CB  SEP d   1      24.767 -19.766 -20.646  0.00  0.00     0.059 C 
ATOM    114  H24 SEP d   1      24.590 -20.720 -20.128  0.00  0.00     0.079 H 
ATOM    115  H25 SEP d   1      25.786 -19.414 -20.427  0.00  0.00     0.079 H 
BRANCH 113 116
ATOM    116  OG  SEP d   1      24.603 -19.924 -21.996  0.00  0.00    -0.280 OA
BRANCH 116 117
ATOM    117  P   SEP d   1      25.090 -21.346 -22.005  0.00  0.00     0.422 P 
ATOM    118  O1P SEP d   1      26.570 -21.737 -21.710  0.00  0.00    -0.617 OA
ATOM    119  O2P SEP d   1      24.838 -21.395 -23.583  0.00  0.00    -0.617 OA
ATOM    120  O3P SEP d   1      24.022 -22.167 -21.208  0.00  0.00    -0.617 OA
ENDBRANCH 116 117
ENDBRANCH 113 116
ENDBRANCH  64 113
ENDBRANCH   1  64
TORSDOF 38
