REMARK  6 active torsions:
REMARK  status: ('A' for Active; 'I' for Inactive)
REMARK    1  A    between atoms: C2_2  and  C7_27 
REMARK    2  A    between atoms: C11_8  and  C17_12 
REMARK    3  A    between atoms: C17_12  and  C20_13 
REMARK    4  A    between atoms: C20_13  and  C23_14 
REMARK    5  A    between atoms: C23_14  and  N26_15 
REMARK    6  A    between atoms: C31_18  and  C40_21 
ROOT
ATOM      1  C23 FRM d   1       7.010   0.111  33.323  0.00  0.00     0.084 C 
ATOM      2  H9  FRM d   1       6.223   0.877  33.371  0.00  0.00     0.076 H 
ATOM      3  H10 FRM d   1       6.900  -0.470  32.395  0.00  0.00     0.076 H 
ENDROOT
BRANCH   1   4
ATOM      4  C20 FRM d   1       6.942  -0.786  34.515  0.00  0.00    -0.036 C 
ATOM      5  H7  FRM d   1       7.252  -0.210  35.399  0.00  0.00     0.036 H 
ATOM      6  H8  FRM d   1       5.900  -1.117  34.639  0.00  0.00     0.036 H 
BRANCH   4   7
ATOM      7  C17 FRM d   1       7.829  -2.023  34.414  0.00  0.00    -0.008 C 
ATOM      8  H5  FRM d   1       8.498  -1.899  33.550  0.00  0.00     0.044 H 
ATOM      9  H6  FRM d   1       8.428  -2.095  35.334  0.00  0.00     0.044 H 
BRANCH   7  10
ATOM     10  C11 FRM d   1       7.072  -3.303  34.244  0.00  0.00     0.107 C 
ATOM     11  N10 FRM d   1       7.627  -4.277  33.569  0.00  0.00    -0.234 NA
ATOM     12  C3  FRM d   1       7.128  -5.514  33.493  0.00  0.00     0.080 A 
ATOM     13  C2  FRM d   1       7.643  -6.362  32.552  0.00  0.00    -0.032 A 
ATOM     14  C4  FRM d   1       6.083  -5.863  34.305  0.00  0.00     0.061 A 
ATOM     15  C1  FRM d   1       7.037  -7.574  32.427  0.00  0.00    -0.075 A 
ATOM     16  C6  FRM d   1       5.945  -7.907  33.254  0.00  0.00    -0.081 A 
ATOM     17  H1  FRM d   1       7.394  -8.284  31.690  0.00  0.00     0.084 H 
ATOM     18  C5  FRM d   1       5.448  -7.071  34.231  0.00  0.00    -0.065 A 
ATOM     19  H3  FRM d   1       5.471  -8.872  33.114  0.00  0.00     0.083 H 
ATOM     20  H2  FRM d   1       4.627  -7.347  34.883  0.00  0.00     0.085 H 
ATOM     21  C13 FRM d   1       5.618  -4.825  35.148  0.00  0.00     0.259 C 
ATOM     22  N12 FRM d   1       6.008  -3.586  34.952  0.00  0.00    -0.311 N 
ATOM     23  O14 FRM d   1       4.825  -5.065  36.013  0.00  0.00    -0.267 OA
ATOM     24  H4  FRM d   1       5.478  -2.839  35.354  0.00  0.00     0.170 HD
BRANCH  13  25
ATOM     25  C7  FRM d   1       8.828  -6.010  31.705  0.00  0.00    -0.049 C 
ATOM     26  H23 FRM d   1       9.055  -6.845  31.026  0.00  0.00     0.033 H 
ATOM     27  H24 FRM d   1       9.697  -5.817  32.352  0.00  0.00     0.033 H 
ATOM     28  H25 FRM d   1       8.603  -5.109  31.115  0.00  0.00     0.033 H 
ENDBRANCH  13  25
ENDBRANCH   7  10
ENDBRANCH   4   7
ENDBRANCH   1   4
BRANCH   1  29
ATOM     29  N26 FRM d   1       8.328   0.727  33.388  0.00  0.00    -0.068 N 
ATOM     30  C29 FRM d   1       9.101   0.719  32.153  0.00  0.00     0.099 C 
ATOM     31  C30 FRM d   1       8.458   1.653  31.191  0.00  0.00    -0.071 C 
ATOM     32  H12 FRM d   1       9.116  -0.297  31.731  0.00  0.00     0.082 H 
ATOM     33  H13 FRM d   1      10.131   1.047  32.357  0.00  0.00     0.082 H 
ATOM     34  C31 FRM d   1       7.733   2.691  31.538  0.00  0.00    -0.049 C 
ATOM     35  H14 FRM d   1       8.598   1.463  30.128  0.00  0.00     0.080 H 
ATOM     36  C32 FRM d   1       7.474   2.915  33.009  0.00  0.00    -0.018 C 
ATOM     37  C33 FRM d   1       8.331   2.040  33.909  0.00  0.00     0.087 C 
ATOM     38  H15 FRM d   1       6.416   2.697  33.215  0.00  0.00     0.042 H 
ATOM     39  H16 FRM d   1       7.684   3.969  33.244  0.00  0.00     0.042 H 
ATOM     40  H17 FRM d   1       9.360   2.428  33.933  0.00  0.00     0.076 H 
ATOM     41  H18 FRM d   1       7.916   2.036  34.928  0.00  0.00     0.076 H 
ATOM     42  H11 FRM d   1       8.845   0.161  34.042  0.00  0.00     0.280 HD
BRANCH  34  43
ATOM     43  C40 FRM d   1       7.385   3.769  30.604  0.00  0.00    -0.030 A 
ATOM     44  C42 FRM d   1       8.018   4.008  29.398  0.00  0.00    -0.070 A 
ATOM     45  C43 FRM d   1       7.799   5.239  28.833  0.00  0.00    -0.045 A 
ATOM     46  H19 FRM d   1       8.651   3.265  28.926  0.00  0.00     0.085 H 
ATOM     47  C44 FRM d   1       7.012   6.178  29.463  0.00  0.00     0.116 A 
ATOM     48  H20 FRM d   1       8.252   5.476  27.877  0.00  0.00     0.088 H 
ATOM     49  C45 FRM d   1       6.366   5.971  30.627  0.00  0.00    -0.045 A 
ATOM     50  F1  FRM d   1       6.717   7.318  28.871  0.00  0.00    -0.206 F 
ATOM     51  C46 FRM d   1       6.526   4.731  31.136  0.00  0.00    -0.070 A 
ATOM     52  H21 FRM d   1       5.769   6.734  31.113  0.00  0.00     0.088 H 
ATOM     53  H22 FRM d   1       5.950   4.466  32.015  0.00  0.00     0.085 H 
ENDBRANCH  34  43
ENDBRANCH   1  29
TORSDOF 6
