REMARK  6 active torsions:
REMARK  status: ('A' for Active; 'I' for Inactive)
REMARK    1  A    between atoms: N10_7  and  C16_13 
REMARK    2  A    between atoms: C16_13  and  C17_14 
REMARK    3  A    between atoms: C17_14  and  C20_15 
REMARK    4  A    between atoms: C20_15  and  C23_16 
REMARK    5  A    between atoms: C23_16  and  N26_17 
REMARK    6  A    between atoms: C31_20  and  C40_23 
ROOT
ATOM      1  C23 FRQ d   1       9.401  -1.475  29.897  0.00  0.00     0.084 C 
ATOM      2  H11 FRQ d   1       8.916  -2.084  29.120  0.00  0.00     0.076 H 
ATOM      3  H12 FRQ d   1      10.494  -1.552  29.795  0.00  0.00     0.076 H 
ENDROOT
BRANCH   1   4
ATOM      4  C20 FRQ d   1       8.998  -2.013  31.262  0.00  0.00    -0.041 C 
ATOM      5  H9  FRQ d   1       9.520  -1.454  32.052  0.00  0.00     0.035 H 
ATOM      6  H10 FRQ d   1       7.911  -1.911  31.397  0.00  0.00     0.035 H 
BRANCH   4   7
ATOM      7  C17 FRQ d   1       9.386  -3.466  31.323  0.00  0.00    -0.048 C 
ATOM      8  H7  FRQ d   1       8.614  -4.046  30.795  0.00  0.00     0.035 H 
ATOM      9  H8  FRQ d   1      10.350  -3.582  30.806  0.00  0.00     0.035 H 
BRANCH   7  10
ATOM     10  C16 FRQ d   1       9.531  -4.041  32.714  0.00  0.00     0.005 C 
ATOM     11  H5  FRQ d   1      10.138  -4.957  32.664  0.00  0.00     0.065 H 
ATOM     12  H6  FRQ d   1      10.032  -3.304  33.358  0.00  0.00     0.065 H 
BRANCH  10  13
ATOM     13  N10 FRQ d   1       8.248  -4.357  33.271  0.00  0.00    -0.299 N 
ATOM     14  C3  FRQ d   1       7.685  -5.577  33.097  0.00  0.00     0.057 A 
ATOM     15  C2  FRQ d   1       8.189  -6.539  32.230  0.00  0.00    -0.056 A 
ATOM     16  C4  FRQ d   1       6.589  -5.869  33.873  0.00  0.00     0.098 A 
ATOM     17  C1  FRQ d   1       7.614  -7.797  32.187  0.00  0.00    -0.078 A 
ATOM     18  H2  FRQ d   1       9.031  -6.304  31.589  0.00  0.00     0.087 H 
ATOM     19  C6  FRQ d   1       6.524  -8.079  32.993  0.00  0.00    -0.044 A 
ATOM     20  H1  FRQ d   1       8.015  -8.557  31.526  0.00  0.00     0.083 H 
ATOM     21  C5  FRQ d   1       6.023  -7.099  33.804  0.00  0.00     0.134 A 
ATOM     22  H3  FRQ d   1       6.073  -9.065  32.981  0.00  0.00     0.088 H 
ATOM     23  F53 FRQ d   1       4.948  -7.333  34.509  0.00  0.00    -0.205 F 
ATOM     24  C13 FRQ d   1       6.048  -4.868  34.754  0.00  0.00     0.265 A 
ATOM     25  N12 FRQ d   1       6.640  -3.706  34.720  0.00  0.00    -0.274 N 
ATOM     26  O14 FRQ d   1       5.107  -5.040  35.518  0.00  0.00    -0.267 OA
ATOM     27  C11 FRQ d   1       7.704  -3.442  34.054  0.00  0.00     0.329 A 
ATOM     28  H4  FRQ d   1       6.233  -2.965  35.254  0.00  0.00     0.173 HD
ATOM     29  O15 FRQ d   1       8.202  -2.361  34.199  0.00  0.00    -0.246 OA
ENDBRANCH  10  13
ENDBRANCH   7  10
ENDBRANCH   4   7
ENDBRANCH   1   4
BRANCH   1  30
ATOM     30  N26 FRQ d   1       9.011  -0.087  29.714  0.00  0.00    -0.068 N 
ATOM     31  C29 FRQ d   1       8.641   0.720  30.885  0.00  0.00     0.099 C 
ATOM     32  C30 FRQ d   1       8.427   2.154  30.501  0.00  0.00    -0.071 C 
ATOM     33  H14 FRQ d   1       9.448   0.663  31.631  0.00  0.00     0.082 H 
ATOM     34  H15 FRQ d   1       7.712   0.321  31.319  0.00  0.00     0.082 H 
ATOM     35  C31 FRQ d   1       8.579   2.676  29.275  0.00  0.00    -0.049 C 
ATOM     36  H16 FRQ d   1       8.119   2.836  31.293  0.00  0.00     0.080 H 
ATOM     37  C32 FRQ d   1       8.956   1.771  28.138  0.00  0.00    -0.018 C 
ATOM     38  C33 FRQ d   1       8.497   0.344  28.415  0.00  0.00     0.087 C 
ATOM     39  H17 FRQ d   1      10.049   1.782  28.014  0.00  0.00     0.042 H 
ATOM     40  H18 FRQ d   1       8.479   2.132  27.215  0.00  0.00     0.042 H 
ATOM     41  H19 FRQ d   1       7.398   0.307  28.425  0.00  0.00     0.076 H 
ATOM     42  H20 FRQ d   1       8.879  -0.324  27.629  0.00  0.00     0.076 H 
ATOM     43  H13 FRQ d   1       9.943   0.280  29.604  0.00  0.00     0.280 HD
BRANCH  35  44
ATOM     44  C40 FRQ d   1       8.234   4.076  29.077  0.00  0.00    -0.030 A 
ATOM     45  C42 FRQ d   1       8.450   4.979  30.109  0.00  0.00    -0.072 A 
ATOM     46  C43 FRQ d   1       8.045   6.294  29.979  0.00  0.00    -0.082 A 
ATOM     47  H21 FRQ d   1       8.938   4.652  31.020  0.00  0.00     0.084 H 
ATOM     48  C44 FRQ d   1       7.474   6.730  28.800  0.00  0.00    -0.083 A 
ATOM     49  H22 FRQ d   1       8.176   6.984  30.804  0.00  0.00     0.083 H 
ATOM     50  C45 FRQ d   1       7.311   5.844  27.739  0.00  0.00    -0.082 A 
ATOM     51  H23 FRQ d   1       7.153   7.761  28.701  0.00  0.00     0.083 H 
ATOM     52  C46 FRQ d   1       7.669   4.513  27.891  0.00  0.00    -0.072 A 
ATOM     53  H24 FRQ d   1       6.905   6.194  26.797  0.00  0.00     0.083 H 
ATOM     54  H25 FRQ d   1       7.506   3.813  27.079  0.00  0.00     0.084 H 
ENDBRANCH  35  44
ENDBRANCH   1  30
TORSDOF 6
