REMARK WARNING: 32 MAX_TORS EXCEEDED!!!
REMARK  45 active torsions:
REMARK  status: ('A' for Active; 'I' for Inactive)
REMARK    1  A    between atoms: CA_2  and  C_3 
REMARK       I    between atoms: C_3  and  N_8 
REMARK    2  A    between atoms: N_8  and  CA_9 
REMARK    3  A    between atoms: CA_9  and  C_10 
REMARK    4  A    between atoms: CA_9  and  CB_12 
REMARK       I    between atoms: C_10  and  N_17 
REMARK    5  A    between atoms: CB_12  and  CG_13 
REMARK    6  A    between atoms: CG_13  and  CD_14 
REMARK    7  A    between atoms: CD_14  and  CE_15 
REMARK    8  A    between atoms: CE_15  and  NZ_16 
REMARK    9  A    between atoms: N_17  and  CA_18 
REMARK   10  A    between atoms: CA_18  and  C_19 
REMARK   11  A    between atoms: CA_18  and  CB_21 
REMARK       I    between atoms: C_19  and  N_28 
REMARK   12  A    between atoms: CB_21  and  CG_22 
REMARK   13  A    between atoms: CG_22  and  CD_23 
REMARK   14  A    between atoms: CD_23  and  NE_24 
REMARK       I    between atoms: NE_24  and  CZ_25 
REMARK       I    between atoms: CZ_25  and  NH1_26 
REMARK   15  A    between atoms: CA_29  and  C_30 
REMARK       I    between atoms: C_30  and  N_35 
REMARK   16  A    between atoms: N_35  and  CA_36 
REMARK   17  A    between atoms: CA_36  and  C_37 
REMARK   18  A    between atoms: CA_36  and  CB_39 
REMARK       I    between atoms: C_37  and  N_42 
REMARK   19  A    between atoms: CB_39  and  OG1_40 
REMARK   20  A    between atoms: CB_39  and  CG2_41 
REMARK   21  A    between atoms: N_42  and  CA_43 
REMARK   22  A    between atoms: CA_43  and  C_44 
REMARK   23  A    between atoms: CA_43  and  CB_46 
REMARK       I    between atoms: C_44  and  N_49 
REMARK   24  A    between atoms: CB_46  and  OG1_47 
REMARK   25  A    between atoms: CB_46  and  CG2_48 
REMARK   26  A    between atoms: N_49  and  CA_50 
REMARK   27  A    between atoms: CA_50  and  C_51 
REMARK   28  A    between atoms: CA_50  and  CB_53 
REMARK       I    between atoms: C_51  and  N_57 
REMARK   29  A    between atoms: CB_53  and  CG_54 
REMARK   30  A    between atoms: CG_54  and  CD1_55 
REMARK   31  A    between atoms: CG_54  and  CD2_56 
REMARK   32  A    between atoms: N_57  and  CA_58 
REMARK   33  A    between atoms: CA_58  and  C_59 
REMARK   34  A    between atoms: CA_58  and  CB_61 
REMARK       I    between atoms: C_59  and  N_65 
REMARK   35  A    between atoms: CB_61  and  CG_62 
REMARK       I    between atoms: CG_62  and  ND2_64 
REMARK   36  A    between atoms: N_65  and  CA_66 
REMARK   37  A    between atoms: CA_66  and  C_67 
REMARK   38  A    between atoms: CA_66  and  CB_69 
REMARK       I    between atoms: C_67  and  N_73 
REMARK   39  A    between atoms: CB_69  and  CG_70 
REMARK   40  A    between atoms: CG_70  and  CD1_71 
REMARK   41  A    between atoms: CG_70  and  CD2_72 
REMARK   42  A    between atoms: N_73  and  CA_74 
REMARK   43  A    between atoms: CA_74  and  C_75 
REMARK   44  A    between atoms: CA_74  and  CB_77 
REMARK   45  A    between atoms: CB_77  and  CG_78 
ROOT
ATOM      1  C   THR d   1      14.175  28.733  41.996  0.00  0.00     0.243 C 
ATOM      2  O   THR d   1      13.246  29.374  42.500  0.00  0.00    -0.271 OA
ATOM      3  N   THR d   1      15.182  29.300  41.341  0.00  0.00    -0.344 N 
ATOM      4  H50 THR d   1      15.907  28.727  40.959  0.00  0.00     0.163 HD
ENDROOT
BRANCH   1   5
ATOM      5  CA  THR d   1      14.230  27.217  42.101  0.00  0.00     0.113 C 
ATOM      6  H44 THR d   1      13.305  26.790  41.687  0.00  0.00     0.091 H 
BRANCH   5   7
ATOM      7  N   THR d   1      15.365  26.701  41.343  0.00  0.00    -0.344 N 
ATOM      8  C   PRO d   1      15.206  26.100  40.168  0.00  0.00     0.241 C 
ATOM      9  O   PRO d   1      14.103  25.938  39.630  0.00  0.00    -0.271 OA
ATOM     10  H43 THR d   1      16.287  26.802  41.717  0.00  0.00     0.163 HD
BRANCH   8  11
ATOM     11  CA  PRO d   1      16.480  25.595  39.501  0.00  0.00     0.091 C 
ATOM     12  N   PRO d   1      16.291  24.250  38.957  0.00  0.00    -0.337 N 
ATOM     13  C   ARG d   1      15.669  23.274  39.647  0.00  0.00     0.243 C 
ATOM     14  CD  PRO d   1      16.799  24.180  37.573  0.00  0.00    -0.001 C 
ATOM     15  O   ARG d   1      15.222  23.457  40.776  0.00  0.00    -0.271 OA
ATOM     16  CG  PRO d   1      17.648  25.430  37.473  0.00  0.00    -0.048 C 
ATOM     17  H41 PRO d   1      15.975  24.200  36.845  0.00  0.00     0.064 H 
ATOM     18  H42 PRO d   1      17.404  23.275  37.417  0.00  0.00     0.064 H 
ATOM     19  CB  PRO d   1      16.860  26.407  38.268  0.00  0.00    -0.036 C 
ATOM     20  H39 PRO d   1      18.645  25.271  37.910  0.00  0.00     0.035 H 
ATOM     21  H40 PRO d   1      17.754  25.758  36.428  0.00  0.00     0.035 H 
ATOM     22  H37 PRO d   1      17.469  27.282  38.540  0.00  0.00     0.036 H 
ATOM     23  H38 PRO d   1      15.966  26.738  37.719  0.00  0.00     0.036 H 
ATOM     24  H36 PRO d   1      17.297  25.608  40.238  0.00  0.00     0.087 H 
BRANCH  13  25
ATOM     25  CA  ARG d   1      15.530  21.911  38.972  0.00  0.00     0.089 C 
ATOM     26  H24 ARG d   1      16.197  21.890  38.097  0.00  0.00     0.087 H 
BRANCH  25  27
ATOM     27  N   ARG d   1      15.911  20.812  39.859  0.00  0.00    -0.346 N 
ATOM     28  C   LYS d   1      17.184  20.494  40.080  0.00  0.00     0.241 C 
ATOM     29  O   LYS d   1      18.128  21.098  39.554  0.00  0.00    -0.271 OA
ATOM     30  H23 ARG d   1      15.193  20.284  40.313  0.00  0.00     0.163 HD
BRANCH  28  31
ATOM     31  CA  LYS d   1      17.432  19.314  41.032  0.00  0.00     0.089 C 
ATOM     32  H11 LYS d   1      16.521  18.700  41.084  0.00  0.00     0.087 H 
BRANCH  31  33
ATOM     33  N   LYS d   1      18.528  18.497  40.528  0.00  0.00    -0.346 N 
ATOM     34  C   PRO d   1      18.318  17.516  39.657  0.00  0.00     0.249 C 
ATOM     35  O   PRO d   1      17.200  17.235  39.225  0.00  0.00    -0.271 OA
ATOM     36  H10 LYS d   1      19.459  18.679  40.845  0.00  0.00     0.163 HD
BRANCH  34  37
ATOM     37  CA  PRO d   1      19.556  16.736  39.211  0.00  0.00     0.178 C 
ATOM     38  N   PRO d   1      19.554  15.322  39.696  0.00  0.00    -0.062 N 
ATOM     39  CD  PRO d   1      19.609  14.385  38.557  0.00  0.00     0.083 C 
ATOM     40  H1  PRO d   1      18.712  15.153  40.224  0.00  0.00     0.278 HD
ATOM     41  H2  PRO d   1      20.357  15.173  40.287  0.00  0.00     0.278 HD
ATOM     42  CG  PRO d   1      19.086  15.249  37.402  0.00  0.00    -0.040 C 
ATOM     43  H8  PRO d   1      18.962  13.512  38.727  0.00  0.00     0.075 H 
ATOM     44  H9  PRO d   1      20.639  14.047  38.368  0.00  0.00     0.075 H 
ATOM     45  CB  PRO d   1      19.641  16.689  37.694  0.00  0.00    -0.028 C 
ATOM     46  H6  PRO d   1      19.463  14.877  36.438  0.00  0.00     0.035 H 
ATOM     47  H7  PRO d   1      17.986  15.253  37.389  0.00  0.00     0.035 H 
ATOM     48  H4  PRO d   1      20.678  16.800  37.345  0.00  0.00     0.036 H 
ATOM     49  H5  PRO d   1      19.013  17.465  37.231  0.00  0.00     0.036 H 
ATOM     50  H3  PRO d   1      20.445  17.247  39.609  0.00  0.00     0.099 H 
ENDBRANCH  34  37
ENDBRANCH  31  33
BRANCH  31  51
ATOM     51  CB  LYS d   1      17.771  19.823  42.443  0.00  0.00    -0.038 C 
ATOM     52  H12 LYS d   1      18.230  20.818  42.345  0.00  0.00     0.036 H 
ATOM     53  H13 LYS d   1      18.495  19.127  42.891  0.00  0.00     0.036 H 
BRANCH  51  54
ATOM     54  CG  LYS d   1      16.579  19.944  43.396  0.00  0.00    -0.061 C 
ATOM     55  H14 LYS d   1      16.933  20.335  44.361  0.00  0.00     0.033 H 
ATOM     56  H15 LYS d   1      16.139  18.947  43.544  0.00  0.00     0.033 H 
BRANCH  54  57
ATOM     57  CD  LYS d   1      15.504  20.881  42.848  0.00  0.00    -0.043 C 
ATOM     58  H16 LYS d   1      15.185  20.514  41.861  0.00  0.00     0.035 H 
ATOM     59  H17 LYS d   1      15.934  21.888  42.743  0.00  0.00     0.035 H 
BRANCH  57  60
ATOM     60  CE  LYS d   1      14.279  20.962  43.762  0.00  0.00     0.080 C 
ATOM     61  H18 LYS d   1      14.574  21.435  44.711  0.00  0.00     0.075 H 
ATOM     62  H19 LYS d   1      13.914  19.943  43.958  0.00  0.00     0.075 H 
BRANCH  60  63
ATOM     63  NZ  LYS d   1      13.176  21.761  43.146  0.00  0.00    -0.079 N 
ATOM     64  H20 LYS d   1      12.390  21.791  43.776  0.00  0.00     0.274 HD
ATOM     65  H21 LYS d   1      12.895  21.332  42.278  0.00  0.00     0.274 HD
ATOM     66  H22 LYS d   1      13.499  22.699  42.968  0.00  0.00     0.274 HD
ENDBRANCH  60  63
ENDBRANCH  57  60
ENDBRANCH  54  57
ENDBRANCH  51  54
ENDBRANCH  31  51
ENDBRANCH  28  31
ENDBRANCH  25  27
BRANCH  25  67
ATOM     67  CB  ARG d   1      14.082  21.731  38.491  0.00  0.00    -0.036 C 
ATOM     68  H25 ARG d   1      13.797  22.628  37.922  0.00  0.00     0.036 H 
ATOM     69  H26 ARG d   1      13.437  21.639  39.377  0.00  0.00     0.036 H 
BRANCH  67  70
ATOM     70  CG  ARG d   1      13.846  20.505  37.599  0.00  0.00    -0.048 C 
ATOM     71  H27 ARG d   1      14.061  19.593  38.174  0.00  0.00     0.035 H 
ATOM     72  H28 ARG d   1      14.517  20.557  36.729  0.00  0.00     0.035 H 
BRANCH  70  73
ATOM     73  CD  ARG d   1      12.406  20.463  37.117  0.00  0.00     0.009 C 
ATOM     74  H29 ARG d   1      12.215  21.364  36.516  0.00  0.00     0.064 H 
ATOM     75  H30 ARG d   1      11.746  20.462  37.997  0.00  0.00     0.064 H 
BRANCH  73  76
ATOM     76  NE  ARG d   1      12.089  19.290  36.302  0.00  0.00    -0.227 N 
ATOM     77  CZ  ARG d   1      10.910  19.096  35.710  0.00  0.00     0.665 C 
ATOM     78  NH1 ARG d   1       9.946  19.998  35.847  0.00  0.00    -0.235 N 
ATOM     79  NH2 ARG d   1      10.689  18.008  34.981  0.00  0.00    -0.235 N 
ATOM     80  H32 ARG d   1       9.034  19.851  35.391  0.00  0.00     0.174 HD
ATOM     81  H33 ARG d   1      10.110  20.845  36.410  0.00  0.00     0.174 HD
ATOM     82  H34 ARG d   1      11.432  17.303  34.870  0.00  0.00     0.174 HD
ATOM     83  H35 ARG d   1       9.775  17.869  34.527  0.00  0.00     0.174 HD
ATOM     84  H31 ARG d   1      12.818  18.573  36.178  0.00  0.00     0.177 HD
ENDBRANCH  73  76
ENDBRANCH  70  73
ENDBRANCH  67  70
ENDBRANCH  25  67
ENDBRANCH  13  25
ENDBRANCH   8  11
ENDBRANCH   5   7
BRANCH   5  85
ATOM     85  CB  THR d   1      14.339  26.838  43.590  0.00  0.00     0.060 C 
ATOM     86  H45 THR d   1      13.370  27.014  44.079  0.00  0.00     0.086 H 
BRANCH  85  87
ATOM     87  OG1 THR d   1      15.341  27.651  44.217  0.00  0.00    -0.393 OA
ATOM     88  H46 THR d   1      16.177  27.506  43.790  0.00  0.00     0.210 HD
ENDBRANCH  85  87
BRANCH  85  89
ATOM     89  CG2 THR d   1      14.714  25.361  43.735  0.00  0.00    -0.050 C 
ATOM     90  H47 THR d   1      14.788  25.105  44.802  0.00  0.00     0.031 H 
ATOM     91  H48 THR d   1      15.682  25.179  43.246  0.00  0.00     0.031 H 
ATOM     92  H49 THR d   1      13.941  24.738  43.261  0.00  0.00     0.031 H 
ENDBRANCH  85  89
ENDBRANCH   5  85
ENDBRANCH   1   5
BRANCH   3  93
ATOM     93  CA  THR d   1      15.245  30.738  41.172  0.00  0.00     0.113 C 
ATOM     94  H51 THR d   1      14.212  31.102  41.068  0.00  0.00     0.091 H 
BRANCH  93  95
ATOM     95  C   THR d   1      16.016  31.177  39.909  0.00  0.00     0.243 C 
ATOM     96  O   THR d   1      16.865  30.451  39.381  0.00  0.00    -0.271 OA
ATOM     97  N   LEU d   1      15.675  32.361  39.415  0.00  0.00    -0.346 N 
ATOM     98  H57 LEU d   1      14.945  32.873  39.868  0.00  0.00     0.163 HD
BRANCH  97  99
ATOM     99  CA  LEU d   1      16.310  32.950  38.249  0.00  0.00     0.089 C 
ATOM    100  H58 LEU d   1      17.325  32.551  38.103  0.00  0.00     0.087 H 
BRANCH  99 101
ATOM    101  C   LEU d   1      16.337  34.432  38.579  0.00  0.00     0.241 C 
ATOM    102  O   LEU d   1      15.316  34.997  38.969  0.00  0.00    -0.271 OA
ATOM    103  N   ASN d   1      17.495  35.063  38.433  0.00  0.00    -0.346 N 
ATOM    104  H68 ASN d   1      18.292  34.565  38.091  0.00  0.00     0.163 HD
BRANCH 103 105
ATOM    105  CA  ASN d   1      17.615  36.479  38.768  0.00  0.00     0.097 C 
ATOM    106  H69 ASN d   1      16.924  36.691  39.597  0.00  0.00     0.088 H 
BRANCH 105 107
ATOM    107  C   ASN d   1      17.248  37.395  37.605  0.00  0.00     0.241 C 
ATOM    108  O   ASN d   1      18.048  37.620  36.697  0.00  0.00    -0.271 OA
ATOM    109  N   LEU d   1      16.040  37.938  37.644  0.00  0.00    -0.346 N 
ATOM    110  H74 LEU d   1      15.430  37.743  38.412  0.00  0.00     0.163 HD
BRANCH 109 111
ATOM    111  CA  LEU d   1      15.602  38.811  36.580  0.00  0.00     0.089 C 
ATOM    112  H75 LEU d   1      15.867  38.333  35.625  0.00  0.00     0.087 H 
BRANCH 111 113
ATOM    113  C   LEU d   1      16.270  40.174  36.614  0.00  0.00     0.241 C 
ATOM    114  O   LEU d   1      16.653  40.702  35.567  0.00  0.00    -0.271 OA
ATOM    115  N   PHE d   1      16.391  40.746  37.814  0.00  0.00    -0.344 N 
ATOM    116  H85 PHE d   1      16.036  40.261  38.614  0.00  0.00     0.163 HD
BRANCH 115 117
ATOM    117  CA  PHE d   1      17.024  42.058  38.010  0.00  0.00     0.100 C 
ATOM    118  H86 PHE d   1      16.354  42.823  37.590  0.00  0.00     0.090 H 
BRANCH 117 119
ATOM    119  C   PHE d   1      18.378  42.160  37.296  0.00  0.00     0.197 C 
ATOM    120  O   PHE d   1      18.701  43.266  36.814  0.00  0.00    -0.646 OA
ATOM    121  OXT PHE d   1      19.110  41.146  37.245  0.00  0.00    -0.646 OA
ENDBRANCH 117 119
BRANCH 117 122
ATOM    122  CB  PHE d   1      17.223  42.349  39.503  0.00  0.00    -0.013 C 
ATOM    123  H87 PHE d   1      17.940  43.178  39.600  0.00  0.00     0.043 H 
ATOM    124  H88 PHE d   1      17.639  41.448  39.977  0.00  0.00     0.043 H 
BRANCH 122 125
ATOM    125  CG  PHE d   1      15.958  42.729  40.236  0.00  0.00    -0.056 A 
ATOM    126  CD1 PHE d   1      15.987  42.978  41.615  0.00  0.00    -0.077 A 
ATOM    127  CE1 PHE d   1      14.824  43.348  42.312  0.00  0.00    -0.082 A 
ATOM    128  H89 PHE d   1      16.923  42.883  42.154  0.00  0.00     0.084 H 
ATOM    129  CZ  PHE d   1      13.618  43.469  41.633  0.00  0.00    -0.083 A 
ATOM    130  H91 PHE d   1      14.868  43.539  43.378  0.00  0.00     0.083 H 
ATOM    131  CE2 PHE d   1      13.577  43.220  40.250  0.00  0.00    -0.082 A 
ATOM    132  H93 PHE d   1      12.717  43.753  42.165  0.00  0.00     0.083 H 
ATOM    133  CD2 PHE d   1      14.744  42.851  39.562  0.00  0.00    -0.077 A 
ATOM    134  H92 PHE d   1      12.640  43.313  39.712  0.00  0.00     0.083 H 
ATOM    135  H90 PHE d   1      14.700  42.659  38.496  0.00  0.00     0.084 H 
ENDBRANCH 122 125
ENDBRANCH 117 122
ENDBRANCH 115 117
ENDBRANCH 111 113
BRANCH 111 136
ATOM    136  CB  LEU d   1      14.095  38.970  36.631  0.00  0.00    -0.035 C 
ATOM    137  H76 LEU d   1      13.789  39.623  35.800  0.00  0.00     0.037 H 
ATOM    138  H77 LEU d   1      13.831  39.445  37.587  0.00  0.00     0.037 H 
BRANCH 136 139
ATOM    139  CG  LEU d   1      13.320  37.659  36.519  0.00  0.00    -0.059 C 
ATOM    140  H78 LEU d   1      12.271  37.879  36.270  0.00  0.00     0.038 H 
BRANCH 139 141
ATOM    141  CD1 LEU d   1      13.912  36.773  35.427  0.00  0.00    -0.073 C 
ATOM    142  H79 LEU d   1      13.339  35.836  35.364  0.00  0.00     0.028 H 
ATOM    143  H80 LEU d   1      14.961  36.546  35.668  0.00  0.00     0.028 H 
ATOM    144  H81 LEU d   1      13.863  37.298  34.462  0.00  0.00     0.028 H 
ENDBRANCH 139 141
BRANCH 139 145
ATOM    145  CD2 LEU d   1      13.380  36.953  37.846  0.00  0.00    -0.073 C 
ATOM    146  H82 LEU d   1      12.951  37.600  38.625  0.00  0.00     0.028 H 
ATOM    147  H83 LEU d   1      14.428  36.726  38.094  0.00  0.00     0.028 H 
ATOM    148  H84 LEU d   1      12.805  36.017  37.790  0.00  0.00     0.028 H 
ENDBRANCH 139 145
ENDBRANCH 136 139
ENDBRANCH 111 136
ENDBRANCH 109 111
ENDBRANCH 105 107
BRANCH 105 149
ATOM    149  CB  ASN d   1      19.040  36.778  39.233  0.00  0.00     0.036 C 
ATOM    150  H70 ASN d   1      19.705  36.771  38.357  0.00  0.00     0.051 H 
ATOM    151  H71 ASN d   1      19.353  35.993  39.938  0.00  0.00     0.051 H 
BRANCH 149 152
ATOM    152  CG  ASN d   1      19.158  38.121  39.920  0.00  0.00     0.217 C 
ATOM    153  OD1 ASN d   1      18.785  38.275  41.083  0.00  0.00    -0.274 OA
ATOM    154  ND2 ASN d   1      19.673  39.108  39.196  0.00  0.00    -0.370 N 
ATOM    155  H72 ASN d   1      19.776  40.019  39.595  0.00  0.00     0.159 HD
ATOM    156  H73 ASN d   1      19.957  38.940  38.252  0.00  0.00     0.159 HD
ENDBRANCH 149 152
ENDBRANCH 105 149
ENDBRANCH 103 105
ENDBRANCH  99 101
BRANCH  99 157
ATOM    157  CB  LEU d   1      15.473  32.717  36.993  0.00  0.00    -0.035 C 
ATOM    158  H59 LEU d   1      14.480  33.161  37.153  0.00  0.00     0.037 H 
ATOM    159  H60 LEU d   1      15.370  31.632  36.844  0.00  0.00     0.037 H 
BRANCH 157 160
ATOM    160  CG  LEU d   1      16.070  33.322  35.719  0.00  0.00    -0.059 C 
ATOM    161  H61 LEU d   1      16.387  34.355  35.925  0.00  0.00     0.038 H 
BRANCH 160 162
ATOM    162  CD1 LEU d   1      17.280  32.511  35.287  0.00  0.00    -0.073 C 
ATOM    163  H62 LEU d   1      17.706  32.948  34.372  0.00  0.00     0.028 H 
ATOM    164  H63 LEU d   1      16.974  31.473  35.090  0.00  0.00     0.028 H 
ATOM    165  H64 LEU d   1      18.035  32.525  36.087  0.00  0.00     0.028 H 
ENDBRANCH 160 162
BRANCH 160 166
ATOM    166  CD2 LEU d   1      15.022  33.339  34.622  0.00  0.00    -0.073 C 
ATOM    167  H65 LEU d   1      14.155  33.930  34.952  0.00  0.00     0.028 H 
ATOM    168  H66 LEU d   1      14.702  32.309  34.404  0.00  0.00     0.028 H 
ATOM    169  H67 LEU d   1      15.449  33.790  33.714  0.00  0.00     0.028 H 
ENDBRANCH 160 166
ENDBRANCH 157 160
ENDBRANCH  99 157
ENDBRANCH  97  99
ENDBRANCH  93  95
BRANCH  93 170
ATOM    170  CB  THR d   1      15.860  31.396  42.438  0.00  0.00     0.060 C 
ATOM    171  H52 THR d   1      16.101  32.446  42.217  0.00  0.00     0.086 H 
BRANCH 170 172
ATOM    172  OG1 THR d   1      17.056  30.701  42.810  0.00  0.00    -0.393 OA
ATOM    173  H53 THR d   1      16.848  29.793  42.995  0.00  0.00     0.210 HD
ENDBRANCH 170 172
BRANCH 170 174
ATOM    174  CG2 THR d   1      14.874  31.339  43.604  0.00  0.00    -0.050 C 
ATOM    175  H54 THR d   1      15.326  31.809  44.490  0.00  0.00     0.031 H 
ATOM    176  H55 THR d   1      14.632  30.290  43.829  0.00  0.00     0.031 H 
ATOM    177  H56 THR d   1      13.954  31.878  43.333  0.00  0.00     0.031 H 
ENDBRANCH 170 174
ENDBRANCH  93 170
ENDBRANCH   3  93
TORSDOF 45
