REMARK  23 active torsions:
REMARK  status: ('A' for Active; 'I' for Inactive)
REMARK    1  A    between atoms: N1_8  and  C1_1 
REMARK    2  A    between atoms: C2_2  and  O2_9 
REMARK    3  A    between atoms: C3_3  and  O3_10 
REMARK    4  A    between atoms: C4_4  and  O4_11 
REMARK    5  A    between atoms: C5_5  and  C6_6 
REMARK    6  A    between atoms: C6_6  and  O6_12 
REMARK    7  A    between atoms: C4_16  and  N1_8 
REMARK    8  A    between atoms: O4_30  and  C1_13 
REMARK    9  A    between atoms: C2_14  and  O2_19 
REMARK   10  A    between atoms: C3_15  and  O3_20 
REMARK   11  A    between atoms: C5_17  and  C6_18 
REMARK   12  A    between atoms: O4_42  and  C1_22 
REMARK   13  A    between atoms: C2_23  and  O2_28 
REMARK   14  A    between atoms: C3_24  and  O3_29 
REMARK   15  A    between atoms: C4_25  and  O4_30 
REMARK   16  A    between atoms: C5_26  and  C6_27 
REMARK   17  A    between atoms: C6_27  and  O6_32 
REMARK   18  A    between atoms: C1_33  and  O1_39 
REMARK   19  A    between atoms: C2_34  and  O2_40 
REMARK   20  A    between atoms: C3_35  and  O3_41 
REMARK   21  A    between atoms: C4_36  and  O4_42 
REMARK   22  A    between atoms: C5_37  and  C6_38 
REMARK   23  A    between atoms: C6_38  and  O6_44 
ROOT
ATOM      1  H14 ACI d   1      41.889  51.587  21.842  0.00  0.00     0.133 H 
ATOM      2  H15 ACI d   1      43.888  52.829  21.335  0.00  0.00     0.094 H 
ATOM      3  H16 ACI d   1      44.487  50.527  19.390  0.00  0.00     0.090 H 
ATOM      4  H17 ACI d   1      45.748  51.613  21.960  0.00  0.00     0.092 H 
ATOM      5  H18 ACI d   1      44.684  48.846  21.189  0.00  0.00     0.086 H 
ATOM      6  C1  GLD d   1      42.639  51.057  21.237  0.00  0.00     0.159 C 
ATOM      7  C2  GLD d   1      43.574  52.090  20.584  0.00  0.00     0.110 C 
ATOM      8  C3  GLD d   1      44.812  51.361  20.030  0.00  0.00     0.094 C 
ATOM      9  C4  GLD d   1      45.590  50.803  21.232  0.00  0.00     0.154 C 
ATOM     10  C5  GLD d   1      44.738  49.701  21.878  0.00  0.00     0.068 C 
ATOM     11  O5  GLD d   1      43.394  50.189  22.129  0.00  0.00    -0.351 OA
ENDROOT
BRANCH   6  12
ATOM     12  O4  GLC d   1      41.955  50.362  20.184  0.00  0.00    -0.348 OA
BRANCH  12  13
ATOM     13  C4  GLC d   1      41.315  49.118  20.491  0.00  0.00     0.096 C 
ATOM     14  C3  GLC d   1      42.325  47.982  20.522  0.00  0.00     0.092 C 
ATOM     15  C2  GLC d   1      41.561  46.684  20.663  0.00  0.00     0.110 C 
ATOM     16  H26 ACI d   1      43.008  48.112  21.374  0.00  0.00     0.091 H 
ATOM     17  C1  GLC d   1      40.842  46.658  22.004  0.00  0.00     0.159 C 
ATOM     18  H25 ACI d   1      40.806  46.629  19.865  0.00  0.00     0.094 H 
ATOM     19  O5  GLC d   1      39.992  47.828  22.083  0.00  0.00    -0.348 OA
ATOM     20  H24 ACI d   1      40.217  45.755  22.066  0.00  0.00     0.133 H 
ATOM     21  C5  GLC d   1      40.509  49.156  21.797  0.00  0.00     0.089 C 
ATOM     22  H28 ACI d   1      41.161  49.482  22.620  0.00  0.00     0.090 H 
ATOM     23  H27 ACI d   1      40.605  48.910  19.677  0.00  0.00     0.091 H 
BRANCH  14  24
ATOM     24  O3  GLC d   1      43.072  47.961  19.308  0.00  0.00    -0.390 OA
ATOM     25  H32 ACI d   1      43.700  47.249  19.336  0.00  0.00     0.210 HD
ENDBRANCH  14  24
BRANCH  15  26
ATOM     26  O2  GLC d   1      42.444  45.589  20.514  0.00  0.00    -0.388 OA
ATOM     27  H31 ACI d   1      42.848  45.624  19.655  0.00  0.00     0.210 HD
ENDBRANCH  15  26
BRANCH  17  28
ATOM     28  O4  GAL d   1      41.795  46.631  23.072  0.00  0.00    -0.348 OA
BRANCH  28  29
ATOM     29  C4  GAL d   1      42.045  45.354  23.688  0.00  0.00     0.096 C 
ATOM     30  C3  GAL d   1      40.752  44.623  24.058  0.00  0.00     0.092 C 
ATOM     31  C2  GAL d   1      41.137  43.388  24.857  0.00  0.00     0.110 C 
ATOM     32  H36 ACI d   1      40.220  44.325  23.143  0.00  0.00     0.091 H 
ATOM     33  C1  GAL d   1      41.920  42.452  23.925  0.00  0.00     0.156 C 
ATOM     34  H35 ACI d   1      41.780  43.681  25.700  0.00  0.00     0.094 H 
ATOM     35  O5  GAL d   1      43.091  43.146  23.444  0.00  0.00    -0.349 OA
ATOM     36  H34 ACI d   1      41.285  42.189  23.066  0.00  0.00     0.133 H 
ATOM     37  C5  GAL d   1      42.939  44.445  22.816  0.00  0.00     0.089 C 
ATOM     38  H38 ACI d   1      42.452  44.312  21.839  0.00  0.00     0.090 H 
ATOM     39  H37 ACI d   1      42.590  45.551  24.623  0.00  0.00     0.091 H 
BRANCH  30  40
ATOM     40  O3  GAL d   1      39.909  45.460  24.838  0.00  0.00    -0.390 OA
ATOM     41  H43 ACI d   1      39.113  44.990  25.057  0.00  0.00     0.210 HD
ENDBRANCH  30  40
BRANCH  31  42
ATOM     42  O2  GAL d   1      39.973  42.757  25.369  0.00  0.00    -0.388 OA
ATOM     43  H42 ACI d   1      39.508  43.363  25.934  0.00  0.00     0.210 HD
ENDBRANCH  31  42
BRANCH  33  44
ATOM     44  O1  GAL d   1      42.274  41.256  24.608  0.00  0.00    -0.369 OA
ATOM     45  H41 ACI d   1      41.486  40.822  24.913  0.00  0.00     0.212 HD
ENDBRANCH  33  44
BRANCH  37  46
ATOM     46  C6  GAL d   1      44.332  45.077  22.589  0.00  0.00     0.043 C 
ATOM     47  H39 ACI d   1      44.223  45.959  21.941  0.00  0.00     0.078 H 
ATOM     48  H40 ACI d   1      44.984  44.339  22.098  0.00  0.00     0.078 H 
BRANCH  46  49
ATOM     49  O6  GAL d   1      44.930  45.477  23.819  0.00  0.00    -0.398 OA
ATOM     50  H44 ACI d   1      45.782  45.860  23.646  0.00  0.00     0.209 HD
ENDBRANCH  46  49
ENDBRANCH  37  46
ENDBRANCH  28  29
ENDBRANCH  17  28
BRANCH  21  51
ATOM     51  C6  GLC d   1      39.337  50.136  21.655  0.00  0.00     0.043 C 
ATOM     52  H29 ACI d   1      38.721  49.848  20.791  0.00  0.00     0.078 H 
ATOM     53  H30 ACI d   1      39.726  51.154  21.506  0.00  0.00     0.078 H 
BRANCH  51  54
ATOM     54  O6  GLC d   1      38.544  50.099  22.837  0.00  0.00    -0.398 OA
ATOM     55  H33 ACI d   1      38.209  49.219  22.965  0.00  0.00     0.209 HD
ENDBRANCH  51  54
ENDBRANCH  21  51
ENDBRANCH  12  13
ENDBRANCH   6  12
BRANCH   7  56
ATOM     56  O2  GLD d   1      42.892  52.752  19.528  0.00  0.00    -0.388 OA
ATOM     57  H22 ACI d   1      42.617  52.113  18.881  0.00  0.00     0.210 HD
ENDBRANCH   7  56
BRANCH   8  58
ATOM     58  O3  GLD d   1      45.622  52.242  19.248  0.00  0.00    -0.391 OA
ATOM     59  H23 ACI d   1      45.115  52.570  18.515  0.00  0.00     0.210 HD
ENDBRANCH   8  58
BRANCH  10  60
ATOM     60  C6  GLD d   1      45.370  49.236  23.199  0.00  0.00    -0.050 C 
ATOM     61  H19 ACI d   1      44.747  48.448  23.646  0.00  0.00     0.031 H 
ATOM     62  H20 ACI d   1      45.438  50.087  23.892  0.00  0.00     0.031 H 
ATOM     63  H21 ACI d   1      46.378  48.840  23.004  0.00  0.00     0.031 H 
ENDBRANCH  10  60
BRANCH   9  64
ATOM     64  N1  ACI d   1      46.894  50.269  20.845  0.00  0.00    -0.056 N 
ATOM     65  H8  ACI d   1      47.242  49.695  21.597  0.00  0.00     0.278 HD
ATOM     66  H9  ACI d   1      46.778  49.705  20.018  0.00  0.00     0.278 HD
BRANCH  64  67
ATOM     67  C1  ACI d   1      47.877  51.315  20.562  0.00  0.00     0.146 C 
ATOM     68  C2  ACI d   1      49.271  50.739  20.762  0.00  0.00     0.093 C 
ATOM     69  C3  ACI d   1      49.605  50.719  22.244  0.00  0.00     0.091 C 
ATOM     70  H2  ACI d   1      50.003  51.366  20.232  0.00  0.00     0.090 H 
ATOM     71  C4  ACI d   1      49.769  52.154  22.735  0.00  0.00     0.086 C 
ATOM     72  H3  ACI d   1      48.795  50.227  22.803  0.00  0.00     0.091 H 
ATOM     73  C5  ACI d   1      48.517  52.990  22.450  0.00  0.00    -0.027 C 
ATOM     74  H4  ACI d   1      50.614  52.608  22.197  0.00  0.00     0.094 H 
ATOM     75  C7  ACI d   1      47.640  52.610  21.392  0.00  0.00    -0.064 C 
ATOM     76  H7  ACI d   1      46.784  53.241  21.159  0.00  0.00     0.080 H 
ATOM     77  H1  ACI d   1      47.776  51.591  19.502  0.00  0.00     0.095 H 
BRANCH  68  78
ATOM     78  O2  ACI d   1      49.324  49.414  20.245  0.00  0.00    -0.390 OA
ATOM     79  H10 ACI d   1      50.198  49.062  20.368  0.00  0.00     0.210 HD
ENDBRANCH  68  78
BRANCH  69  80
ATOM     80  O3  ACI d   1      50.815  50.005  22.430  0.00  0.00    -0.390 OA
ATOM     81  H11 ACI d   1      50.706  49.113  22.122  0.00  0.00     0.210 HD
ENDBRANCH  69  80
BRANCH  71  82
ATOM     82  O4  ACI d   1      50.066  52.161  24.129  0.00  0.00    -0.388 OA
ATOM     83  H12 ACI d   1      50.219  53.054  24.415  0.00  0.00     0.210 HD
ENDBRANCH  71  82
BRANCH  73  84
ATOM     84  C6  ACI d   1      48.125  54.216  23.273  0.00  0.00     0.039 C 
ATOM     85  H5  ACI d   1      47.038  54.369  23.198  0.00  0.00     0.081 H 
ATOM     86  H6  ACI d   1      48.648  55.099  22.878  0.00  0.00     0.081 H 
BRANCH  84  87
ATOM     87  O6  ACI d   1      48.478  54.036  24.636  0.00  0.00    -0.397 OA
ATOM     88  H13 ACI d   1      49.416  53.906  24.704  0.00  0.00     0.209 HD
ENDBRANCH  84  87
ENDBRANCH  73  84
ENDBRANCH  64  67
ENDBRANCH   9  64
TORSDOF 23
