REMARK  19 active torsions:
REMARK  status: ('A' for Active; 'I' for Inactive)
REMARK    1  A    between atoms: O3_19  and  C1_1 
REMARK    2  A    between atoms: C2_2  and  O2_7 
REMARK    3  A    between atoms: C3_3  and  O3_8 
REMARK    4  A    between atoms: C4_4  and  O4_9 
REMARK    5  A    between atoms: C5_5  and  C6_6 
REMARK    6  A    between atoms: C6_6  and  O6_11 
REMARK    7  A    between atoms: O4_34  and  C1_12 
REMARK    8  A    between atoms: C2_13  and  O2_18 
REMARK    9  A    between atoms: C3_14  and  O3_19 
REMARK   10  A    between atoms: C4_15  and  O4_20 
REMARK   11  A    between atoms: C5_16  and  C6_17 
REMARK   12  A    between atoms: C6_17  and  O6_22 
REMARK   13  A    between atoms: C1_23  and  O1_32 
REMARK   14  A    between atoms: N2_31  and  C2_24 
REMARK   15  A    between atoms: C3_25  and  O3_33 
REMARK   16  A    between atoms: C4_26  and  O4_34 
REMARK   17  A    between atoms: C5_27  and  C6_28 
REMARK   18  A    between atoms: C6_28  and  O6_36 
REMARK   19  A    between atoms: C7_29  and  C8_30 
REMARK       I    between atoms: C7_29  and  N2_31 
ROOT
ATOM      1  C1  NON d   1      36.966  10.819  29.867  0.00  0.00     0.159 C 
ATOM      2  C2  NON d   1      36.827  11.674  31.113  0.00  0.00     0.110 C 
ATOM      3  C3  NON d   1      38.050  12.572  31.245  0.00  0.00     0.098 C 
ATOM      4  C4  NON d   1      39.337  11.735  31.240  0.00  0.00     0.090 C 
ATOM      5  C5  NON d   1      39.360  10.840  29.994  0.00  0.00     0.089 C 
ATOM      6  O5  NON d   1      38.165  10.029  29.935  0.00  0.00    -0.348 OA
ATOM      7  H12 NON d   1      36.997  11.464  28.977  0.00  0.00     0.133 H 
ATOM      8  H13 NON d   1      36.751  11.027  31.999  0.00  0.00     0.094 H 
ATOM      9  H14 NON d   1      38.076  13.266  30.392  0.00  0.00     0.091 H 
ATOM     10  H15 NON d   1      40.205  12.411  31.214  0.00  0.00     0.091 H 
ATOM     11  H16 NON d   1      39.406  11.488  29.106  0.00  0.00     0.090 H 
ENDROOT
BRANCH   1  12
ATOM     12  O4  NON d   1      35.884   9.967  29.795  0.00  0.00    -0.348 OA
BRANCH  12  13
ATOM     13  C4  NON d   1      35.718   9.248  28.566  0.00  0.00     0.095 C 
ATOM     14  C3  NON d   1      35.330   7.806  28.892  0.00  0.00     0.087 C 
ATOM     15  C2  NON d   1      35.011   7.055  27.600  0.00  0.00     0.086 C 
ATOM     16  H24 NON d   1      34.436   7.810  29.534  0.00  0.00     0.090 H 
ATOM     17  C1  NON d   1      33.910   7.815  26.856  0.00  0.00     0.151 C 
ATOM     18  H23 NON d   1      35.913   7.014  26.972  0.00  0.00     0.084 H 
ATOM     19  O5  NON d   1      34.366   9.139  26.539  0.00  0.00    -0.349 OA
ATOM     20  H22 NON d   1      33.007   7.868  27.482  0.00  0.00     0.132 H 
ATOM     21  C5  NON d   1      34.624   9.920  27.719  0.00  0.00     0.089 C 
ATOM     22  H26 NON d   1      33.709   9.970  28.327  0.00  0.00     0.090 H 
ATOM     23  H25 NON d   1      36.664   9.254  28.005  0.00  0.00     0.091 H 
BRANCH  14  24
ATOM     24  O3  NON d   1      36.394   7.169  29.586  0.00  0.00    -0.391 OA
ATOM     25  H34 NON d   1      37.172   7.171  29.041  0.00  0.00     0.210 HD
ENDBRANCH  14  24
BRANCH  15  26
ATOM     26  N2  NON d   1      34.579   5.702  27.889  0.00  0.00    -0.349 N 
ATOM     27  C7  NON d   1      35.002   4.691  27.134  0.00  0.00     0.214 C 
ATOM     28  O7  NON d   1      35.676   4.852  26.117  0.00  0.00    -0.274 OA
ATOM     29  H32 NON d   1      33.962   5.528  28.657  0.00  0.00     0.163 HD
BRANCH  27  30
ATOM     30  C8  NON d   1      34.625   3.282  27.576  0.00  0.00    -0.003 C 
ATOM     31  H29 NON d   1      35.038   2.552  26.864  0.00  0.00     0.040 H 
ATOM     32  H30 NON d   1      33.529   3.187  27.604  0.00  0.00     0.040 H 
ATOM     33  H31 NON d   1      35.035   3.090  28.578  0.00  0.00     0.040 H 
ENDBRANCH  27  30
ENDBRANCH  15  26
BRANCH  17  34
ATOM     34  O1  NON d   1      33.626   7.167  25.669  0.00  0.00    -0.369 OA
ATOM     35  H33 NON d   1      34.411   7.126  25.136  0.00  0.00     0.212 HD
ENDBRANCH  17  34
BRANCH  21  36
ATOM     36  C6  NON d   1      34.973  11.327  27.262  0.00  0.00     0.043 C 
ATOM     37  H27 NON d   1      35.007  11.989  28.140  0.00  0.00     0.078 H 
ATOM     38  H28 NON d   1      34.197  11.679  26.567  0.00  0.00     0.078 H 
BRANCH  36  39
ATOM     39  O6  NON d   1      36.232  11.367  26.605  0.00  0.00    -0.398 OA
ATOM     40  H35 NON d   1      36.909  11.069  27.201  0.00  0.00     0.209 HD
ENDBRANCH  36  39
ENDBRANCH  21  36
ENDBRANCH  12  13
ENDBRANCH   1  12
BRANCH   2  41
ATOM     41  O2  NON d   1      35.652  12.465  31.002  0.00  0.00    -0.388 OA
ATOM     42  H19 NON d   1      35.561  13.005  31.778  0.00  0.00     0.210 HD
ENDBRANCH   2  41
BRANCH   3  43
ATOM     43  O3  NON d   1      37.956  13.331  32.461  0.00  0.00    -0.348 OA
BRANCH  43  44
ATOM     44  C1  NON d   1      38.703  14.515  32.483  0.00  0.00     0.159 C 
ATOM     45  C2  NON d   1      38.389  15.286  33.763  0.00  0.00     0.110 C 
ATOM     46  C3  NON d   1      36.956  15.820  33.712  0.00  0.00     0.092 C 
ATOM     47  H2  NON d   1      39.088  16.130  33.860  0.00  0.00     0.094 H 
ATOM     48  C4  NON d   1      36.756  16.661  32.448  0.00  0.00     0.090 C 
ATOM     49  H3  NON d   1      36.254  14.973  33.697  0.00  0.00     0.091 H 
ATOM     50  C5  NON d   1      37.117  15.829  31.213  0.00  0.00     0.089 C 
ATOM     51  H4  NON d   1      35.704  16.976  32.381  0.00  0.00     0.091 H 
ATOM     52  O5  NON d   1      38.470  15.334  31.333  0.00  0.00    -0.348 OA
ATOM     53  H5  NON d   1      36.420  14.981  31.150  0.00  0.00     0.090 H 
ATOM     54  H1  NON d   1      39.769  14.245  32.492  0.00  0.00     0.133 H 
BRANCH  45  55
ATOM     55  O2  NON d   1      38.534  14.424  34.881  0.00  0.00    -0.388 OA
ATOM     56  H8  NON d   1      38.347  14.906  35.678  0.00  0.00     0.210 HD
ENDBRANCH  45  55
BRANCH  46  57
ATOM     57  O3  NON d   1      36.707  16.614  34.861  0.00  0.00    -0.390 OA
ATOM     58  H9  NON d   1      37.309  17.349  34.873  0.00  0.00     0.210 HD
ENDBRANCH  46  57
BRANCH  48  59
ATOM     59  O4  NON d   1      37.590  17.809  32.511  0.00  0.00    -0.390 OA
ATOM     60  H10 NON d   1      38.498  17.536  32.568  0.00  0.00     0.210 HD
ENDBRANCH  48  59
BRANCH  50  61
ATOM     61  C6  NON d   1      37.041  16.626  29.921  0.00  0.00     0.043 C 
ATOM     62  H6  NON d   1      37.804  17.418  29.942  0.00  0.00     0.078 H 
ATOM     63  H7  NON d   1      36.043  17.081  29.838  0.00  0.00     0.078 H 
BRANCH  61  64
ATOM     64  O6  NON d   1      37.267  15.793  28.792  0.00  0.00    -0.398 OA
ATOM     65  H11 NON d   1      36.608  15.109  28.767  0.00  0.00     0.209 HD
ENDBRANCH  61  64
ENDBRANCH  50  61
ENDBRANCH  43  44
ENDBRANCH   3  43
BRANCH   5  66
ATOM     66  C6  NON d   1      40.537   9.895  29.969  0.00  0.00     0.043 C 
ATOM     67  H17 NON d   1      40.453   9.192  30.811  0.00  0.00     0.078 H 
ATOM     68  H18 NON d   1      41.467  10.475  30.066  0.00  0.00     0.078 H 
BRANCH  66  69
ATOM     69  O6  NON d   1      40.570   9.163  28.753  0.00  0.00    -0.398 OA
ATOM     70  H21 NON d   1      39.770   8.659  28.666  0.00  0.00     0.209 HD
ENDBRANCH  66  69
ENDBRANCH   5  66
BRANCH   4  71
ATOM     71  O4  NON d   1      39.409  10.937  32.413  0.00  0.00    -0.390 OA
ATOM     72  H20 NON d   1      39.394  11.499  33.179  0.00  0.00     0.210 HD
ENDBRANCH   4  71
TORSDOF 19
