REMARK  13 active torsions:
REMARK  status: ('A' for Active; 'I' for Inactive)
REMARK    1  A    between atoms: O3_22  and  C1_1 
REMARK    2  A    between atoms: C2_2  and  O2_7 
REMARK    3  A    between atoms: C3_3  and  O3_8 
REMARK    4  A    between atoms: C4_4  and  O4_9 
REMARK    5  A    between atoms: C5_5  and  C6_6 
REMARK    6  A    between atoms: C6_6  and  O6_11 
REMARK    7  A    between atoms: C1_12  and  O1_21 
REMARK    8  A    between atoms: N2_20  and  C2_13 
REMARK    9  A    between atoms: C3_14  and  O3_22 
REMARK   10  A    between atoms: C4_15  and  O4_23 
REMARK   11  A    between atoms: C5_16  and  C6_17 
REMARK   12  A    between atoms: C6_17  and  O6_25 
REMARK   13  A    between atoms: C7_18  and  C8_19 
REMARK       I    between atoms: C7_18  and  N2_20 
ROOT
ATOM      1  C1  NON d   1     -32.455 -19.770 -21.678  0.00  0.00     0.151 C 
ATOM      2  C2  NON d   1     -32.000 -20.046 -20.232  0.00  0.00     0.087 C 
ATOM      3  C3  NON d   1     -33.219 -20.247 -19.326  0.00  0.00     0.093 C 
ATOM      4  C4  NON d   1     -34.322 -19.267 -19.722  0.00  0.00     0.089 C 
ATOM      5  C5  NON d   1     -34.807 -19.597 -21.144  0.00  0.00     0.089 C 
ATOM      6  O5  NON d   1     -33.777 -20.292 -21.901  0.00  0.00    -0.349 OA
ATOM      7  H12 NON d   1     -31.750 -20.247 -22.375  0.00  0.00     0.132 H 
ATOM      8  H13 NON d   1     -31.415 -19.188 -19.869  0.00  0.00     0.084 H 
ATOM      9  H14 NON d   1     -33.592 -21.274 -19.451  0.00  0.00     0.091 H 
ATOM     10  H15 NON d   1     -35.162 -19.351 -19.017  0.00  0.00     0.091 H 
ATOM     11  H16 NON d   1     -35.055 -18.653 -21.651  0.00  0.00     0.090 H 
ENDROOT
BRANCH   3  12
ATOM     12  O3  NON d   1     -32.848 -20.050 -17.945  0.00  0.00    -0.348 OA
BRANCH  12  13
ATOM     13  C1  NON d   1     -33.807 -20.401 -17.006  0.00  0.00     0.159 C 
ATOM     14  C2  NON d   1     -33.160 -21.200 -15.867  0.00  0.00     0.110 C 
ATOM     15  C3  NON d   1     -34.196 -21.483 -14.775  0.00  0.00     0.092 C 
ATOM     16  H2  NON d   1     -32.335 -20.613 -15.438  0.00  0.00     0.094 H 
ATOM     17  C4  NON d   1     -34.849 -20.178 -14.319  0.00  0.00     0.090 C 
ATOM     18  H3  NON d   1     -34.971 -22.150 -15.180  0.00  0.00     0.091 H 
ATOM     19  C5  NON d   1     -35.434 -19.445 -15.527  0.00  0.00     0.089 C 
ATOM     20  H4  NON d   1     -35.655 -20.404 -13.605  0.00  0.00     0.091 H 
ATOM     21  O5  NON d   1     -34.398 -19.194 -16.502  0.00  0.00    -0.348 OA
ATOM     22  H5  NON d   1     -36.216 -20.076 -15.974  0.00  0.00     0.090 H 
ATOM     23  H1  NON d   1     -34.582 -21.018 -17.483  0.00  0.00     0.133 H 
BRANCH  14  24
ATOM     24  O2  NON d   1     -32.648 -22.425 -16.373  0.00  0.00    -0.388 OA
ATOM     25  H8  NON d   1     -32.006 -22.243 -17.050  0.00  0.00     0.210 HD
ENDBRANCH  14  24
BRANCH  15  26
ATOM     26  O3  NON d   1     -33.571 -22.115 -13.669  0.00  0.00    -0.390 OA
ATOM     27  H9  NON d   1     -32.907 -21.538 -13.310  0.00  0.00     0.210 HD
ENDBRANCH  15  26
BRANCH  17  28
ATOM     28  O4  NON d   1     -33.877 -19.357 -13.688  0.00  0.00    -0.390 OA
ATOM     29  H10 NON d   1     -34.285 -18.549 -13.400  0.00  0.00     0.210 HD
ENDBRANCH  17  28
BRANCH  19  30
ATOM     30  C6  NON d   1     -36.034 -18.103 -15.154  0.00  0.00     0.043 C 
ATOM     31  H6  NON d   1     -35.324 -17.558 -14.514  0.00  0.00     0.078 H 
ATOM     32  H7  NON d   1     -36.971 -18.270 -14.603  0.00  0.00     0.078 H 
BRANCH  30  33
ATOM     33  O6  NON d   1     -36.309 -17.323 -16.308  0.00  0.00    -0.398 OA
ATOM     34  H11 NON d   1     -35.502 -17.172 -16.786  0.00  0.00     0.209 HD
ENDBRANCH  30  33
ENDBRANCH  19  30
ENDBRANCH  12  13
ENDBRANCH   3  12
BRANCH   2  35
ATOM     35  N2  NON d   1     -31.174 -21.243 -20.192  0.00  0.00    -0.349 N 
ATOM     36  C7  NON d   1     -29.934 -21.256 -20.686  0.00  0.00     0.214 C 
ATOM     37  O7  NON d   1     -29.235 -22.267 -20.651  0.00  0.00    -0.274 OA
ATOM     38  H22 NON d   1     -31.545 -22.077 -19.784  0.00  0.00     0.163 HD
BRANCH  36  39
ATOM     39  C8  NON d   1     -29.363 -19.986 -21.314  0.00  0.00    -0.003 C 
ATOM     40  H19 NON d   1     -28.338 -20.179 -21.665  0.00  0.00     0.040 H 
ATOM     41  H20 NON d   1     -29.348 -19.181 -20.564  0.00  0.00     0.040 H 
ATOM     42  H21 NON d   1     -29.991 -19.683 -22.165  0.00  0.00     0.040 H 
ENDBRANCH  36  39
ENDBRANCH   2  35
BRANCH   4  43
ATOM     43  O4  NON d   1     -33.808 -17.943 -19.695  0.00  0.00    -0.390 OA
ATOM     44  H24 NON d   1     -33.081 -17.874 -20.303  0.00  0.00     0.210 HD
ENDBRANCH   4  43
BRANCH   1  45
ATOM     45  O1  NON d   1     -32.484 -18.403 -21.907  0.00  0.00    -0.369 OA
ATOM     46  H23 NON d   1     -33.101 -17.996 -21.310  0.00  0.00     0.212 HD
ENDBRANCH   1  45
BRANCH   5  47
ATOM     47  C6  NON d   1     -36.036 -20.495 -21.139  0.00  0.00     0.043 C 
ATOM     48  H17 NON d   1     -35.720 -21.534 -21.315  0.00  0.00     0.078 H 
ATOM     49  H18 NON d   1     -36.714 -20.177 -21.945  0.00  0.00     0.078 H 
BRANCH  47  50
ATOM     50  O6  NON d   1     -36.730 -20.428 -19.899  0.00  0.00    -0.398 OA
ATOM     51  H25 NON d   1     -37.489 -20.999 -19.931  0.00  0.00     0.209 HD
ENDBRANCH  47  50
ENDBRANCH   5  47
TORSDOF 13
