REMARK  29 active torsions:
REMARK  status: ('A' for Active; 'I' for Inactive)
REMARK    1  A    between atoms: C_3  and  CA_2 
REMARK       I    between atoms: N_8  and  C_3 
REMARK    2  A    between atoms: CA_9  and  N_8 
REMARK    3  A    between atoms: CA_9  and  CB_12 
REMARK    4  A    between atoms: C_10  and  CA_9 
REMARK       I    between atoms: N_16  and  C_10 
REMARK    5  A    between atoms: CB_12  and  CG_13 
REMARK    6  A    between atoms: CG_13  and  SD_14 
REMARK    7  A    between atoms: SD_14  and  CE_15 
REMARK    8  A    between atoms: CA_17  and  N_16 
REMARK    9  A    between atoms: CA_17  and  CB_20 
REMARK   10  A    between atoms: C_18  and  CA_17 
REMARK       I    between atoms: N_25  and  C_18 
REMARK   11  A    between atoms: CB_20  and  CG_21 
REMARK   12  A    between atoms: CG_21  and  CD_22 
REMARK       I    between atoms: CD_22  and  NE2_24 
REMARK   13  A    between atoms: CA_26  and  N_25 
REMARK   14  A    between atoms: CA_26  and  CB_29 
REMARK   15  A    between atoms: C_27  and  CA_26 
REMARK       I    between atoms: N_31  and  C_27 
REMARK   16  A    between atoms: CB_29  and  OG_30 
REMARK   17  A    between atoms: CA_32  and  N_31 
REMARK   18  A    between atoms: CA_32  and  CB_33 
REMARK   19  A    between atoms: C_40  and  CA_32 
REMARK   20  A    between atoms: CB_33  and  OG1_35 
REMARK   21  A    between atoms: CB_33  and  CG2_34 
REMARK   22  A    between atoms: OG1_35  and  P_36 
REMARK   23  A    between atoms: CA_43  and  C_44 
REMARK       I    between atoms: C_44  and  N_49 
REMARK   24  A    between atoms: N_49  and  CA_50 
REMARK   25  A    between atoms: CA_50  and  CB_53 
REMARK   26  A    between atoms: CA_50  and  C_51 
REMARK   27  A    between atoms: CB_53  and  CG_54 
REMARK   28  A    between atoms: CG_54  and  CD1_55 
REMARK   29  A    between atoms: CG_54  and  CD2_56 
ROOT
ATOM      1  CA  SER d   1      14.506  -2.523   4.038  0.00  0.00     0.109 C 
ATOM      2  H28 SER d   1      15.052  -2.440   4.990  0.00  0.00     0.090 H 
ENDROOT
BRANCH   1   3
ATOM      3  N   SER d   1      14.805  -3.822   3.436  0.00  0.00    -0.344 N 
ATOM      4  C   GLN d   1      14.791  -4.933   4.162  0.00  0.00     0.241 C 
ATOM      5  O   GLN d   1      14.573  -4.942   5.374  0.00  0.00    -0.271 OA
ATOM      6  H27 SER d   1      15.024  -3.874   2.462  0.00  0.00     0.163 HD
BRANCH   4   7
ATOM      7  CA  GLN d   1      15.075  -6.233   3.426  0.00  0.00     0.090 C 
ATOM      8  H20 GLN d   1      15.889  -6.072   2.703  0.00  0.00     0.087 H 
BRANCH   7   9
ATOM      9  N   GLN d   1      15.490  -7.233   4.394  0.00  0.00    -0.346 N 
ATOM     10  C   MET d   1      16.325  -8.220   4.084  0.00  0.00     0.241 C 
ATOM     11  O   MET d   1      16.795  -8.376   2.957  0.00  0.00    -0.271 OA
ATOM     12  H19 GLN d   1      15.135  -7.177   5.327  0.00  0.00     0.163 HD
BRANCH  10  13
ATOM     13  CA  MET d   1      16.686  -9.165   5.224  0.00  0.00     0.090 C 
ATOM     14  H11 MET d   1      17.754  -9.027   5.450  0.00  0.00     0.087 H 
BRANCH  13  15
ATOM     15  N   MET d   1      15.927  -8.844   6.423  0.00  0.00    -0.346 N 
ATOM     16  C   PRO d   1      16.437  -8.065   7.371  0.00  0.00     0.249 C 
ATOM     17  O   PRO d   1      17.557  -7.560   7.301  0.00  0.00    -0.271 OA
ATOM     18  H10 MET d   1      15.006  -9.216   6.536  0.00  0.00     0.163 HD
BRANCH  16  19
ATOM     19  CA  PRO d   1      15.561  -7.791   8.586  0.00  0.00     0.178 C 
ATOM     20  CB  PRO d   1      14.862  -6.435   8.400  0.00  0.00    -0.028 C 
ATOM     21  CG  PRO d   1      15.211  -5.625   9.617  0.00  0.00    -0.040 C 
ATOM     22  H4  PRO d   1      13.773  -6.572   8.330  0.00  0.00     0.036 H 
ATOM     23  H5  PRO d   1      15.228  -5.937   7.490  0.00  0.00     0.036 H 
ATOM     24  CD  PRO d   1      16.507  -6.157  10.142  0.00  0.00     0.083 C 
ATOM     25  H6  PRO d   1      15.320  -4.565   9.346  0.00  0.00     0.035 H 
ATOM     26  H7  PRO d   1      14.424  -5.729  10.378  0.00  0.00     0.035 H 
ATOM     27  N   PRO d   1      16.395  -7.583   9.801  0.00  0.00    -0.062 N 
ATOM     28  H8  PRO d   1      17.367  -5.689   9.640  0.00  0.00     0.075 H 
ATOM     29  H9  PRO d   1      16.592  -6.009  11.229  0.00  0.00     0.075 H 
ATOM     30  H1  PRO d   1      17.317  -7.952   9.632  0.00  0.00     0.278 HD
ATOM     31  H2  PRO d   1      15.974  -8.072  10.575  0.00  0.00     0.278 HD
ATOM     32  H3  PRO d   1      14.838  -8.608   8.729  0.00  0.00     0.099 H 
ENDBRANCH  16  19
ENDBRANCH  13  15
BRANCH  13  33
ATOM     33  CB  MET d   1      16.473 -10.631   4.832  0.00  0.00    -0.030 C 
ATOM     34  H12 MET d   1      16.878 -10.786   3.821  0.00  0.00     0.037 H 
ATOM     35  H13 MET d   1      15.393 -10.840   4.830  0.00  0.00     0.037 H 
BRANCH  33  36
ATOM     36  CG  MET d   1      17.156 -11.606   5.785  0.00  0.00    -0.021 C 
ATOM     37  H14 MET d   1      16.919 -12.634   5.476  0.00  0.00     0.049 H 
ATOM     38  H15 MET d   1      16.779 -11.434   6.804  0.00  0.00     0.049 H 
BRANCH  36  39
ATOM     39  SD  MET d   1      18.952 -11.389   5.777  0.00  0.00    -0.173 SA
BRANCH  39  40
ATOM     40  CE  MET d   1      19.455 -12.432   7.129  0.00  0.00    -0.035 C 
ATOM     41  H16 MET d   1      20.549 -12.391   7.236  0.00  0.00     0.041 H 
ATOM     42  H17 MET d   1      19.145 -13.468   6.928  0.00  0.00     0.041 H 
ATOM     43  H18 MET d   1      18.982 -12.081   8.058  0.00  0.00     0.041 H 
ENDBRANCH  39  40
ENDBRANCH  36  39
ENDBRANCH  33  36
ENDBRANCH  13  33
ENDBRANCH  10  13
ENDBRANCH   7   9
BRANCH   7  44
ATOM     44  CB  GLN d   1      13.824  -6.686   2.670  0.00  0.00    -0.030 C 
ATOM     45  H21 GLN d   1      14.085  -7.575   2.077  0.00  0.00     0.037 H 
ATOM     46  H22 GLN d   1      13.518  -5.873   1.996  0.00  0.00     0.037 H 
BRANCH  44  47
ATOM     47  CG  GLN d   1      12.634  -7.040   3.559  0.00  0.00     0.011 C 
ATOM     48  H23 GLN d   1      12.360  -6.154   4.151  0.00  0.00     0.047 H 
ATOM     49  H24 GLN d   1      12.929  -7.856   4.235  0.00  0.00     0.047 H 
BRANCH  47  50
ATOM     50  CD  GLN d   1      11.423  -7.485   2.758  0.00  0.00     0.215 C 
ATOM     51  NE2 GLN d   1      10.266  -7.573   3.417  0.00  0.00    -0.370 N 
ATOM     52  H25 GLN d   1       9.438  -7.861   2.937  0.00  0.00     0.159 HD
ATOM     53  H26 GLN d   1      10.227  -7.351   4.391  0.00  0.00     0.159 HD
ATOM     54  OE1 GLN d   1      11.530  -7.740   1.557  0.00  0.00    -0.274 OA
ENDBRANCH  47  50
ENDBRANCH  44  47
ENDBRANCH   7  44
ENDBRANCH   4   7
ENDBRANCH   1   3
BRANCH   1  55
ATOM     55  CB  SER d   1      14.952  -1.392   3.117  0.00  0.00     0.044 C 
ATOM     56  H29 SER d   1      16.031  -1.486   2.927  0.00  0.00     0.077 H 
ATOM     57  H30 SER d   1      14.748  -0.427   3.605  0.00  0.00     0.077 H 
BRANCH  55  58
ATOM     58  OG  SER d   1      14.257  -1.445   1.884  0.00  0.00    -0.398 OA
ATOM     59  H31 SER d   1      13.324  -1.361   2.044  0.00  0.00     0.209 HD
ENDBRANCH  55  58
ENDBRANCH   1  55
BRANCH   1  60
ATOM     60  C   SER d   1      13.004  -2.413   4.317  0.00  0.00     0.243 C 
ATOM     61  O   SER d   1      12.260  -3.382   4.123  0.00  0.00    -0.271 OA
ATOM     62  N   TPO d   1      12.467  -1.302   4.821  0.00  0.00    -0.345 N 
ATOM     63  H32 TPO d   1      13.043  -0.485   4.836  0.00  0.00     0.163 HD
BRANCH  62  64
ATOM     64  CA  TPO d   1      11.115  -1.171   5.353  0.00  0.00     0.102 C 
ATOM     65  H33 TPO d   1      10.970  -1.885   6.177  0.00  0.00     0.089 H 
BRANCH  64  66
ATOM     66  CB  TPO d   1      11.027   0.272   5.883  0.00  0.00     0.075 C 
ATOM     67  H34 TPO d   1      11.318   0.968   5.083  0.00  0.00     0.087 H 
BRANCH  66  68
ATOM     68  OG1 TPO d   1      11.912   0.421   6.990  0.00  0.00    -0.275 OA
BRANCH  68  69
ATOM     69  P   TPO d   1      13.182   1.399   6.855  0.00  0.00     0.422 P 
ATOM     70  O1P TPO d   1      13.903   1.164   8.258  0.00  0.00    -0.617 OA
ATOM     71  O2P TPO d   1      12.548   2.831   6.633  0.00  0.00    -0.617 OA
ATOM     72  O3P TPO d   1      14.026   0.866   5.605  0.00  0.00    -0.617 OA
ENDBRANCH  68  69
ENDBRANCH  66  68
BRANCH  66  73
ATOM     73  CG2 TPO d   1       9.614   0.598   6.340  0.00  0.00    -0.049 C 
ATOM     74  H35 TPO d   1       9.579   1.632   6.713  0.00  0.00     0.031 H 
ATOM     75  H36 TPO d   1       9.320  -0.092   7.145  0.00  0.00     0.031 H 
ATOM     76  H37 TPO d   1       8.921   0.490   5.493  0.00  0.00     0.031 H 
ENDBRANCH  66  73
ENDBRANCH  64  66
BRANCH  64  77
ATOM     77  C   TPO d   1      10.053  -1.424   4.302  0.00  0.00     0.179 C 
ATOM     78  O   TPO d   1      10.132  -0.841   3.112  0.00  0.00    -0.175 OA
ATOM     79  N   PRO d   1       9.118  -2.338   4.553  0.00  0.00    -0.348 N 
ATOM     80  CA  PRO d   1       8.004  -2.757   3.651  0.00  0.00     0.091 C 
ATOM     81  CD  PRO d   1       9.108  -3.088   5.820  0.00  0.00    -0.002 C 
ATOM     82  CB  PRO d   1       7.318  -3.886   4.432  0.00  0.00    -0.036 C 
ATOM     83  H38 PRO d   1       8.402  -3.122   2.693  0.00  0.00     0.087 H 
ATOM     84  CG  PRO d   1       8.308  -4.318   5.464  0.00  0.00    -0.048 C 
ATOM     85  H39 PRO d   1       7.072  -4.723   3.761  0.00  0.00     0.036 H 
ATOM     86  H40 PRO d   1       6.399  -3.518   4.912  0.00  0.00     0.036 H 
ATOM     87  H41 PRO d   1       7.788  -4.705   6.353  0.00  0.00     0.035 H 
ATOM     88  H42 PRO d   1       8.968  -5.098   5.056  0.00  0.00     0.035 H 
ATOM     89  H43 PRO d   1       8.618  -2.512   6.619  0.00  0.00     0.064 H 
ATOM     90  H44 PRO d   1      10.129  -3.354   6.133  0.00  0.00     0.064 H 
BRANCH  80  91
ATOM     91  C   PRO d   1       7.000  -1.642   3.387  0.00  0.00     0.241 C 
ATOM     92  O   PRO d   1       6.809  -0.740   4.207  0.00  0.00    -0.271 OA
ATOM     93  N   LEU d   1       6.350  -1.741   2.235  0.00  0.00    -0.345 N 
ATOM     94  H45 LEU d   1       6.559  -2.519   1.643  0.00  0.00     0.163 HD
BRANCH  93  95
ATOM     95  CA  LEU d   1       5.352  -0.786   1.782  0.00  0.00     0.096 C 
ATOM     96  H46 LEU d   1       5.831   0.200   1.693  0.00  0.00     0.089 H 
BRANCH  95  97
ATOM     97  CB  LEU d   1       4.855  -1.218   0.402  0.00  0.00    -0.034 C 
ATOM     98  H47 LEU d   1       4.106  -2.008   0.560  0.00  0.00     0.037 H 
ATOM     99  H48 LEU d   1       5.718  -1.634  -0.138  0.00  0.00     0.037 H 
BRANCH  97 100
ATOM    100  CG  LEU d   1       4.220  -0.171  -0.505  0.00  0.00    -0.059 C 
ATOM    101  H49 LEU d   1       3.198   0.028  -0.149  0.00  0.00     0.038 H 
BRANCH 100 102
ATOM    102  CD1 LEU d   1       5.006   1.130  -0.450  0.00  0.00    -0.073 C 
ATOM    103  H50 LEU d   1       4.533   1.872  -1.110  0.00  0.00     0.028 H 
ATOM    104  H51 LEU d   1       6.039   0.949  -0.783  0.00  0.00     0.028 H 
ATOM    105  H52 LEU d   1       5.014   1.510   0.582  0.00  0.00     0.028 H 
ENDBRANCH 100 102
BRANCH 100 106
ATOM    106  CD2 LEU d   1       4.139  -0.706  -1.932  0.00  0.00    -0.073 C 
ATOM    107  H53 LEU d   1       3.566  -1.645  -1.940  0.00  0.00     0.028 H 
ATOM    108  H54 LEU d   1       5.154  -0.893  -2.312  0.00  0.00     0.028 H 
ATOM    109  H55 LEU d   1       3.638   0.034  -2.573  0.00  0.00     0.028 H 
ENDBRANCH 100 106
ENDBRANCH  97 100
ENDBRANCH  95  97
BRANCH  95 110
ATOM    110  C   LEU d   1       4.178  -0.655   2.757  0.00  0.00     0.196 C 
ATOM    111  O   LEU d   1       3.923  -1.550   3.572  0.00  0.00    -0.646 OA
ATOM    112  O1  LEU d   1       3.461   0.381   2.728  0.00  0.00    -0.646 OA
ENDBRANCH  95 110
ENDBRANCH  93  95
ENDBRANCH  80  91
ENDBRANCH  64  77
ENDBRANCH  62  64
ENDBRANCH   1  60
TORSDOF 29
