REMARK  0 active torsions:
REMARK  status: ('A' for Active; 'I' for Inactive)
ROOT
ATOM      1  C1  IXM d   1      40.853  17.978  30.493  0.00  0.00     0.026 A 
ATOM      2  C2  IXM d   1      39.981  16.814  30.613  0.00  0.00     0.129 A 
ATOM      3  C3  IXM d   1      40.811  18.555  31.730  0.00  0.00     0.070 A 
ATOM      4  N4  IXM d   1      39.999  17.891  32.612  0.00  0.00    -0.245 NA
ATOM      5  C5  IXM d   1      41.587  19.764  31.975  0.00  0.00    -0.054 A 
ATOM      6  C7  IXM d   1      42.352  20.274  30.911  0.00  0.00    -0.081 A 
ATOM      7  C9  IXM d   1      42.385  19.663  29.647  0.00  0.00    -0.082 A 
ATOM      8  C11 IXM d   1      41.640  18.496  29.393  0.00  0.00    -0.068 A 
ATOM      9  C13 IXM d   1      39.499  16.839  31.925  0.00  0.00     0.106 A 
ATOM     10  C14 IXM d   1      38.614  15.923  32.540  0.00  0.00     0.076 A 
ATOM     11  C15 IXM d   1      38.208  16.059  33.849  0.00  0.00     0.259 A 
ATOM     12  N16 IXM d   1      37.350  15.080  34.288  0.00  0.00    -0.322 N 
ATOM     13  C17 IXM d   1      37.203  14.284  33.185  0.00  0.00     0.046 A 
ATOM     14  C18 IXM d   1      37.924  14.684  32.071  0.00  0.00     0.009 A 
ATOM     15  C19 IXM d   1      36.456  13.207  33.100  0.00  0.00    -0.056 A 
ATOM     16  C20 IXM d   1      36.328  12.475  32.027  0.00  0.00    -0.081 A 
ATOM     17  C21 IXM d   1      37.059  12.878  30.814  0.00  0.00    -0.082 A 
ATOM     18  C22 IXM d   1      37.846  13.970  30.794  0.00  0.00    -0.070 A 
ATOM     19  O23 IXM d   1      38.666  17.021  34.535  0.00  0.00    -0.267 OA
ATOM     20  N24 IXM d   1      39.709  15.923  29.638  0.00  0.00    -0.095 NA
ATOM     21  O39 IXM d   1      40.239  16.141  28.365  0.00  0.00    -0.061 OA
ATOM     22  H1  IXM d   1      41.575  20.255  32.947  0.00  0.00     0.087 H 
ATOM     23  H2  IXM d   1      42.940  21.176  31.073  0.00  0.00     0.083 H 
ATOM     24  H3  IXM d   1      42.993  20.097  28.855  0.00  0.00     0.083 H 
ATOM     25  H4  IXM d   1      41.655  18.008  28.420  0.00  0.00     0.085 H 
ATOM     26  H5  IXM d   1      36.935  14.975  35.192  0.00  0.00     0.169 HD
ATOM     27  H6  IXM d   1      35.907  12.905  33.984  0.00  0.00     0.086 H 
ATOM     28  H7  IXM d   1      35.699  11.592  32.029  0.00  0.00     0.083 H 
ATOM     29  H8  IXM d   1      36.961  12.281  29.915  0.00  0.00     0.083 H 
ATOM     30  H9  IXM d   1      38.378  14.294  29.907  0.00  0.00     0.084 H 
ENDROOT
TORSDOF 0
