REMARK  12 active torsions:
REMARK  status: ('A' for Active; 'I' for Inactive)
REMARK    1  A    between atoms: OAP_1  and  CAQ_2 
REMARK    2  A    between atoms: CAQ_2  and  CAR_3 
REMARK    3  A    between atoms: CAR_3  and  CAK_4 
REMARK    4  A    between atoms: CAR_3  and  NAS_6 
REMARK    5  A    between atoms: CAK_4  and  CAI_5 
REMARK    6  A    between atoms: NAS_6  and  CAT_7 
REMARK    7  A    between atoms: NAW_10  and  CAZ_11 
REMARK    8  A    between atoms: CAZ_11  and  CAY_12 
REMARK    9  A    between atoms: CAZ_11  and  CBA_13 
REMARK   10  A    between atoms: CAM_18  and  NAJ_19 
REMARK   11  A    between atoms: NAJ_19  and  CAD_20 
REMARK   12  A    between atoms: CAD_20  and  CAE_21 
ROOT
ATOM      1  CAT RRC d   1      59.154  28.424  28.009  0.00  0.00     0.726 A 
ATOM      2  NAU RRC d   1      58.754  27.170  27.687  0.00  0.00    -0.042 NA
ATOM      3  CAV RRC d   1      58.538  26.849  26.400  0.00  0.00     0.183 A 
ATOM      4  NAW RRC d   1      58.130  25.697  25.920  0.00  0.00    -0.320 N 
ATOM      5  CAX RRC d   1      58.035  25.832  24.567  0.00  0.00     0.069 A 
ATOM      6  CAN RRC d   1      58.726  27.715  25.383  0.00  0.00     0.151 A 
ATOM      7  NAO RRC d   1      58.450  27.088  24.165  0.00  0.00    -0.236 NA
ATOM      8  NAL RRC d   1      59.342  29.306  27.010  0.00  0.00    -0.043 NA
ATOM      9  CAM RRC d   1      59.136  28.993  25.724  0.00  0.00     0.176 A 
ATOM     10  H18 RRC d   1      57.680  25.054  23.893  0.00  0.00     0.143 H 
ENDROOT
BRANCH   1  11
ATOM     11  NAS RRC d   1      59.365  28.720  29.317  0.00  0.00    -0.216 N 
ATOM     12  H10 RRC d   1      59.217  27.958  29.994  0.00  0.00     0.178 HD
BRANCH  11  13
ATOM     13  CAR RRC d   1      59.779  30.006  29.860  0.00  0.00     0.046 C 
ATOM     14  H4  RRC d   1      60.041  30.702  29.050  0.00  0.00     0.076 H 
BRANCH  13  15
ATOM     15  CAQ RRC d   1      58.543  30.470  30.637  0.00  0.00     0.036 C 
ATOM     16  H2  RRC d   1      58.226  29.688  31.342  0.00  0.00     0.077 H 
ATOM     17  H3  RRC d   1      58.771  31.392  31.191  0.00  0.00     0.077 H 
BRANCH  15  18
ATOM     18  OAP RRC d   1      57.526  30.712  29.696  0.00  0.00    -0.399 OA
ATOM     19  H1  RRC d   1      56.742  31.003  30.147  0.00  0.00     0.209 HD
ENDBRANCH  15  18
ENDBRANCH  13  15
BRANCH  13  20
ATOM     20  CAK RRC d   1      60.936  29.911  30.856  0.00  0.00    -0.047 C 
ATOM     21  H5  RRC d   1      60.565  30.228  31.842  0.00  0.00     0.035 H 
ATOM     22  H6  RRC d   1      61.729  30.598  30.525  0.00  0.00     0.035 H 
BRANCH  20  23
ATOM     23  CAI RRC d   1      61.540  28.530  31.002  0.00  0.00    -0.075 C 
ATOM     24  H7  RRC d   1      62.359  28.564  31.735  0.00  0.00     0.027 H 
ATOM     25  H8  RRC d   1      61.932  28.197  30.030  0.00  0.00     0.027 H 
ATOM     26  H9  RRC d   1      60.768  27.827  31.347  0.00  0.00     0.027 H 
ENDBRANCH  20  23
ENDBRANCH  13  20
ENDBRANCH  11  13
ENDBRANCH   1  11
BRANCH   9  27
ATOM     27  NAJ RRC d   1      59.282  29.886  24.736  0.00  0.00    -0.368 N 
ATOM     28  H19 RRC d   1      59.333  29.551  23.763  0.00  0.00     0.161 HD
BRANCH  27  29
ATOM     29  CAD RRC d   1      59.371  31.321  24.996  0.00  0.00     0.018 C 
ATOM     30  H20 RRC d   1      58.843  31.535  25.937  0.00  0.00     0.071 H 
ATOM     31  H21 RRC d   1      58.877  31.853  24.169  0.00  0.00     0.071 H 
BRANCH  29  32
ATOM     32  CAE RRC d   1      60.784  31.842  25.117  0.00  0.00    -0.041 A 
ATOM     33  CAG RRC d   1      61.116  32.727  26.149  0.00  0.00    -0.075 A 
ATOM     34  CAH RRC d   1      62.423  33.218  26.256  0.00  0.00    -0.082 A 
ATOM     35  H22 RRC d   1      60.362  33.032  26.865  0.00  0.00     0.084 H 
ATOM     36  CAF RRC d   1      63.389  32.854  25.314  0.00  0.00    -0.083 A 
ATOM     37  H23 RRC d   1      62.686  33.882  27.071  0.00  0.00     0.083 H 
ATOM     38  CAC RRC d   1      63.052  31.990  24.270  0.00  0.00    -0.082 A 
ATOM     39  H24 RRC d   1      64.398  33.242  25.394  0.00  0.00     0.083 H 
ATOM     40  CAB RRC d   1      61.752  31.484  24.173  0.00  0.00    -0.075 A 
ATOM     41  H25 RRC d   1      63.798  31.712  23.535  0.00  0.00     0.083 H 
ATOM     42  H26 RRC d   1      61.493  30.812  23.363  0.00  0.00     0.084 H 
ENDBRANCH  29  32
ENDBRANCH  27  29
ENDBRANCH   9  27
BRANCH   4  43
ATOM     43  CAZ RRC d   1      57.891  24.628  26.903  0.00  0.00     0.012 C 
ATOM     44  H11 RRC d   1      58.116  25.027  27.903  0.00  0.00     0.072 H 
BRANCH  43  45
ATOM     45  CAY RRC d   1      56.390  24.341  26.894  0.00  0.00    -0.057 C 
ATOM     46  H12 RRC d   1      56.165  23.544  27.618  0.00  0.00     0.030 H 
ATOM     47  H13 RRC d   1      56.084  24.019  25.888  0.00  0.00     0.030 H 
ATOM     48  H14 RRC d   1      55.841  25.253  27.170  0.00  0.00     0.030 H 
ENDBRANCH  43  45
BRANCH  43  49
ATOM     49  CBA RRC d   1      58.876  23.510  26.687  0.00  0.00    -0.057 C 
ATOM     50  H15 RRC d   1      58.694  22.713  27.424  0.00  0.00     0.030 H 
ATOM     51  H16 RRC d   1      59.900  23.894  26.808  0.00  0.00     0.030 H 
ATOM     52  H17 RRC d   1      58.754  23.105  25.672  0.00  0.00     0.030 H 
ENDBRANCH  43  49
ENDBRANCH   4  43
TORSDOF 12
