REMARK  5 active torsions:
REMARK  status: ('A' for Active; 'I' for Inactive)
REMARK    1  A    between atoms: C1_2  and  C2_3 
REMARK    2  A    between atoms: C2_3  and  O2_4 
REMARK    3  A    between atoms: C2_3  and  C3_5 
REMARK    4  A    between atoms: C3_5  and  O1P_6 
REMARK    5  A    between atoms: O1P_6  and  P_10 
ROOT
ATOM      1  C3  G3H d   1      62.738  29.532  58.650  0.00  0.00     0.059 C 
ATOM      2  H4  G3H d   1      62.678  28.708  57.924  0.00  0.00     0.079 H 
ATOM      3  H5  G3H d   1      63.011  30.461  58.128  0.00  0.00     0.079 H 
ENDROOT
BRANCH   1   4
ATOM      4  C2  G3H d   1      63.835  29.202  59.699  0.00  0.00     0.087 C 
ATOM      5  H2  G3H d   1      63.910  29.984  60.469  0.00  0.00     0.090 H 
BRANCH   4   6
ATOM      6  C1  G3H d   1      63.562  27.852  60.312  0.00  0.00     0.129 C 
ATOM      7  O1  G3H d   1      63.314  26.896  59.268  0.00  0.00    -0.230 OA
ATOM      8  H1  G3H d   1      63.554  27.635  61.379  0.00  0.00     0.096 H 
ENDBRANCH   4   6
BRANCH   4   9
ATOM      9  O2  G3H d   1      65.025  29.070  58.950  0.00  0.00    -0.391 OA
ATOM     10  H3  G3H d   1      65.734  28.809  59.527  0.00  0.00     0.210 HD
ENDBRANCH   4   9
ENDBRANCH   1   4
BRANCH   1  11
ATOM     11  O1P G3H d   1      61.454  29.704  59.266  0.00  0.00    -0.280 OA
BRANCH  11  12
ATOM     12  P   G3H d   1      60.242  30.635  58.660  0.00  0.00     0.422 P 
ATOM     13  O2P G3H d   1      58.959  29.857  58.868  0.00  0.00    -0.617 OA
ATOM     14  O3P G3H d   1      60.288  31.896  59.529  0.00  0.00    -0.617 OA
ATOM     15  O4P G3H d   1      60.587  30.822  57.195  0.00  0.00    -0.617 OA
ENDBRANCH  11  12
ENDBRANCH   1  11
TORSDOF 5
