REMARK  7 active torsions:
REMARK  status: ('A' for Active; 'I' for Inactive)
REMARK    1  A    between atoms: N1_4  and  C18_7 
REMARK    2  A    between atoms: C18_7  and  C21_8 
REMARK    3  A    between atoms: C21_8  and  O24_9 
REMARK    4  A    between atoms: O24_9  and  C25_10 
REMARK    5  A    between atoms: C30_13  and  C35_16 
REMARK    6  A    between atoms: N37_17  and  C55_27 
REMARK    7  A    between atoms: C50_24  and  O53_26 
ROOT
ATOM      1  C25 PTI d   1      -3.176  52.861  23.676  0.00  0.00     0.068 A 
ATOM      2  C26 PTI d   1      -3.435  53.547  24.912  0.00  0.00    -0.050 A 
ATOM      3  C28 PTI d   1      -2.846  53.089  26.130  0.00  0.00    -0.072 A 
ATOM      4  C30 PTI d   1      -1.989  51.945  26.142  0.00  0.00    -0.031 A 
ATOM      5  C31 PTI d   1      -1.734  51.267  24.902  0.00  0.00    -0.072 A 
ATOM      6  C33 PTI d   1      -2.321  51.724  23.698  0.00  0.00    -0.050 A 
ATOM      7  H16 PTI d   1      -4.081  54.417  24.920  0.00  0.00     0.087 H 
ATOM      8  H17 PTI d   1      -3.051  53.615  27.055  0.00  0.00     0.084 H 
ATOM      9  H18 PTI d   1      -1.086  50.398  24.888  0.00  0.00     0.084 H 
ATOM     10  H19 PTI d   1      -2.115  51.197  22.773  0.00  0.00     0.087 H 
ENDROOT
BRANCH   4  11
ATOM     11  C35 PTI d   1      -1.329  51.419  27.470  0.00  0.00     0.063 C 
ATOM     12  N37 PTI d   1      -1.857  50.046  27.862  0.00  0.00    -0.367 N 
ATOM     13  C38 PTI d   1      -0.935  49.010  28.404  0.00  0.00    -0.000 C 
ATOM     14  C41 PTI d   1       0.442  48.940  27.667  0.00  0.00    -0.025 C 
ATOM     15  H21 PTI d   1      -1.425  48.029  28.316  0.00  0.00     0.064 H 
ATOM     16  H22 PTI d   1      -0.749  49.233  29.465  0.00  0.00     0.064 H 
ATOM     17  C44 PTI d   1       1.032  50.330  27.336  0.00  0.00    -0.045 A 
ATOM     18  H23 PTI d   1       0.306  48.386  26.727  0.00  0.00     0.042 H 
ATOM     19  H24 PTI d   1       1.155  48.403  28.310  0.00  0.00     0.042 H 
ATOM     20  C45 PTI d   1       0.203  51.491  27.236  0.00  0.00    -0.024 A 
ATOM     21  C51 PTI d   1       2.434  50.452  27.111  0.00  0.00    -0.044 A 
ATOM     22  C46 PTI d   1       0.805  52.754  26.909  0.00  0.00    -0.071 A 
ATOM     23  C48 PTI d   1       2.204  52.858  26.687  0.00  0.00    -0.050 A 
ATOM     24  H25 PTI d   1       0.183  53.639  26.831  0.00  0.00     0.084 H 
ATOM     25  C50 PTI d   1       3.024  51.712  26.789  0.00  0.00     0.066 A 
ATOM     26  H26 PTI d   1       2.643  53.818  26.439  0.00  0.00     0.087 H 
ATOM     27  H27 PTI d   1       3.064  49.573  27.186  0.00  0.00     0.088 H 
ATOM     28  H20 PTI d   1      -1.584  52.107  28.290  0.00  0.00     0.088 H 
BRANCH  12  29
ATOM     29  C55 PTI d   1      -3.213  49.789  27.900  0.00  0.00     0.030 A 
ATOM     30  C56 PTI d   1      -3.947  50.138  29.073  0.00  0.00    -0.057 A 
ATOM     31  C58 PTI d   1      -5.341  49.898  29.154  0.00  0.00    -0.081 A 
ATOM     32  H29 PTI d   1      -3.432  50.592  29.912  0.00  0.00     0.086 H 
ATOM     33  C60 PTI d   1      -6.026  49.302  28.059  0.00  0.00    -0.083 A 
ATOM     34  H30 PTI d   1      -5.886  50.169  30.051  0.00  0.00     0.083 H 
ATOM     35  C62 PTI d   1      -5.311  48.942  26.884  0.00  0.00    -0.081 A 
ATOM     36  H31 PTI d   1      -7.093  49.122  28.120  0.00  0.00     0.083 H 
ATOM     37  C64 PTI d   1      -3.913  49.180  26.802  0.00  0.00    -0.057 A 
ATOM     38  H32 PTI d   1      -5.833  48.486  26.050  0.00  0.00     0.083 H 
ATOM     39  H33 PTI d   1      -3.371  48.901  25.906  0.00  0.00     0.086 H 
ENDBRANCH  12  29
BRANCH  25  40
ATOM     40  O53 PTI d   1       4.402  51.784  26.576  0.00  0.00    -0.361 OA
ATOM     41  H28 PTI d   1       4.644  52.680  26.373  0.00  0.00     0.217 HD
ENDBRANCH  25  40
ENDBRANCH   4  11
BRANCH   1  42
ATOM     42  O24 PTI d   1      -3.725  53.237  22.426  0.00  0.00    -0.350 OA
BRANCH  42  43
ATOM     43  C21 PTI d   1      -4.609  54.359  22.214  0.00  0.00     0.049 C 
ATOM     44  H14 PTI d   1      -5.507  54.245  22.839  0.00  0.00     0.077 H 
ATOM     45  H15 PTI d   1      -4.092  55.292  22.481  0.00  0.00     0.077 H 
BRANCH  43  46
ATOM     46  C18 PTI d   1      -5.019  54.399  20.713  0.00  0.00     0.103 C 
ATOM     47  H12 PTI d   1      -5.430  53.413  20.451  0.00  0.00     0.079 H 
ATOM     48  H13 PTI d   1      -5.801  55.164  20.599  0.00  0.00     0.079 H 
BRANCH  46  49
ATOM     49  N1  PTI d   1      -3.932  54.712  19.741  0.00  0.00    -0.069 N 
ATOM     50  C3  PTI d   1      -3.103  53.494  19.414  0.00  0.00     0.084 C 
ATOM     51  C6  PTI d   1      -1.960  53.801  18.403  0.00  0.00    -0.042 C 
ATOM     52  H1  PTI d   1      -2.657  53.111  20.344  0.00  0.00     0.076 H 
ATOM     53  H2  PTI d   1      -3.761  52.727  18.980  0.00  0.00     0.076 H 
ATOM     54  C9  PTI d   1      -2.551  54.455  17.120  0.00  0.00    -0.062 C 
ATOM     55  H3  PTI d   1      -1.450  52.864  18.133  0.00  0.00     0.035 H 
ATOM     56  H4  PTI d   1      -1.239  54.491  18.866  0.00  0.00     0.035 H 
ATOM     57  C12 PTI d   1      -3.314  55.766  17.506  0.00  0.00    -0.042 C 
ATOM     58  H5  PTI d   1      -3.248  53.753  16.639  0.00  0.00     0.033 H 
ATOM     59  H6  PTI d   1      -1.735  54.697  16.423  0.00  0.00     0.033 H 
ATOM     60  C15 PTI d   1      -4.450  55.441  18.520  0.00  0.00     0.084 C 
ATOM     61  H8  PTI d   1      -3.751  56.214  16.601  0.00  0.00     0.035 H 
ATOM     62  H9  PTI d   1      -2.610  56.476  17.963  0.00  0.00     0.035 H 
ATOM     63  H10 PTI d   1      -4.919  56.383  18.841  0.00  0.00     0.076 H 
ATOM     64  H11 PTI d   1      -5.200  54.810  18.022  0.00  0.00     0.076 H 
ATOM     65  H7  PTI d   1      -3.311  55.355  20.206  0.00  0.00     0.280 HD
ENDBRANCH  46  49
ENDBRANCH  43  46
ENDBRANCH  42  43
ENDBRANCH   1  42
TORSDOF 7
