REMARK  17 active torsions:
REMARK  status: ('A' for Active; 'I' for Inactive)
REMARK    1  A    between atoms: N_1  and  CA_2 
REMARK    2  A    between atoms: CA_2  and  C_3 
REMARK    3  A    between atoms: CA_2  and  CB_5 
REMARK       I    between atoms: C_3  and  N_9 
REMARK    4  A    between atoms: CB_5  and  CG_6 
REMARK    5  A    between atoms: N_9  and  CA_10 
REMARK    6  A    between atoms: CA_10  and  C_11 
REMARK    7  A    between atoms: CA_10  and  CB_13 
REMARK       I    between atoms: C_11  and  N_23 
REMARK    8  A    between atoms: CB_13  and  CG_14 
REMARK    9  A    between atoms: N_23  and  CA_24 
REMARK   10  A    between atoms: CA_24  and  C_25 
REMARK   11  A    between atoms: CA_24  and  CB_27 
REMARK       I    between atoms: C_25  and  N_32 
REMARK   12  A    between atoms: CB_27  and  CG_28 
REMARK   13  A    between atoms: CG_28  and  CD_29 
REMARK   14  A    between atoms: N_32  and  CA_33 
REMARK   15  A    between atoms: CA_33  and  C_34 
REMARK   16  A    between atoms: CA_33  and  CB_36 
REMARK   17  A    between atoms: CB_36  and  CG_37 
ROOT
ATOM      1  C   TRP d   1      61.157 -42.539   5.031  0.00  0.00     0.241 C 
ATOM      2  O   TRP d   1      61.521 -42.146   6.136  0.00  0.00    -0.271 OA
ATOM      3  N   GLU d   1      61.952 -42.538   3.970  0.00  0.00    -0.346 N 
ATOM      4  H17 GLU d   1      61.611 -42.909   3.106  0.00  0.00     0.163 HD
ENDROOT
BRANCH   1   5
ATOM      5  CA  TRP d   1      59.744 -43.062   4.821  0.00  0.00     0.093 C 
ATOM      6  H8  TRP d   1      59.757 -43.939   4.157  0.00  0.00     0.088 H 
BRANCH   5   7
ATOM      7  N   TRP d   1      59.221 -43.442   6.125  0.00  0.00    -0.346 N 
ATOM      8  C   ASP d   1      59.617 -44.573   6.695  0.00  0.00     0.249 C 
ATOM      9  O   ASP d   1      60.423 -45.349   6.151  0.00  0.00    -0.271 OA
ATOM     10  H7  TRP d   1      58.563 -42.851   6.591  0.00  0.00     0.163 HD
BRANCH   8  11
ATOM     11  CA  ASP d   1      59.028 -44.878   8.068  0.00  0.00     0.185 C 
ATOM     12  H4  ASP d   1      57.999 -44.492   8.116  0.00  0.00     0.100 H 
BRANCH  11  13
ATOM     13  N   ASP d   1      59.009 -46.359   8.293  0.00  0.00    -0.066 N 
ATOM     14  H1  ASP d   1      58.619 -46.556   9.201  0.00  0.00     0.275 HD
ATOM     15  H2  ASP d   1      59.950 -46.718   8.246  0.00  0.00     0.275 HD
ATOM     16  H3  ASP d   1      58.445 -46.800   7.583  0.00  0.00     0.275 HD
ENDBRANCH  11  13
BRANCH  11  17
ATOM     17  CB  ASP d   1      59.873 -44.194   9.143  0.00  0.00     0.050 C 
ATOM     18  H5  ASP d   1      60.931 -44.438   8.966  0.00  0.00     0.052 H 
ATOM     19  H6  ASP d   1      59.568 -44.579  10.127  0.00  0.00     0.052 H 
BRANCH  17  20
ATOM     20  CG  ASP d   1      59.718 -42.687   9.145  0.00  0.00     0.175 C 
ATOM     21  OD1 ASP d   1      60.029 -42.050   8.118  0.00  0.00    -0.648 OA
ATOM     22  OD2 ASP d   1      59.283 -42.138  10.178  0.00  0.00    -0.648 OA
ENDBRANCH  17  20
ENDBRANCH  11  17
ENDBRANCH   8  11
ENDBRANCH   5   7
BRANCH   5  23
ATOM     23  CB  TRP d   1      58.900 -41.946   4.181  0.00  0.00    -0.012 C 
ATOM     24  H9  TRP d   1      59.282 -41.770   3.165  0.00  0.00     0.044 H 
ATOM     25  H10 TRP d   1      59.028 -41.035   4.784  0.00  0.00     0.044 H 
BRANCH  23  26
ATOM     26  CG  TRP d   1      57.437 -42.232   4.081  0.00  0.00    -0.028 A 
ATOM     27  CD1 TRP d   1      56.415 -41.534   4.687  0.00  0.00    -0.015 A 
ATOM     28  NE1 TRP d   1      55.206 -42.095   4.364  0.00  0.00    -0.365 N 
ATOM     29  H11 TRP d   1      56.548 -40.664   5.329  0.00  0.00     0.112 H 
ATOM     30  CE2 TRP d   1      55.415 -43.172   3.543  0.00  0.00     0.042 A 
ATOM     31  H12 TRP d   1      54.287 -41.760   4.687  0.00  0.00     0.165 HD
ATOM     32  CD2 TRP d   1      56.811 -43.288   3.337  0.00  0.00    -0.002 A 
ATOM     33  CZ2 TRP d   1      54.495 -44.056   2.964  0.00  0.00    -0.056 A 
ATOM     34  CE3 TRP d   1      57.291 -44.321   2.521  0.00  0.00    -0.070 A 
ATOM     35  CZ3 TRP d   1      56.372 -45.202   1.944  0.00  0.00    -0.082 A 
ATOM     36  H13 TRP d   1      58.354 -44.435   2.341  0.00  0.00     0.084 H 
ATOM     37  CH2 TRP d   1      54.992 -45.060   2.171  0.00  0.00    -0.081 A 
ATOM     38  H15 TRP d   1      56.729 -46.007   1.312  0.00  0.00     0.083 H 
ATOM     39  H16 TRP d   1      54.305 -45.760   1.709  0.00  0.00     0.083 H 
ATOM     40  H14 TRP d   1      53.430 -43.951   3.136  0.00  0.00     0.086 H 
ENDBRANCH  23  26
ENDBRANCH   5  23
ENDBRANCH   1   5
BRANCH   3  41
ATOM     41  CA  GLU d   1      63.308 -42.012   4.028  0.00  0.00     0.090 C 
ATOM     42  H18 GLU d   1      63.488 -41.547   5.008  0.00  0.00     0.087 H 
BRANCH  41  43
ATOM     43  C   GLU d   1      63.414 -40.952   2.938  0.00  0.00     0.241 C 
ATOM     44  O   GLU d   1      63.161 -41.232   1.767  0.00  0.00    -0.271 OA
ATOM     45  N   PHE d   1      63.773 -39.728   3.321  0.00  0.00    -0.344 N 
ATOM     46  H23 PHE d   1      63.990 -39.559   4.282  0.00  0.00     0.163 HD
BRANCH  45  47
ATOM     47  CA  PHE d   1      63.856 -38.619   2.357  0.00  0.00     0.100 C 
ATOM     48  H24 PHE d   1      63.439 -38.985   1.407  0.00  0.00     0.090 H 
BRANCH  47  49
ATOM     49  C   PHE d   1      65.269 -38.123   2.067  0.00  0.00     0.197 C 
ATOM     50  O   PHE d   1      65.518 -37.598   0.945  0.00  0.00    -0.646 OA
ATOM     51  OXT PHE d   1      66.111 -38.244   2.979  0.00  0.00    -0.646 OA
ENDBRANCH  47  49
BRANCH  47  52
ATOM     52  CB  PHE d   1      62.988 -37.437   2.839  0.00  0.00    -0.013 C 
ATOM     53  H25 PHE d   1      62.983 -36.667   2.053  0.00  0.00     0.043 H 
ATOM     54  H26 PHE d   1      63.440 -37.025   3.753  0.00  0.00     0.043 H 
BRANCH  52  55
ATOM     55  CG  PHE d   1      61.558 -37.815   3.144  0.00  0.00    -0.056 A 
ATOM     56  CD1 PHE d   1      61.111 -37.883   4.451  0.00  0.00    -0.077 A 
ATOM     57  CE1 PHE d   1      59.790 -38.259   4.738  0.00  0.00    -0.082 A 
ATOM     58  H27 PHE d   1      61.788 -37.643   5.263  0.00  0.00     0.084 H 
ATOM     59  CZ  PHE d   1      58.904 -38.569   3.708  0.00  0.00    -0.083 A 
ATOM     60  H29 PHE d   1      59.456 -38.309   5.768  0.00  0.00     0.083 H 
ATOM     61  CE2 PHE d   1      59.335 -38.503   2.394  0.00  0.00    -0.082 A 
ATOM     62  H31 PHE d   1      57.885 -38.860   3.934  0.00  0.00     0.083 H 
ATOM     63  CD2 PHE d   1      60.665 -38.125   2.116  0.00  0.00    -0.077 A 
ATOM     64  H30 PHE d   1      58.655 -38.740   1.584  0.00  0.00     0.083 H 
ATOM     65  H28 PHE d   1      61.000 -38.074   1.086  0.00  0.00     0.084 H 
ENDBRANCH  52  55
ENDBRANCH  47  52
ENDBRANCH  45  47
ENDBRANCH  41  43
BRANCH  41  66
ATOM     66  CB  GLU d   1      64.313 -43.152   3.829  0.00  0.00    -0.029 C 
ATOM     67  H19 GLU d   1      65.329 -42.734   3.773  0.00  0.00     0.037 H 
ATOM     68  H20 GLU d   1      64.081 -43.680   2.892  0.00  0.00     0.037 H 
BRANCH  66  69
ATOM     69  CG  GLU d   1      64.239 -44.136   4.991  0.00  0.00     0.018 C 
ATOM     70  H21 GLU d   1      63.273 -44.659   4.940  0.00  0.00     0.049 H 
ATOM     71  H22 GLU d   1      64.298 -43.566   5.930  0.00  0.00     0.049 H 
BRANCH  69  72
ATOM     72  CD  GLU d   1      65.345 -45.177   4.994  0.00  0.00     0.172 C 
ATOM     73  OE1 GLU d   1      66.315 -45.038   4.201  0.00  0.00    -0.648 OA
ATOM     74  OE2 GLU d   1      65.230 -46.126   5.803  0.00  0.00    -0.648 OA
ENDBRANCH  69  72
ENDBRANCH  66  69
ENDBRANCH  41  66
ENDBRANCH   3  41
TORSDOF 17
