REMARK  14 active torsions:
REMARK  status: ('A' for Active; 'I' for Inactive)
REMARK    1  A    between atoms: C_1  and  CH3_3 
REMARK       I    between atoms: C_1  and  N_4 
REMARK    2  A    between atoms: N_4  and  CA_5 
REMARK    3  A    between atoms: CA_5  and  C_6 
REMARK    4  A    between atoms: CA_5  and  CB_8 
REMARK       I    between atoms: C_6  and  N_15 
REMARK    5  A    between atoms: CB_8  and  CG_9 
REMARK    6  A    between atoms: CG_9  and  CD_10 
REMARK    7  A    between atoms: CD_10  and  NE_11 
REMARK       I    between atoms: NE_11  and  CZ_12 
REMARK       I    between atoms: CZ_12  and  NH1_13 
REMARK    8  A    between atoms: N_15  and  CA_16 
REMARK    9  A    between atoms: CA_25  and  CB_28 
REMARK   10  A    between atoms: CB_28  and  CG_29 
REMARK   11  A    between atoms: CG_29  and  CD1_30 
REMARK   12  A    between atoms: CG_29  and  CD2_31 
REMARK   13  A    between atoms: CA_33  and  CB_36 
REMARK   14  A    between atoms: CB_36  and  CG_37 
ROOT
ATOM      1  CA  LYS d   1      38.749  21.925   1.117  0.00  0.00     0.089 C 
ATOM      2  C   LYS d   1      40.081  22.503   0.664  0.00  0.00     0.241 C 
ATOM      3  O   LYS d   1      40.974  21.745   0.311  0.00  0.00    -0.271 OA
ATOM      4  CB  LYS d   1      39.091  21.046   2.295  0.00  0.00    -0.038 C 
ATOM      5  CG  LYS d   1      40.028  21.898   3.159  0.00  0.00    -0.061 C 
ATOM      6  CD  LYS d   1      39.895  21.526   4.635  0.00  0.00    -0.050 C 
ATOM      7  CE  LYS d   1      41.239  20.956   5.142  0.00  0.00    -0.005 C 
ATOM      8  NZ  LYS d   1      42.290  21.980   5.002  0.00  0.00    -0.360 N 
ATOM      9  H18 LYS d   1      37.991  22.688   1.348  0.00  0.00     0.087 H 
ATOM     10  H19 LYS d   1      39.599  20.129   1.960  0.00  0.00     0.036 H 
ATOM     11  H20 LYS d   1      38.183  20.778   2.856  0.00  0.00     0.036 H 
ATOM     12  H21 LYS d   1      39.771  22.960   3.030  0.00  0.00     0.033 H 
ATOM     13  H22 LYS d   1      41.066  21.731   2.837  0.00  0.00     0.033 H 
ATOM     14  H23 LYS d   1      39.107  20.768   4.753  0.00  0.00     0.035 H 
ATOM     15  H24 LYS d   1      39.633  22.422   5.217  0.00  0.00     0.035 H 
ATOM     16  H25 LYS d   1      41.509  20.070   4.549  0.00  0.00     0.064 H 
ATOM     17  H26 LYS d   1      41.142  20.673   6.200  0.00  0.00     0.064 H 
ATOM     18  H27 LYS d   1      42.565  22.289   4.091  0.00  0.00     0.162 HD
ATOM     19  N   LEU d   1      40.184  23.820   0.676  0.00  0.00    -0.346 N 
ATOM     20  CA  LEU d   1      41.404  24.539   0.297  0.00  0.00     0.089 C 
ATOM     21  C   LEU d   1      42.171  24.947   1.576  0.00  0.00     0.241 C 
ATOM     22  O   LEU d   1      41.577  25.167   2.630  0.00  0.00    -0.271 OA
ATOM     23  H28 LEU d   1      39.388  24.355   0.959  0.00  0.00     0.163 HD
ATOM     24  H29 LEU d   1      42.035  23.952  -0.386  0.00  0.00     0.087 H 
ATOM     25  N   PHE d   1      43.489  25.068   1.484  0.00  0.00    -0.346 N 
ATOM     26  CA  PHE d   1      44.319  25.547   2.614  0.00  0.00     0.093 C 
ATOM     27  C   PHE d   1      44.566  24.640   3.824  0.00  0.00     0.241 C 
ATOM     28  O   PHE d   1      45.697  24.205   4.033  0.00  0.00    -0.271 OA
ATOM     29  H39 PHE d   1      43.937  24.828   0.623  0.00  0.00     0.163 HD
ATOM     30  H40 PHE d   1      45.317  25.586   2.153  0.00  0.00     0.088 H 
ATOM     31  N   GLY d   1      43.577  24.381   4.666  0.00  0.00    -0.351 N 
ATOM     32  CA  GLY d   1      43.933  23.547   5.821  0.00  0.00     0.069 C 
ATOM     33  C   GLY d   1      42.875  22.496   6.080  0.00  0.00     0.235 C 
ATOM     34  O   GLY d   1      42.618  22.162   7.237  0.00  0.00    -0.272 OA
ATOM     35  H48 GLY d   1      42.651  24.730   4.525  0.00  0.00     0.163 HD
ATOM     36  H49 GLY d   1      44.029  24.187   6.710  0.00  0.00     0.078 H 
ATOM     37  H50 GLY d   1      44.893  23.049   5.622  0.00  0.00     0.078 H 
ENDROOT
BRANCH   1  38
ATOM     38  N   LYS d   1      38.365  21.043   0.052  0.00  0.00    -0.346 N 
ATOM     39  C   ARG d   1      37.468  21.444  -0.798  0.00  0.00     0.241 C 
ATOM     40  O   ARG d   1      36.909  22.528  -0.694  0.00  0.00    -0.271 OA
ATOM     41  H17 LYS d   1      38.780  20.137  -0.034  0.00  0.00     0.163 HD
BRANCH  39  42
ATOM     42  CA  ARG d   1      37.204  20.427  -1.880  0.00  0.00     0.089 C 
ATOM     43  H5  ARG d   1      37.837  19.545  -1.702  0.00  0.00     0.087 H 
BRANCH  42  44
ATOM     44  N   ARG d   1      35.814  20.036  -1.969  0.00  0.00    -0.348 N 
ATOM     45  C   ACE d   1      35.396  18.782  -2.024  0.00  0.00     0.214 C 
ATOM     46  O   ACE d   1      34.216  18.514  -2.220  0.00  0.00    -0.274 OA
ATOM     47  H4  ARG d   1      35.125  20.760  -1.990  0.00  0.00     0.163 HD
BRANCH  45  48
ATOM     48  CH3 ACE d   1      36.404  17.687  -1.706  0.00  0.00    -0.003 C 
ATOM     49  H1  ACE d   1      37.399  18.134  -1.566  0.00  0.00     0.040 H 
ATOM     50  H2  ACE d   1      36.439  16.968  -2.538  0.00  0.00     0.040 H 
ATOM     51  H3  ACE d   1      36.102  17.167  -0.784  0.00  0.00     0.040 H 
ENDBRANCH  45  48
ENDBRANCH  42  44
BRANCH  42  52
ATOM     52  CB  ARG d   1      37.491  21.038  -3.263  0.00  0.00    -0.036 C 
ATOM     53  H6  ARG d   1      36.899  21.958  -3.379  0.00  0.00     0.036 H 
ATOM     54  H7  ARG d   1      37.203  20.316  -4.041  0.00  0.00     0.036 H 
BRANCH  52  55
ATOM     55  CG  ARG d   1      38.950  21.370  -3.417  0.00  0.00    -0.048 C 
ATOM     56  H8  ARG d   1      39.553  20.592  -2.927  0.00  0.00     0.035 H 
ATOM     57  H9  ARG d   1      39.153  22.343  -2.945  0.00  0.00     0.035 H 
BRANCH  55  58
ATOM     58  CD  ARG d   1      39.324  21.440  -4.905  0.00  0.00     0.009 C 
ATOM     59  H10 ARG d   1      38.542  21.948  -5.489  0.00  0.00     0.064 H 
ATOM     60  H11 ARG d   1      39.498  20.436  -5.320  0.00  0.00     0.064 H 
BRANCH  58  61
ATOM     61  NE  ARG d   1      40.559  22.224  -4.879  0.00  0.00    -0.227 N 
ATOM     62  CZ  ARG d   1      40.703  23.244  -5.701  0.00  0.00     0.665 C 
ATOM     63  NH1 ARG d   1      41.803  23.995  -5.605  0.00  0.00    -0.235 N 
ATOM     64  NH2 ARG d   1      39.745  23.432  -6.612  0.00  0.00    -0.235 N 
ATOM     65  H13 ARG d   1      41.936  24.797  -6.237  0.00  0.00     0.174 HD
ATOM     66  H14 ARG d   1      42.519  23.772  -4.899  0.00  0.00     0.174 HD
ATOM     67  H15 ARG d   1      38.922  22.814  -6.629  0.00  0.00     0.174 HD
ATOM     68  H16 ARG d   1      39.830  24.195  -7.298  0.00  0.00     0.174 HD
ATOM     69  H12 ARG d   1      41.313  21.980  -4.221  0.00  0.00     0.177 HD
ENDBRANCH  58  61
ENDBRANCH  55  58
ENDBRANCH  52  55
ENDBRANCH  42  52
ENDBRANCH  39  42
ENDBRANCH   1  38
BRANCH  20  70
ATOM     70  CB  LEU d   1      40.896  25.845  -0.339  0.00  0.00    -0.035 C 
ATOM     71  H30 LEU d   1      41.766  26.424  -0.682  0.00  0.00     0.037 H 
ATOM     72  H31 LEU d   1      40.355  26.417   0.430  0.00  0.00     0.037 H 
BRANCH  70  73
ATOM     73  CG  LEU d   1      39.945  25.630  -1.547  0.00  0.00    -0.059 C 
ATOM     74  H32 LEU d   1      39.118  24.967  -1.254  0.00  0.00     0.038 H 
BRANCH  73  75
ATOM     75  CD1 LEU d   1      40.599  25.109  -2.820  0.00  0.00    -0.073 C 
ATOM     76  H33 LEU d   1      39.836  24.995  -3.604  0.00  0.00     0.028 H 
ATOM     77  H34 LEU d   1      41.067  24.134  -2.619  0.00  0.00     0.028 H 
ATOM     78  H35 LEU d   1      41.367  25.822  -3.156  0.00  0.00     0.028 H 
ENDBRANCH  73  75
BRANCH  73  79
ATOM     79  CD2 LEU d   1      39.458  27.020  -1.917  0.00  0.00    -0.073 C 
ATOM     80  H36 LEU d   1      38.966  27.480  -1.047  0.00  0.00     0.028 H 
ATOM     81  H37 LEU d   1      38.741  26.948  -2.748  0.00  0.00     0.028 H 
ATOM     82  H38 LEU d   1      40.314  27.639  -2.223  0.00  0.00     0.028 H 
ENDBRANCH  73  79
ENDBRANCH  70  73
ENDBRANCH  20  70
BRANCH  26  83
ATOM     83  CB  PHE d   1      44.067  27.006   3.012  0.00  0.00    -0.014 C 
ATOM     84  H41 PHE d   1      44.967  27.415   3.494  0.00  0.00     0.043 H 
ATOM     85  H42 PHE d   1      43.221  27.053   3.714  0.00  0.00     0.043 H 
BRANCH  83  86
ATOM     86  CG  PHE d   1      43.740  27.826   1.766  0.00  0.00    -0.056 A 
ATOM     87  CD1 PHE d   1      42.447  28.304   1.541  0.00  0.00    -0.077 A 
ATOM     88  CE1 PHE d   1      42.129  28.989   0.362  0.00  0.00    -0.082 A 
ATOM     89  H43 PHE d   1      41.679  28.142   2.289  0.00  0.00     0.084 H 
ATOM     90  CZ  PHE d   1      43.115  29.222  -0.594  0.00  0.00    -0.083 A 
ATOM     91  H45 PHE d   1      41.117  29.338   0.193  0.00  0.00     0.083 H 
ATOM     92  CD2 PHE d   1      44.389  28.693  -0.383  0.00  0.00    -0.082 A 
ATOM     93  H47 PHE d   1      42.897  29.802  -1.483  0.00  0.00     0.083 H 
ATOM     94  CE2 PHE d   1      44.723  28.019   0.797  0.00  0.00    -0.077 A 
ATOM     95  H44 PHE d   1      45.141  28.807  -1.155  0.00  0.00     0.083 H 
ATOM     96  H46 PHE d   1      45.731  27.653   0.955  0.00  0.00     0.084 H 
ENDBRANCH  83  86
ENDBRANCH  26  83
TORSDOF 14
