REMARK  12 active torsions:
REMARK  status: ('A' for Active; 'I' for Inactive)
REMARK    1  A    between atoms: O1_7  and  C1_1 
REMARK    2  A    between atoms: C2_2  and  O2_8 
REMARK    3  A    between atoms: C3_3  and  O3_9 
REMARK    4  A    between atoms: C4_4  and  O4_10 
REMARK    5  A    between atoms: C5_5  and  C6_6 
REMARK    6  A    between atoms: C6_6  and  O6_12 
REMARK    7  A    between atoms: C4'_16  and  O1_7 
REMARK    8  A    between atoms: C1'_13  and  O1'_19 
REMARK    9  A    between atoms: C2'_14  and  O2'_20 
REMARK   10  A    between atoms: C3'_15  and  O3'_21 
REMARK   11  A    between atoms: C5'_17  and  C6'_18 
REMARK   12  A    between atoms: C6'_18  and  O6'_23 
ROOT
ATOM      1  O1  NON d   1     -33.666  -0.702  40.859  0.00  0.00    -0.348 OA
ENDROOT
BRANCH   1   2
ATOM      2  C1  NON d   1     -34.587  -0.002  41.642  0.00  0.00     0.159 C 
ATOM      3  C2  NON d   1     -35.175  -0.966  42.676  0.00  0.00     0.110 C 
ATOM      4  C3  NON d   1     -35.911  -2.090  41.928  0.00  0.00     0.092 C 
ATOM      5  H2  NON d   1     -35.882  -0.428  43.325  0.00  0.00     0.094 H 
ATOM      6  C4  NON d   1     -36.994  -1.496  41.021  0.00  0.00     0.090 C 
ATOM      7  H3  NON d   1     -35.184  -2.631  41.303  0.00  0.00     0.091 H 
ATOM      8  C5  NON d   1     -36.375  -0.452  40.082  0.00  0.00     0.089 C 
ATOM      9  H4  NON d   1     -37.764  -1.014  41.642  0.00  0.00     0.091 H 
ATOM     10  O5  NON d   1     -35.642   0.539  40.844  0.00  0.00    -0.348 OA
ATOM     11  H5  NON d   1     -35.685  -0.971  39.400  0.00  0.00     0.090 H 
ATOM     12  H1  NON d   1     -34.071   0.821  42.158  0.00  0.00     0.133 H 
BRANCH   3  13
ATOM     13  O2  NON d   1     -34.128  -1.514  43.469  0.00  0.00    -0.388 OA
ATOM     14  H8  NON d   1     -34.495  -2.122  44.100  0.00  0.00     0.210 HD
ENDBRANCH   3  13
BRANCH   4  15
ATOM     15  O3  NON d   1     -36.490  -3.005  42.843  0.00  0.00    -0.390 OA
ATOM     16  H9  NON d   1     -37.132  -2.553  43.378  0.00  0.00     0.210 HD
ENDBRANCH   4  15
BRANCH   6  17
ATOM     17  O4  NON d   1     -37.590  -2.531  40.252  0.00  0.00    -0.390 OA
ATOM     18  H10 NON d   1     -37.973  -3.176  40.834  0.00  0.00     0.210 HD
ENDBRANCH   6  17
BRANCH   8  19
ATOM     19  C6  NON d   1     -37.408   0.294  39.258  0.00  0.00     0.043 C 
ATOM     20  H6  NON d   1     -37.978   0.967  39.915  0.00  0.00     0.078 H 
ATOM     21  H7  NON d   1     -38.093  -0.431  38.794  0.00  0.00     0.078 H 
BRANCH  19  22
ATOM     22  O6  NON d   1     -36.777   1.058  38.241  0.00  0.00    -0.398 OA
ATOM     23  H11 NON d   1     -36.187   1.687  38.639  0.00  0.00     0.209 HD
ENDBRANCH  19  22
ENDBRANCH   8  19
ENDBRANCH   1   2
BRANCH   1  24
ATOM     24  C4' NON d   1     -32.397  -0.082  40.628  0.00  0.00     0.096 C 
ATOM     25  C3' NON d   1     -31.310  -0.902  41.324  0.00  0.00     0.092 C 
ATOM     26  C2' NON d   1     -29.922  -0.404  40.929  0.00  0.00     0.110 C 
ATOM     27  H14 NON d   1     -31.407  -1.954  41.016  0.00  0.00     0.091 H 
ATOM     28  C1' NON d   1     -29.796  -0.390  39.406  0.00  0.00     0.156 C 
ATOM     29  H13 NON d   1     -29.776   0.615  41.317  0.00  0.00     0.094 H 
ATOM     30  O5' NON d   1     -30.814   0.445  38.829  0.00  0.00    -0.349 OA
ATOM     31  H12 NON d   1     -28.805  -0.003  39.128  0.00  0.00     0.133 H 
ATOM     32  C5' NON d   1     -32.157  -0.007  39.113  0.00  0.00     0.089 C 
ATOM     33  H16 NON d   1     -32.312  -1.005  38.678  0.00  0.00     0.090 H 
ATOM     34  H15 NON d   1     -32.401   0.936  41.044  0.00  0.00     0.091 H 
BRANCH  25  35
ATOM     35  O3' NON d   1     -31.481  -0.817  42.730  0.00  0.00    -0.390 OA
ATOM     36  H21 NON d   1     -32.336  -1.159  42.965  0.00  0.00     0.210 HD
ENDBRANCH  25  35
BRANCH  26  37
ATOM     37  O2' NON d   1     -28.935  -1.263  41.476  0.00  0.00    -0.388 OA
ATOM     38  H20 NON d   1     -29.062  -2.143  41.142  0.00  0.00     0.210 HD
ENDBRANCH  26  37
BRANCH  28  39
ATOM     39  O1' NON d   1     -29.946  -1.677  38.916  0.00  0.00    -0.369 OA
ATOM     40  H19 NON d   1     -29.858  -1.667  37.970  0.00  0.00     0.212 HD
ENDBRANCH  28  39
BRANCH  32  41
ATOM     41  C6' NON d   1     -33.105   0.987  38.462  0.00  0.00     0.043 C 
ATOM     42  H17 NON d   1     -32.828   2.004  38.775  0.00  0.00     0.078 H 
ATOM     43  H18 NON d   1     -34.132   0.770  38.789  0.00  0.00     0.078 H 
BRANCH  41  44
ATOM     44  O6' NON d   1     -33.044   0.906  37.047  0.00  0.00    -0.398 OA
ATOM     45  H22 NON d   1     -32.160   1.097  36.758  0.00  0.00     0.209 HD
ENDBRANCH  41  44
ENDBRANCH  32  41
ENDBRANCH   1  24
TORSDOF 12
