REMARK  11 active torsions:
REMARK  status: ('A' for Active; 'I' for Inactive)
REMARK    1  A    between atoms: C10_9  and  C7_4 
REMARK    2  A    between atoms: N16_21  and  C17_11 
REMARK    3  A    between atoms: C14_12  and  N16_21 
REMARK    4  A    between atoms: C20_17  and  S23_23 
REMARK    5  A    between atoms: S23_23  and  N24_24 
REMARK    6  A    between atoms: N24_24  and  C25_25 
REMARK    7  A    between atoms: C25_25  and  C26_26 
REMARK    8  A    between atoms: C26_26  and  C27_27 
REMARK    9  A    between atoms: C27_27  and  N28_28 
REMARK   10  A    between atoms: N28_28  and  C29_29 
REMARK   11  A    between atoms: N28_28  and  C30_30 
ROOT
ATOM      1  C22 I1P d   1       8.602 -11.835  11.702  0.00  0.00    -0.055 A 
ATOM      2  C17 I1P d   1       9.615 -10.891  12.037  0.00  0.00     0.049 A 
ATOM      3  C18 I1P d   1       9.837  -9.766  11.172  0.00  0.00    -0.055 A 
ATOM      4  C19 I1P d   1       9.061  -9.584  10.016  0.00  0.00    -0.058 A 
ATOM      5  C20 I1P d   1       8.055 -10.526   9.714  0.00  0.00     0.079 A 
ATOM      6  C21 I1P d   1       7.817 -11.656  10.539  0.00  0.00    -0.058 A 
ATOM      7  H1  I1P d   1       8.432 -12.694  12.341  0.00  0.00     0.087 H 
ATOM      8  H8  I1P d   1      10.613  -9.049  11.415  0.00  0.00     0.087 H 
ATOM      9  H9  I1P d   1       9.232  -8.733   9.366  0.00  0.00     0.086 H 
ATOM     10  H12 I1P d   1       7.045 -12.372  10.281  0.00  0.00     0.086 H 
ENDROOT
BRANCH   2  11
ATOM     11  N16 I1P d   1      10.363 -11.109  13.254  0.00  0.00    -0.188 N 
ATOM     12  H11 I1P d   1      10.079 -11.972  13.740  0.00  0.00     0.184 HD
BRANCH  11  13
ATOM     13  C14 I1P d   1      11.413 -10.407  13.951  0.00  0.00     0.727 A 
ATOM     14  N15 I1P d   1      12.128  -9.563  13.189  0.00  0.00    -0.060 NA
ATOM     15  C10 I1P d   1      13.136  -8.836  13.748  0.00  0.00     0.107 A 
ATOM     16  C11 I1P d   1      13.407  -8.997  15.156  0.00  0.00    -0.035 A 
ATOM     17  C13 I1P d   1      12.590  -9.916  15.870  0.00  0.00     0.023 A 
ATOM     18  H5  I1P d   1      14.198  -8.442  15.648  0.00  0.00     0.089 H 
ATOM     19  N13 I1P d   1      11.609 -10.605  15.259  0.00  0.00    -0.075 NA
ATOM     20  H7  I1P d   1      12.761 -10.065  16.930  0.00  0.00     0.115 H 
BRANCH  15  21
ATOM     21  C7  I1P d   1      13.906  -7.933  12.949  0.00  0.00     0.105 A 
ATOM     22  C9  I1P d   1      13.596  -7.485  11.597  0.00  0.00     0.009 A 
ATOM     23  N8  I1P d   1      14.556  -6.599  11.075  0.00  0.00    -0.348 N 
ATOM     24  H6  I1P d   1      12.712  -7.804  11.047  0.00  0.00     0.115 H 
ATOM     25  C3  I1P d   1      15.394  -6.560  12.154  0.00  0.00     0.129 A 
ATOM     26  H10 I1P d   1      14.611  -6.126  10.162  0.00  0.00     0.167 HD
ATOM     27  C2  I1P d   1      16.705  -5.711  12.219  0.00  0.00    -0.037 A 
ATOM     28  N4  I1P d   1      15.146  -7.346  13.281  0.00  0.00    -0.214 N 
ATOM     29  C1  I1P d   1      17.451  -5.804  13.389  0.00  0.00    -0.061 A 
ATOM     30  H3  I1P d   1      17.017  -5.081  11.394  0.00  0.00     0.089 H 
ATOM     31  C6  I1P d   1      17.062  -6.574  14.479  0.00  0.00     0.022 A 
ATOM     32  H2  I1P d   1      18.380  -5.250  13.454  0.00  0.00     0.086 H 
ATOM     33  N5  I1P d   1      15.946  -7.292  14.455  0.00  0.00    -0.178 NA
ATOM     34  H4  I1P d   1      17.683  -6.588  15.367  0.00  0.00     0.117 H 
ENDBRANCH  15  21
ENDBRANCH  11  13
ENDBRANCH   2  11
BRANCH   5  35
ATOM     35  S23 I1P d   1       7.060 -10.282   8.309  0.00  0.00     0.258 S 
ATOM     36  O31 I1P d   1       5.842  -9.340   8.693  0.00  0.00    -0.201 OA
ATOM     37  O32 I1P d   1       6.525 -11.665   7.757  0.00  0.00    -0.201 OA
BRANCH  35  38
ATOM     38  N24 I1P d   1       8.012  -9.477   7.096  0.00  0.00    -0.315 N 
ATOM     39  H13 I1P d   1       7.935  -8.504   6.877  0.00  0.00     0.172 HD
BRANCH  38  40
ATOM     40  C25 I1P d   1       8.950 -10.407   6.428  0.00  0.00     0.004 C 
ATOM     41  H14 I1P d   1       8.485 -11.402   6.363  0.00  0.00     0.065 H 
ATOM     42  H15 I1P d   1       9.875 -10.472   7.020  0.00  0.00     0.065 H 
BRANCH  40  43
ATOM     43  C26 I1P d   1       9.292  -9.920   5.014  0.00  0.00    -0.027 C 
ATOM     44  H16 I1P d   1      10.002 -10.627   4.561  0.00  0.00     0.037 H 
ATOM     45  H17 I1P d   1       9.760  -8.927   5.088  0.00  0.00     0.037 H 
BRANCH  43  46
ATOM     46  C27 I1P d   1       8.042  -9.812   4.091  0.00  0.00     0.084 C 
ATOM     47  H18 I1P d   1       7.464  -8.937   4.422  0.00  0.00     0.076 H 
ATOM     48  H19 I1P d   1       7.444 -10.723   4.240  0.00  0.00     0.076 H 
BRANCH  46  49
ATOM     49  N28 I1P d   1       8.274  -9.663   2.608  0.00  0.00    -0.079 N 
ATOM     50  H20 I1P d   1       7.392  -9.365   2.222  0.00  0.00     0.278 HD
BRANCH  49  51
ATOM     51  C29 I1P d   1       8.627 -10.929   1.908  0.00  0.00     0.066 C 
ATOM     52  H21 I1P d   1       8.777 -10.726   0.837  0.00  0.00     0.068 H 
ATOM     53  H22 I1P d   1       7.811 -11.657   2.033  0.00  0.00     0.068 H 
ATOM     54  H23 I1P d   1       9.553 -11.339   2.337  0.00  0.00     0.068 H 
ENDBRANCH  49  51
BRANCH  49  55
ATOM     55  C30 I1P d   1       9.270  -8.586   2.280  0.00  0.00     0.066 C 
ATOM     56  H24 I1P d   1       8.994  -7.659   2.805  0.00  0.00     0.068 H 
ATOM     57  H25 I1P d   1       9.272  -8.406   1.195  0.00  0.00     0.068 H 
ATOM     58  H26 I1P d   1      10.273  -8.904   2.600  0.00  0.00     0.068 H 
ENDBRANCH  49  55
ENDBRANCH  46  49
ENDBRANCH  43  46
ENDBRANCH  40  43
ENDBRANCH  38  40
ENDBRANCH  35  38
ENDBRANCH   5  35
TORSDOF 11
