REMARK  30 active torsions:
REMARK  status: ('A' for Active; 'I' for Inactive)
REMARK    1  A    between atoms: N_1  and  CA_2 
REMARK    2  A    between atoms: CA_2  and  C_3 
REMARK    3  A    between atoms: CA_2  and  CB_5 
REMARK       I    between atoms: C_3  and  N_8 
REMARK    4  A    between atoms: CB_5  and  OG1_6 
REMARK    5  A    between atoms: CB_5  and  CG2_7 
REMARK    6  A    between atoms: N_8  and  CA_9 
REMARK    7  A    between atoms: CA_9  and  C_10 
REMARK    8  A    between atoms: CA_9  and  CB_12 
REMARK       I    between atoms: C_10  and  N_16 
REMARK    9  A    between atoms: CB_12  and  CG_13 
REMARK   10  A    between atoms: CG_13  and  CD1_14 
REMARK   11  A    between atoms: CG_13  and  CD2_15 
REMARK   12  A    between atoms: CA_17  and  C_18 
REMARK       I    between atoms: C_18  and  N_23 
REMARK   13  A    between atoms: N_23  and  CA_24 
REMARK   14  A    between atoms: CA_24  and  C_25 
REMARK   15  A    between atoms: CA_24  and  CB_27 
REMARK       I    between atoms: C_25  and  N_37 
REMARK   16  A    between atoms: CB_27  and  CG_28 
REMARK   17  A    between atoms: N_37  and  CA_38 
REMARK   18  A    between atoms: CA_38  and  C_39 
REMARK   19  A    between atoms: CA_38  and  CB_41 
REMARK       I    between atoms: C_39  and  N_45 
REMARK   20  A    between atoms: CB_41  and  CG_42 
REMARK   21  A    between atoms: N_45  and  CA_46 
REMARK   22  A    between atoms: CA_46  and  C_47 
REMARK   23  A    between atoms: CA_46  and  CB_49 
REMARK       I    between atoms: C_47  and  N_53 
REMARK   24  A    between atoms: CB_49  and  CG_50 
REMARK   25  A    between atoms: CG_50  and  CD1_51 
REMARK   26  A    between atoms: CG_50  and  CD2_52 
REMARK   27  A    between atoms: N_53  and  CA_54 
REMARK   28  A    between atoms: CA_54  and  C_55 
REMARK   29  A    between atoms: CA_54  and  CB_57 
REMARK   30  A    between atoms: CB_57  and  CG_58 
ROOT
ATOM      1  CA  TRP d   1      24.833  52.872  32.706  0.00  0.00     0.093 C 
ATOM      2  H29 TRP d   1      25.834  52.806  33.157  0.00  0.00     0.088 H 
ENDROOT
BRANCH   1   3
ATOM      3  N   TRP d   1      24.851  54.018  31.796  0.00  0.00    -0.346 N 
ATOM      4  C   PRO d   1      25.705  54.118  30.774  0.00  0.00     0.241 C 
ATOM      5  O   PRO d   1      26.361  53.165  30.313  0.00  0.00    -0.271 OA
ATOM      6  H28 TRP d   1      24.195  54.758  31.946  0.00  0.00     0.163 HD
BRANCH   4   7
ATOM      7  CA  PRO d   1      25.796  55.517  30.132  0.00  0.00     0.091 C 
ATOM      8  N   PRO d   1      27.140  55.842  29.630  0.00  0.00    -0.337 N 
ATOM      9  C   LEU d   1      28.120  56.019  30.502  0.00  0.00     0.243 C 
ATOM     10  CD  PRO d   1      27.195  55.932  28.160  0.00  0.00    -0.001 C 
ATOM     11  O   LEU d   1      27.895  55.996  31.692  0.00  0.00    -0.271 OA
ATOM     12  CG  PRO d   1      25.805  55.581  27.722  0.00  0.00    -0.048 C 
ATOM     13  H26 PRO d   1      27.925  55.218  27.752  0.00  0.00     0.064 H 
ATOM     14  H27 PRO d   1      27.460  56.951  27.840  0.00  0.00     0.064 H 
ATOM     15  CB  PRO d   1      24.896  55.636  28.899  0.00  0.00    -0.036 C 
ATOM     16  H24 PRO d   1      25.466  56.299  26.961  0.00  0.00     0.035 H 
ATOM     17  H25 PRO d   1      25.798  54.566  27.298  0.00  0.00     0.035 H 
ATOM     18  H22 PRO d   1      24.349  56.590  28.915  0.00  0.00     0.036 H 
ATOM     19  H23 PRO d   1      24.179  54.803  28.867  0.00  0.00     0.036 H 
ATOM     20  H21 PRO d   1      25.496  56.259  30.887  0.00  0.00     0.087 H 
BRANCH   9  21
ATOM     21  CA  LEU d   1      29.549  56.277  29.988  0.00  0.00     0.090 C 
ATOM     22  H11 LEU d   1      29.532  56.262  28.888  0.00  0.00     0.087 H 
BRANCH  21  23
ATOM     23  N   LEU d   1      29.993  57.612  30.419  0.00  0.00    -0.346 N 
ATOM     24  C   THR d   1      29.461  58.706  29.849  0.00  0.00     0.251 C 
ATOM     25  O   THR d   1      28.738  58.663  28.840  0.00  0.00    -0.271 OA
ATOM     26  H10 LEU d   1      30.687  57.705  31.133  0.00  0.00     0.163 HD
BRANCH  24  27
ATOM     27  CA  THR d   1      29.779  60.060  30.477  0.00  0.00     0.199 C 
ATOM     28  H4  THR d   1      29.331  60.842  29.846  0.00  0.00     0.103 H 
BRANCH  27  29
ATOM     29  N   THR d   1      29.228  60.210  31.860  0.00  0.00    -0.064 N 
ATOM     30  H1  THR d   1      28.229  60.078  31.840  0.00  0.00     0.275 HD
ATOM     31  H2  THR d   1      29.438  61.133  32.207  0.00  0.00     0.275 HD
ATOM     32  H3  THR d   1      29.645  59.520  32.465  0.00  0.00     0.275 HD
ENDBRANCH  27  29
BRANCH  27  33
ATOM     33  CB  THR d   1      31.273  60.256  30.503  0.00  0.00     0.068 C 
ATOM     34  H5  THR d   1      31.772  59.300  30.718  0.00  0.00     0.086 H 
BRANCH  33  35
ATOM     35  OG1 THR d   1      31.593  61.232  31.508  0.00  0.00    -0.393 OA
ATOM     36  H6  THR d   1      32.534  61.363  31.532  0.00  0.00     0.210 HD
ENDBRANCH  33  35
BRANCH  33  37
ATOM     37  CG2 THR d   1      31.771  60.831  29.141  0.00  0.00    -0.050 C 
ATOM     38  H7  THR d   1      32.862  60.968  29.178  0.00  0.00     0.031 H 
ATOM     39  H8  THR d   1      31.286  61.800  28.953  0.00  0.00     0.031 H 
ATOM     40  H9  THR d   1      31.516  60.130  28.332  0.00  0.00     0.031 H 
ENDBRANCH  33  37
ENDBRANCH  27  33
ENDBRANCH  24  27
ENDBRANCH  21  23
BRANCH  21  41
ATOM     41  CB  LEU d   1      30.491  55.167  30.459  0.00  0.00    -0.035 C 
ATOM     42  H12 LEU d   1      30.375  55.040  31.545  0.00  0.00     0.037 H 
ATOM     43  H13 LEU d   1      31.527  55.461  30.233  0.00  0.00     0.037 H 
BRANCH  41  44
ATOM     44  CG  LEU d   1      30.195  53.831  29.771  0.00  0.00    -0.059 C 
ATOM     45  H14 LEU d   1      29.121  53.623  29.884  0.00  0.00     0.038 H 
BRANCH  44  46
ATOM     46  CD1 LEU d   1      30.510  53.921  28.307  0.00  0.00    -0.073 C 
ATOM     47  H15 LEU d   1      30.293  52.956  27.825  0.00  0.00     0.028 H 
ATOM     48  H16 LEU d   1      31.574  54.166  28.175  0.00  0.00     0.028 H 
ATOM     49  H17 LEU d   1      29.893  54.707  27.847  0.00  0.00     0.028 H 
ENDBRANCH  44  46
BRANCH  44  50
ATOM     50  CD2 LEU d   1      30.969  52.670  30.396  0.00  0.00    -0.073 C 
ATOM     51  H18 LEU d   1      30.735  52.608  31.469  0.00  0.00     0.028 H 
ATOM     52  H19 LEU d   1      32.048  52.837  30.266  0.00  0.00     0.028 H 
ATOM     53  H20 LEU d   1      30.681  51.730  29.903  0.00  0.00     0.028 H 
ENDBRANCH  44  50
ENDBRANCH  41  44
ENDBRANCH  21  41
ENDBRANCH   9  21
ENDBRANCH   4   7
ENDBRANCH   1   3
BRANCH   1  54
ATOM     54  C   TRP d   1      24.563  51.548  32.017  0.00  0.00     0.241 C 
ATOM     55  O   TRP d   1      25.073  50.500  32.456  0.00  0.00    -0.271 OA
ATOM     56  N   ASP d   1      23.776  51.569  30.940  0.00  0.00    -0.345 N 
ATOM     57  H38 ASP d   1      23.381  52.428  30.614  0.00  0.00     0.163 HD
BRANCH  56  58
ATOM     58  CA  ASP d   1      23.503  50.315  30.248  0.00  0.00     0.098 C 
ATOM     59  H39 ASP d   1      23.151  49.622  31.026  0.00  0.00     0.088 H 
BRANCH  58  60
ATOM     60  C   ASP d   1      24.776  49.684  29.660  0.00  0.00     0.241 C 
ATOM     61  O   ASP d   1      24.781  48.479  29.381  0.00  0.00    -0.271 OA
ATOM     62  N   LEU d   1      25.831  50.482  29.475  0.00  0.00    -0.346 N 
ATOM     63  H42 LEU d   1      25.749  51.455  29.689  0.00  0.00     0.163 HD
BRANCH  62  64
ATOM     64  CA  LEU d   1      27.110  49.967  28.965  0.00  0.00     0.089 C 
ATOM     65  H43 LEU d   1      26.886  49.060  28.385  0.00  0.00     0.087 H 
BRANCH  64  66
ATOM     66  C   LEU d   1      28.122  49.559  30.083  0.00  0.00     0.241 C 
ATOM     67  O   LEU d   1      29.160  49.011  29.782  0.00  0.00    -0.271 OA
ATOM     68  N   TRP d   1      27.817  49.796  31.350  0.00  0.00    -0.344 N 
ATOM     69  H53 TRP d   1      26.920  50.177  31.575  0.00  0.00     0.163 HD
BRANCH  68  70
ATOM     70  CA  TRP d   1      28.786  49.506  32.448  0.00  0.00     0.100 C 
ATOM     71  H54 TRP d   1      29.662  50.150  32.280  0.00  0.00     0.090 H 
BRANCH  70  72
ATOM     72  C   TRP d   1      29.284  48.087  32.491  0.00  0.00     0.197 C 
ATOM     73  O   TRP d   1      28.490  47.169  32.154  0.00  0.00    -0.646 OA
ATOM     74  O55 TRP d   1      30.462  47.824  32.853  0.00  0.00    -0.646 OA
ENDBRANCH  70  72
BRANCH  70  75
ATOM     75  CB  TRP d   1      28.186  49.874  33.796  0.00  0.00    -0.011 C 
ATOM     76  H55 TRP d   1      28.837  49.487  34.594  0.00  0.00     0.044 H 
ATOM     77  H56 TRP d   1      27.190  49.416  33.880  0.00  0.00     0.044 H 
BRANCH  75  78
ATOM     78  CG  TRP d   1      28.053  51.366  33.954  0.00  0.00    -0.028 A 
ATOM     79  CD1 TRP d   1      28.485  52.307  33.091  0.00  0.00    -0.015 A 
ATOM     80  NE1 TRP d   1      28.203  53.560  33.573  0.00  0.00    -0.365 N 
ATOM     81  H57 TRP d   1      28.986  52.102  32.146  0.00  0.00     0.112 H 
ATOM     82  CE2 TRP d   1      27.571  53.434  34.778  0.00  0.00     0.042 A 
ATOM     83  H58 TRP d   1      28.430  54.449  33.104  0.00  0.00     0.165 HD
ATOM     84  CD2 TRP d   1      27.472  52.068  35.055  0.00  0.00    -0.002 A 
ATOM     85  CZ2 TRP d   1      27.090  54.407  35.635  0.00  0.00    -0.056 A 
ATOM     86  CE3 TRP d   1      26.814  51.673  36.217  0.00  0.00    -0.070 A 
ATOM     87  CZ3 TRP d   1      26.341  52.642  37.073  0.00  0.00    -0.082 A 
ATOM     88  H59 TRP d   1      26.677  50.622  36.443  0.00  0.00     0.084 H 
ATOM     89  CH2 TRP d   1      26.473  53.984  36.783  0.00  0.00    -0.081 A 
ATOM     90  H61 TRP d   1      25.854  52.344  37.995  0.00  0.00     0.083 H 
ATOM     91  H62 TRP d   1      26.081  54.719  37.477  0.00  0.00     0.083 H 
ATOM     92  H60 TRP d   1      27.197  55.462  35.408  0.00  0.00     0.086 H 
ENDBRANCH  75  78
ENDBRANCH  70  75
ENDBRANCH  68  70
ENDBRANCH  64  66
BRANCH  64  93
ATOM     93  CB  LEU d   1      27.757  51.000  28.003  0.00  0.00    -0.035 C 
ATOM     94  H44 LEU d   1      28.746  50.612  27.718  0.00  0.00     0.037 H 
ATOM     95  H45 LEU d   1      27.878  51.941  28.561  0.00  0.00     0.037 H 
BRANCH  93  96
ATOM     96  CG  LEU d   1      27.002  51.324  26.714  0.00  0.00    -0.059 C 
ATOM     97  H46 LEU d   1      26.017  51.736  26.980  0.00  0.00     0.038 H 
BRANCH  96  98
ATOM     98  CD1 LEU d   1      27.738  52.335  25.896  0.00  0.00    -0.073 C 
ATOM     99  H47 LEU d   1      27.171  52.547  24.977  0.00  0.00     0.028 H 
ATOM    100  H48 LEU d   1      28.730  51.941  25.632  0.00  0.00     0.028 H 
ATOM    101  H49 LEU d   1      27.855  53.262  26.477  0.00  0.00     0.028 H 
ENDBRANCH  96  98
BRANCH  96 102
ATOM    102  CD2 LEU d   1      26.802  50.064  25.900  0.00  0.00    -0.073 C 
ATOM    103  H50 LEU d   1      26.260  49.320  26.503  0.00  0.00     0.028 H 
ATOM    104  H51 LEU d   1      27.781  49.657  25.608  0.00  0.00     0.028 H 
ATOM    105  H52 LEU d   1      26.219  50.299  24.997  0.00  0.00     0.028 H 
ENDBRANCH  96 102
ENDBRANCH  93  96
ENDBRANCH  64  93
ENDBRANCH  62  64
ENDBRANCH  58  60
BRANCH  58 106
ATOM    106  CB  ASP d   1      22.372  50.380  29.211  0.00  0.00     0.043 C 
ATOM    107  H40 ASP d   1      21.430  50.581  29.741  0.00  0.00     0.052 H 
ATOM    108  H41 ASP d   1      22.309  49.404  28.709  0.00  0.00     0.052 H 
BRANCH 106 109
ATOM    109  CG  ASP d   1      22.559  51.459  28.140  0.00  0.00     0.175 C 
ATOM    110  OD1 ASP d   1      23.172  52.527  28.365  0.00  0.00    -0.648 OA
ATOM    111  OD2 ASP d   1      22.051  51.337  27.018  0.00  0.00    -0.648 OA
ENDBRANCH 106 109
ENDBRANCH  58 106
ENDBRANCH  56  58
ENDBRANCH   1  54
BRANCH   1 112
ATOM    112  CB  TRP d   1      23.822  53.079  33.843  0.00  0.00    -0.012 C 
ATOM    113  H30 TRP d   1      23.929  54.105  34.225  0.00  0.00     0.044 H 
ATOM    114  H31 TRP d   1      24.047  52.363  34.647  0.00  0.00     0.044 H 
BRANCH 112 115
ATOM    115  CG  TRP d   1      22.360  52.871  33.394  0.00  0.00    -0.028 A 
ATOM    116  CD1 TRP d   1      21.524  53.822  32.957  0.00  0.00    -0.015 A 
ATOM    117  NE1 TRP d   1      20.310  53.275  32.631  0.00  0.00    -0.365 N 
ATOM    118  H32 TRP d   1      21.773  54.879  32.873  0.00  0.00     0.112 H 
ATOM    119  CE2 TRP d   1      20.349  51.932  32.837  0.00  0.00     0.042 A 
ATOM    120  H33 TRP d   1      19.495  53.800  32.284  0.00  0.00     0.165 HD
ATOM    121  CD2 TRP d   1      21.630  51.631  33.313  0.00  0.00    -0.002 A 
ATOM    122  CZ2 TRP d   1      19.361  50.969  32.641  0.00  0.00    -0.056 A 
ATOM    123  CE3 TRP d   1      21.933  50.303  33.603  0.00  0.00    -0.070 A 
ATOM    124  CZ3 TRP d   1      20.937  49.327  33.411  0.00  0.00    -0.082 A 
ATOM    125  H34 TRP d   1      22.915  50.027  33.969  0.00  0.00     0.084 H 
ATOM    126  CH2 TRP d   1      19.671  49.672  32.934  0.00  0.00    -0.081 A 
ATOM    127  H36 TRP d   1      21.157  48.290  33.637  0.00  0.00     0.083 H 
ATOM    128  H37 TRP d   1      18.924  48.899  32.794  0.00  0.00     0.083 H 
ATOM    129  H35 TRP d   1      18.380  51.240  32.269  0.00  0.00     0.086 H 
ENDBRANCH 112 115
ENDBRANCH   1 112
TORSDOF 30
