REMARK WARNING: 32 MAX_TORS EXCEEDED!!!
REMARK  69 active torsions:
REMARK  status: ('A' for Active; 'I' for Inactive)
REMARK    1  A    between atoms: CA_2  and  N_1 
REMARK    2  A    between atoms: C_3  and  CA_2 
REMARK       I    between atoms: N_5  and  C_3 
REMARK    3  A    between atoms: CA_6  and  N_5 
REMARK    4  A    between atoms: CA_6  and  CB_9 
REMARK    5  A    between atoms: C_7  and  CA_6 
REMARK       I    between atoms: N_14  and  C_7 
REMARK    6  A    between atoms: CB_9  and  CG_10 
REMARK    7  A    between atoms: CG_10  and  CD_11 
REMARK       I    between atoms: CD_11  and  NE2_13 
REMARK    8  A    between atoms: C_16  and  CA_15 
REMARK       I    between atoms: N_21  and  C_16 
REMARK    9  A    between atoms: C_23  and  CA_22 
REMARK       I    between atoms: N_28  and  C_23 
REMARK   10  A    between atoms: CA_29  and  N_28 
REMARK   11  A    between atoms: CA_29  and  CB_32 
REMARK   12  A    between atoms: C_30  and  CA_29 
REMARK       I    between atoms: N_36  and  C_30 
REMARK   13  A    between atoms: CB_32  and  CG_33 
REMARK   14  A    between atoms: CG_33  and  CD1_34 
REMARK   15  A    between atoms: CG_33  and  CD2_35 
REMARK   16  A    between atoms: CA_37  and  N_36 
REMARK   17  A    between atoms: CA_37  and  CB_40 
REMARK   18  A    between atoms: C_38  and  CA_37 
REMARK       I    between atoms: N_43  and  C_38 
REMARK   19  A    between atoms: CB_40  and  CG2_42 
REMARK   20  A    between atoms: CB_40  and  CG1_41 
REMARK   21  A    between atoms: C_45  and  CA_44 
REMARK       I    between atoms: N_50  and  C_45 
REMARK   22  A    between atoms: C_52  and  CA_51 
REMARK       I    between atoms: N_57  and  C_52 
REMARK   23  A    between atoms: CA_58  and  N_57 
REMARK   24  A    between atoms: CA_58  and  CB_61 
REMARK   25  A    between atoms: C_59  and  CA_58 
REMARK       I    between atoms: N_68  and  C_59 
REMARK   26  A    between atoms: CB_61  and  CG_62 
REMARK   27  A    between atoms: CG_62  and  CD_63 
REMARK   28  A    between atoms: CD_63  and  NE_64 
REMARK       I    between atoms: NE_64  and  CZ_65 
REMARK       I    between atoms: CZ_65  and  NH2_67 
REMARK       I    between atoms: CZ_65  and  NH1_66 
REMARK   29  A    between atoms: CA_69  and  N_68 
REMARK   30  A    between atoms: CA_69  and  CB_72 
REMARK   31  A    between atoms: C_70  and  CA_69 
REMARK       I    between atoms: N_77  and  C_70 
REMARK   32  A    between atoms: CB_72  and  CG_73 
REMARK   33  A    between atoms: CG_73  and  CD_74 
REMARK   34  A    between atoms: CD_74  and  CE_75 
REMARK   35  A    between atoms: CE_75  and  NZ_76 
REMARK   36  A    between atoms: CA_78  and  N_77 
REMARK   37  A    between atoms: CA_78  and  CB_81 
REMARK   38  A    between atoms: C_79  and  CA_78 
REMARK       I    between atoms: N_86  and  C_79 
REMARK   39  A    between atoms: CB_81  and  CG_82 
REMARK   40  A    between atoms: CG_82  and  CD_83 
REMARK   41  A    between atoms: CA_87  and  N_86 
REMARK   42  A    between atoms: CA_87  and  CB_90 
REMARK   43  A    between atoms: C_88  and  CA_87 
REMARK       I    between atoms: N_95  and  C_88 
REMARK   44  A    between atoms: CB_90  and  CG_91 
REMARK   45  A    between atoms: CG_91  and  CD_92 
REMARK   46  A    between atoms: CD_92  and  CE_93 
REMARK   47  A    between atoms: CE_93  and  NZ_94 
REMARK   48  A    between atoms: CA_96  and  N_95 
REMARK   49  A    between atoms: CA_96  and  CB_99 
REMARK   50  A    between atoms: C_97  and  CA_96 
REMARK       I    between atoms: N_103  and  C_97 
REMARK   51  A    between atoms: CB_99  and  CG_100 
REMARK   52  A    between atoms: CG_100  and  SD_101 
REMARK   53  A    between atoms: SD_101  and  CE_102 
REMARK   54  A    between atoms: CA_104  and  N_103 
REMARK   55  A    between atoms: CA_104  and  CB_107 
REMARK   56  A    between atoms: C_105  and  CA_104 
REMARK       I    between atoms: N_114  and  C_105 
REMARK   57  A    between atoms: CB_107  and  CG_108 
REMARK   58  A    between atoms: CG_108  and  CD_109 
REMARK   59  A    between atoms: CD_109  and  NE_110 
REMARK       I    between atoms: NE_110  and  CZ_111 
REMARK       I    between atoms: CZ_111  and  NH1_112 
REMARK   60  A    between atoms: CA_115  and  N_114 
REMARK   61  A    between atoms: C_116  and  CA_115 
REMARK       I    between atoms: C_116  and  N_118 
REMARK   62  A    between atoms: N_118  and  CA_119 
REMARK   63  A    between atoms: CA_119  and  CB_122 
REMARK   64  A    between atoms: CA_119  and  C_120 
REMARK   65  A    between atoms: C_120  and  O1_127 
REMARK   66  A    between atoms: CB_122  and  CG_123 
REMARK   67  A    between atoms: CG_123  and  CD_124 
REMARK   68  A    between atoms: CD_124  and  CE_125 
REMARK   69  A    between atoms: CE_125  and  NZ_126 
ROOT
ATOM      1  CA  ARG d   1       9.951  -3.871  22.242  0.00  0.00     0.089 C 
ATOM      2  H63 ARG d   1       9.511  -3.467  21.318  0.00  0.00     0.087 H 
ENDROOT
BRANCH   1   3
ATOM      3  N   ARG d   1      11.368  -3.497  22.235  0.00  0.00    -0.346 N 
ATOM      4  C   PRO d   1      11.752  -2.228  22.144  0.00  0.00     0.241 C 
ATOM      5  O   PRO d   1      10.958  -1.294  22.037  0.00  0.00    -0.271 OA
ATOM      6  H62 ARG d   1      12.062  -4.214  22.300  0.00  0.00     0.163 HD
BRANCH   4   7
ATOM      7  CA  PRO d   1      13.255  -1.959  22.190  0.00  0.00     0.091 C 
ATOM      8  CB  PRO d   1      13.647  -1.278  23.507  0.00  0.00    -0.036 C 
ATOM      9  CG  PRO d   1      14.692  -0.293  23.156  0.00  0.00    -0.048 C 
ATOM     10  H56 PRO d   1      14.042  -2.018  24.218  0.00  0.00     0.036 H 
ATOM     11  H57 PRO d   1      12.777  -0.772  23.950  0.00  0.00     0.036 H 
ATOM     12  CD  PRO d   1      14.468   0.106  21.736  0.00  0.00    -0.001 C 
ATOM     13  H58 PRO d   1      14.614   0.587  23.811  0.00  0.00     0.035 H 
ATOM     14  H59 PRO d   1      15.688  -0.746  23.267  0.00  0.00     0.035 H 
ATOM     15  N   PRO d   1      13.670  -0.993  21.171  0.00  0.00    -0.337 N 
ATOM     16  H60 PRO d   1      13.917   1.056  21.681  0.00  0.00     0.064 H 
ATOM     17  H61 PRO d   1      15.425   0.206  21.204  0.00  0.00     0.064 H 
ATOM     18  C   PRO d   1      13.328  -1.172  19.898  0.00  0.00     0.243 C 
ATOM     19  O   PRO d   1      12.717  -2.175  19.516  0.00  0.00    -0.271 OA
ATOM     20  H55 PRO d   1      13.795  -2.909  22.065  0.00  0.00     0.087 H 
BRANCH  18  21
ATOM     21  CA  PRO d   1      13.719  -0.080  18.906  0.00  0.00     0.092 C 
ATOM     22  CB  PRO d   1      12.687   1.058  18.914  0.00  0.00    -0.036 C 
ATOM     23  CG  PRO d   1      11.884   0.894  17.699  0.00  0.00    -0.048 C 
ATOM     24  H49 PRO d   1      13.195   2.033  18.906  0.00  0.00     0.036 H 
ATOM     25  H50 PRO d   1      12.047   0.986  19.806  0.00  0.00     0.036 H 
ATOM     26  CD  PRO d   1      12.717   0.161  16.700  0.00  0.00    -0.001 C 
ATOM     27  H51 PRO d   1      10.976   0.316  17.925  0.00  0.00     0.035 H 
ATOM     28  H52 PRO d   1      11.602   1.880  17.300  0.00  0.00     0.035 H 
ATOM     29  N   PRO d   1      13.698  -0.565  17.522  0.00  0.00    -0.337 N 
ATOM     30  H53 PRO d   1      12.102  -0.539  16.116  0.00  0.00     0.064 H 
ATOM     31  H54 PRO d   1      13.220   0.863  16.019  0.00  0.00     0.064 H 
ATOM     32  C   VAL d   1      14.524  -1.539  17.141  0.00  0.00     0.243 C 
ATOM     33  O   VAL d   1      15.370  -2.015  17.905  0.00  0.00    -0.271 OA
ATOM     34  H48 PRO d   1      14.718   0.300  19.165  0.00  0.00     0.087 H 
BRANCH  32  35
ATOM     35  CA  VAL d   1      14.420  -2.039  15.700  0.00  0.00     0.092 C 
ATOM     36  H40 VAL d   1      13.859  -1.312  15.094  0.00  0.00     0.088 H 
BRANCH  35  37
ATOM     37  N   VAL d   1      15.769  -2.175  15.181  0.00  0.00    -0.346 N 
ATOM     38  C   LEU d   1      16.487  -1.155  14.734  0.00  0.00     0.241 C 
ATOM     39  O   LEU d   1      16.019  -0.049  14.464  0.00  0.00    -0.271 OA
ATOM     40  H39 VAL d   1      16.178  -3.087  15.160  0.00  0.00     0.163 HD
BRANCH  38  41
ATOM     41  CA  LEU d   1      17.969  -1.447  14.580  0.00  0.00     0.089 C 
ATOM     42  H29 LEU d   1      18.098  -2.508  14.320  0.00  0.00     0.087 H 
BRANCH  41  43
ATOM     43  N   LEU d   1      18.548  -0.641  13.521  0.00  0.00    -0.346 N 
ATOM     44  C   PRO d   1      18.170  -0.786  12.260  0.00  0.00     0.241 C 
ATOM     45  O   PRO d   1      17.376  -1.650  11.883  0.00  0.00    -0.271 OA
ATOM     46  H28 LEU d   1      19.247   0.038  13.748  0.00  0.00     0.163 HD
BRANCH  44  47
ATOM     47  CA  PRO d   1      18.775   0.190  11.272  0.00  0.00     0.091 C 
ATOM     48  CB  PRO d   1      18.030   1.524  11.311  0.00  0.00    -0.036 C 
ATOM     49  CG  PRO d   1      16.955   1.376  10.292  0.00  0.00    -0.048 C 
ATOM     50  H22 PRO d   1      18.703   2.354  11.049  0.00  0.00     0.036 H 
ATOM     51  H23 PRO d   1      17.600   1.701  12.308  0.00  0.00     0.036 H 
ATOM     52  CD  PRO d   1      17.576   0.571   9.195  0.00  0.00    -0.001 C 
ATOM     53  H24 PRO d   1      16.088   0.848  10.717  0.00  0.00     0.035 H 
ATOM     54  H25 PRO d   1      16.637   2.361   9.918  0.00  0.00     0.035 H 
ATOM     55  N   PRO d   1      18.581  -0.251   9.893  0.00  0.00    -0.337 N 
ATOM     56  H26 PRO d   1      16.826  -0.063   8.700  0.00  0.00     0.064 H 
ATOM     57  H27 PRO d   1      18.053   1.225   8.450  0.00  0.00     0.064 H 
ATOM     58  C   PRO d   1      19.239  -1.301   9.415  0.00  0.00     0.243 C 
ATOM     59  O   PRO d   1      20.034  -1.958  10.092  0.00  0.00    -0.271 OA
ATOM     60  H21 PRO d   1      19.843   0.324  11.496  0.00  0.00     0.087 H 
BRANCH  58  61
ATOM     61  CA  PRO d   1      18.968  -1.681   7.966  0.00  0.00     0.092 C 
ATOM     62  CB  PRO d   1      17.770  -2.632   7.880  0.00  0.00    -0.036 C 
ATOM     63  CG  PRO d   1      18.170  -3.671   6.915  0.00  0.00    -0.048 C 
ATOM     64  H15 PRO d   1      16.878  -2.097   7.523  0.00  0.00     0.036 H 
ATOM     65  H16 PRO d   1      17.561  -3.079   8.863  0.00  0.00     0.036 H 
ATOM     66  CD  PRO d   1      19.636  -3.824   7.031  0.00  0.00    -0.001 C 
ATOM     67  H17 PRO d   1      17.671  -4.621   7.154  0.00  0.00     0.035 H 
ATOM     68  H18 PRO d   1      17.902  -3.362   5.894  0.00  0.00     0.035 H 
ATOM     69  N   PRO d   1      20.072  -2.467   7.404  0.00  0.00    -0.337 N 
ATOM     70  H19 PRO d   1      19.899  -4.554   7.811  0.00  0.00     0.064 H 
ATOM     71  H20 PRO d   1      20.080  -4.135   6.074  0.00  0.00     0.064 H 
ATOM     72  C   GLN d   1      21.296  -1.946   7.292  0.00  0.00     0.243 C 
ATOM     73  O   GLN d   1      21.562  -0.788   7.612  0.00  0.00    -0.271 OA
ATOM     74  H14 PRO d   1      18.794  -0.771   7.373  0.00  0.00     0.087 H 
BRANCH  72  75
ATOM     75  CA  GLN d   1      22.391  -2.855   6.744  0.00  0.00     0.090 C 
ATOM     76  H7  GLN d   1      21.910  -3.649   6.154  0.00  0.00     0.087 H 
BRANCH  75  77
ATOM     77  N   GLN d   1      23.306  -2.132   5.859  0.00  0.00    -0.346 N 
ATOM     78  C   GLY d   1      22.943  -1.808   4.618  0.00  0.00     0.243 C 
ATOM     79  O   GLY d   1      21.773  -1.876   4.224  0.00  0.00    -0.272 OA
ATOM     80  H6  GLN d   1      24.215  -1.878   6.190  0.00  0.00     0.163 HD
BRANCH  78  81
ATOM     81  CA  GLY d   1      24.039  -1.331   3.680  0.00  0.00     0.152 C 
ATOM     82  H4  GLY d   1      24.653  -2.198   3.394  0.00  0.00     0.090 H 
ATOM     83  H5  GLY d   1      23.567  -0.905   2.783  0.00  0.00     0.090 H 
BRANCH  81  84
ATOM     84  N   GLY d   1      24.930  -0.300   4.277  0.00  0.00    -0.071 N 
ATOM     85  H1  GLY d   1      25.630  -0.030   3.604  0.00  0.00     0.274 HD
ATOM     86  H2  GLY d   1      25.380  -0.678   5.096  0.00  0.00     0.274 HD
ATOM     87  H3  GLY d   1      24.384   0.507   4.535  0.00  0.00     0.274 HD
ENDBRANCH  81  84
ENDBRANCH  78  81
ENDBRANCH  75  77
BRANCH  75  88
ATOM     88  CB  GLN d   1      23.149  -3.513   7.899  0.00  0.00    -0.030 C 
ATOM     89  H8  GLN d   1      22.421  -4.022   8.549  0.00  0.00     0.037 H 
ATOM     90  H9  GLN d   1      23.664  -2.727   8.470  0.00  0.00     0.037 H 
BRANCH  88  91
ATOM     91  CG  GLN d   1      24.185  -4.535   7.441  0.00  0.00     0.011 C 
ATOM     92  H10 GLN d   1      25.141  -4.016   7.280  0.00  0.00     0.047 H 
ATOM     93  H11 GLN d   1      23.844  -4.978   6.493  0.00  0.00     0.047 H 
BRANCH  91  94
ATOM     94  CD  GLN d   1      24.405  -5.652   8.444  0.00  0.00     0.215 C 
ATOM     95  NE2 GLN d   1      23.517  -6.637   8.446  0.00  0.00    -0.370 N 
ATOM     96  H12 GLN d   1      23.616  -7.398   9.087  0.00  0.00     0.159 HD
ATOM     97  H13 GLN d   1      22.749  -6.619   7.806  0.00  0.00     0.159 HD
ATOM     98  OE1 GLN d   1      25.368  -5.623   9.203  0.00  0.00    -0.274 OA
ENDBRANCH  91  94
ENDBRANCH  88  91
ENDBRANCH  75  88
ENDBRANCH  72  75
ENDBRANCH  58  61
ENDBRANCH  44  47
ENDBRANCH  41  43
BRANCH  41  99
ATOM     99  CB  LEU d   1      18.664  -1.176  15.919  0.00  0.00    -0.035 C 
ATOM    100  H30 LEU d   1      18.157  -1.784  16.682  0.00  0.00     0.037 H 
ATOM    101  H31 LEU d   1      18.528  -0.109  16.151  0.00  0.00     0.037 H 
BRANCH  99 102
ATOM    102  CG  LEU d   1      20.156  -1.477  16.013  0.00  0.00    -0.059 C 
ATOM    103  H32 LEU d   1      20.691  -0.811  15.320  0.00  0.00     0.038 H 
BRANCH 102 104
ATOM    104  CD1 LEU d   1      20.628  -1.193  17.424  0.00  0.00    -0.073 C 
ATOM    105  H33 LEU d   1      21.704  -1.408  17.501  0.00  0.00     0.028 H 
ATOM    106  H34 LEU d   1      20.076  -1.830  18.131  0.00  0.00     0.028 H 
ATOM    107  H35 LEU d   1      20.447  -0.135  17.665  0.00  0.00     0.028 H 
ENDBRANCH 102 104
BRANCH 102 108
ATOM    108  CD2 LEU d   1      20.469  -2.913  15.627  0.00  0.00    -0.073 C 
ATOM    109  H36 LEU d   1      20.120  -3.101  14.601  0.00  0.00     0.028 H 
ATOM    110  H37 LEU d   1      19.959  -3.598  16.320  0.00  0.00     0.028 H 
ATOM    111  H38 LEU d   1      21.555  -3.079  15.681  0.00  0.00     0.028 H 
ENDBRANCH 102 108
ENDBRANCH  99 102
ENDBRANCH  41  99
ENDBRANCH  38  41
ENDBRANCH  35  37
BRANCH  35 112
ATOM    112  CB  VAL d   1      13.697  -3.406  15.659  0.00  0.00    -0.033 C 
ATOM    113  H41 VAL d   1      14.288  -4.121  16.251  0.00  0.00     0.042 H 
BRANCH 112 114
ATOM    114  CG2 VAL d   1      13.631  -3.921  14.219  0.00  0.00    -0.071 C 
ATOM    115  H45 VAL d   1      14.647  -3.968  13.799  0.00  0.00     0.028 H 
ATOM    116  H46 VAL d   1      13.015  -3.240  13.614  0.00  0.00     0.028 H 
ATOM    117  H47 VAL d   1      13.184  -4.926  14.209  0.00  0.00     0.028 H 
ENDBRANCH 112 114
BRANCH 112 118
ATOM    118  CG1 VAL d   1      12.310  -3.326  16.278  0.00  0.00    -0.071 C 
ATOM    119  H42 VAL d   1      11.830  -4.314  16.230  0.00  0.00     0.028 H 
ATOM    120  H43 VAL d   1      11.703  -2.596  15.723  0.00  0.00     0.028 H 
ATOM    121  H44 VAL d   1      12.395  -3.010  17.328  0.00  0.00     0.028 H 
ENDBRANCH 112 118
ENDBRANCH  35 112
ENDBRANCH  32  35
ENDBRANCH  18  21
ENDBRANCH   4   7
ENDBRANCH   1   3
BRANCH   1 122
ATOM    122  CB  ARG d   1       9.766  -5.399  22.209  0.00  0.00    -0.036 C 
ATOM    123  H64 ARG d   1       8.911  -5.660  22.850  0.00  0.00     0.036 H 
ATOM    124  H65 ARG d   1      10.678  -5.869  22.605  0.00  0.00     0.036 H 
BRANCH 122 125
ATOM    125  CG  ARG d   1       9.509  -5.948  20.818  0.00  0.00    -0.048 C 
ATOM    126  H66 ARG d   1       8.663  -5.395  20.385  0.00  0.00     0.035 H 
ATOM    127  H67 ARG d   1       9.241  -7.010  20.916  0.00  0.00     0.035 H 
BRANCH 125 128
ATOM    128  CD  ARG d   1      10.680  -5.845  19.856  0.00  0.00     0.009 C 
ATOM    129  H68 ARG d   1      11.492  -6.506  20.194  0.00  0.00     0.064 H 
ATOM    130  H69 ARG d   1      11.041  -4.806  19.827  0.00  0.00     0.064 H 
BRANCH 128 131
ATOM    131  NE  ARG d   1      10.248  -6.248  18.519  0.00  0.00    -0.227 N 
ATOM    132  CZ  ARG d   1      11.056  -6.594  17.528  0.00  0.00     0.665 C 
ATOM    133  NH2 ARG d   1      12.370  -6.550  17.672  0.00  0.00    -0.235 N 
ATOM    134  NH1 ARG d   1      10.537  -6.952  16.364  0.00  0.00    -0.235 N 
ATOM    135  H73 ARG d   1      12.780  -6.272  18.575  0.00  0.00     0.174 HD
ATOM    136  H74 ARG d   1      12.983  -6.793  16.881  0.00  0.00     0.174 HD
ATOM    137  H71 ARG d   1      11.155  -7.223  15.586  0.00  0.00     0.174 HD
ATOM    138  H72 ARG d   1       9.515  -6.960  16.236  0.00  0.00     0.174 HD
ATOM    139  H70 ARG d   1       9.235  -6.264  18.333  0.00  0.00     0.177 HD
ENDBRANCH 128 131
ENDBRANCH 125 128
ENDBRANCH 122 125
ENDBRANCH   1 122
BRANCH   1 140
ATOM    140  C   ARG d   1       9.170  -3.265  23.413  0.00  0.00     0.241 C 
ATOM    141  O   ARG d   1       7.968  -3.056  23.291  0.00  0.00    -0.271 OA
ATOM    142  N   LYS d   1       9.840  -2.970  24.524  0.00  0.00    -0.346 N 
ATOM    143  H75 LYS d   1      10.824  -3.144  24.567  0.00  0.00     0.163 HD
BRANCH 142 144
ATOM    144  CA  LYS d   1       9.160  -2.396  25.683  0.00  0.00     0.089 C 
ATOM    145  H76 LYS d   1       8.315  -3.057  25.927  0.00  0.00     0.087 H 
BRANCH 144 146
ATOM    146  CB  LYS d   1      10.079  -2.352  26.911  0.00  0.00    -0.038 C 
ATOM    147  H77 LYS d   1      10.455  -3.371  27.085  0.00  0.00     0.036 H 
ATOM    148  H78 LYS d   1       9.474  -2.032  27.772  0.00  0.00     0.036 H 
BRANCH 146 149
ATOM    149  CG  LYS d   1      11.279  -1.424  26.817  0.00  0.00    -0.061 C 
ATOM    150  H79 LYS d   1      10.942  -0.383  26.927  0.00  0.00     0.033 H 
ATOM    151  H80 LYS d   1      11.761  -1.552  25.837  0.00  0.00     0.033 H 
BRANCH 149 152
ATOM    152  CD  LYS d   1      12.290  -1.747  27.923  0.00  0.00    -0.043 C 
ATOM    153  H81 LYS d   1      12.908  -2.597  27.598  0.00  0.00     0.035 H 
ATOM    154  H82 LYS d   1      11.738  -2.022  28.834  0.00  0.00     0.035 H 
BRANCH 152 155
ATOM    155  CE  LYS d   1      13.202  -0.581  28.243  0.00  0.00     0.080 C 
ATOM    156  H83 LYS d   1      13.945  -0.911  28.984  0.00  0.00     0.075 H 
ATOM    157  H84 LYS d   1      12.595   0.231  28.669  0.00  0.00     0.075 H 
BRANCH 155 158
ATOM    158  NZ  LYS d   1      13.920  -0.059  27.058  0.00  0.00    -0.079 N 
ATOM    159  H85 LYS d   1      14.508   0.712  27.334  0.00  0.00     0.274 HD
ATOM    160  H86 LYS d   1      13.252   0.257  26.372  0.00  0.00     0.274 HD
ATOM    161  H87 LYS d   1      14.489  -0.790  26.661  0.00  0.00     0.274 HD
ENDBRANCH 155 158
ENDBRANCH 152 155
ENDBRANCH 149 152
ENDBRANCH 146 149
ENDBRANCH 144 146
BRANCH 144 162
ATOM    162  C   LYS d   1       8.588  -1.018  25.381  0.00  0.00     0.241 C 
ATOM    163  O   LYS d   1       7.658  -0.568  26.049  0.00  0.00    -0.271 OA
ATOM    164  N   GLU d   1       9.115  -0.364  24.351  0.00  0.00    -0.346 N 
ATOM    165  H88 GLU d   1       9.848  -0.793  23.823  0.00  0.00     0.163 HD
BRANCH 164 166
ATOM    166  CA  GLU d   1       8.650   0.964  23.973  0.00  0.00     0.090 C 
ATOM    167  H89 GLU d   1       8.446   1.508  24.907  0.00  0.00     0.087 H 
BRANCH 166 168
ATOM    168  CB  GLU d   1       9.753   1.719  23.231  0.00  0.00    -0.029 C 
ATOM    169  H90 GLU d   1       9.335   2.655  22.831  0.00  0.00     0.037 H 
ATOM    170  H91 GLU d   1      10.113   1.094  22.401  0.00  0.00     0.037 H 
BRANCH 168 171
ATOM    171  CG  GLU d   1      10.929   2.055  24.138  0.00  0.00     0.018 C 
ATOM    172  H92 GLU d   1      11.269   1.130  24.626  0.00  0.00     0.049 H 
ATOM    173  H93 GLU d   1      10.588   2.769  24.902  0.00  0.00     0.049 H 
BRANCH 171 174
ATOM    174  CD  GLU d   1      12.095   2.664  23.399  0.00  0.00     0.172 C 
ATOM    175  OE2 GLU d   1      13.156   2.859  24.025  0.00  0.00    -0.648 OA
ATOM    176  OE1 GLU d   1      11.957   2.952  22.193  0.00  0.00    -0.648 OA
ENDBRANCH 171 174
ENDBRANCH 168 171
ENDBRANCH 166 168
BRANCH 166 177
ATOM    177  C   GLU d   1       7.351   0.972  23.165  0.00  0.00     0.241 C 
ATOM    178  O   GLU d   1       6.840   2.041  22.852  0.00  0.00    -0.271 OA
ATOM    179  N   LYS d   1       6.814  -0.205  22.850  0.00  0.00    -0.346 N 
ATOM    180  H94 LYS d   1       7.322  -1.043  23.051  0.00  0.00     0.163 HD
BRANCH 179 181
ATOM    181  CA  LYS d   1       5.501  -0.301  22.218  0.00  0.00     0.089 C 
ATOM    182  H95 LYS d   1       5.503   0.328  21.316  0.00  0.00     0.087 H 
BRANCH 181 183
ATOM    183  CB  LYS d   1       5.196  -1.739  21.803  0.00  0.00    -0.038 C 
ATOM    184  H96 LYS d   1       4.118  -1.826  21.603  0.00  0.00     0.036 H 
ATOM    185  H97 LYS d   1       5.471  -2.409  22.631  0.00  0.00     0.036 H 
BRANCH 183 186
ATOM    186  CG  LYS d   1       5.956  -2.168  20.559  0.00  0.00    -0.061 C 
ATOM    187  H98 LYS d   1       7.032  -2.174  20.790  0.00  0.00     0.033 H 
ATOM    188  H99 LYS d   1       5.757  -1.441  19.758  0.00  0.00     0.033 H 
BRANCH 186 189
ATOM    189  CD  LYS d   1       5.559  -3.548  20.069  0.00  0.00    -0.043 C 
ATOM    190 0H10 LYS d   1       6.045  -3.735  19.100  0.00  0.00     0.035 H 
ATOM    191 1H10 LYS d   1       4.467  -3.580  19.943  0.00  0.00     0.035 H 
BRANCH 189 192
ATOM    192  CE  LYS d   1       5.971  -4.630  21.039  0.00  0.00     0.080 C 
ATOM    193 2H10 LYS d   1       5.315  -4.591  21.921  0.00  0.00     0.075 H 
ATOM    194 3H10 LYS d   1       7.013  -4.458  21.348  0.00  0.00     0.075 H 
BRANCH 192 195
ATOM    195  NZ  LYS d   1       5.866  -5.969  20.418  0.00  0.00    -0.079 N 
ATOM    196 4H10 LYS d   1       6.146  -6.671  21.085  0.00  0.00     0.274 HD
ATOM    197 5H10 LYS d   1       6.468  -6.013  19.611  0.00  0.00     0.274 HD
ATOM    198 6H10 LYS d   1       4.913  -6.135  20.136  0.00  0.00     0.274 HD
ENDBRANCH 192 195
ENDBRANCH 189 192
ENDBRANCH 186 189
ENDBRANCH 183 186
ENDBRANCH 181 183
BRANCH 181 199
ATOM    199  C   LYS d   1       4.426   0.211  23.163  0.00  0.00     0.241 C 
ATOM    200  O   LYS d   1       3.438   0.787  22.719  0.00  0.00    -0.271 OA
ATOM    201  N   MET d   1       4.630   0.012  24.464  0.00  0.00    -0.346 N 
ATOM    202 7H10 MET d   1       5.407  -0.546  24.756  0.00  0.00     0.163 HD
BRANCH 201 203
ATOM    203  CA  MET d   1       3.747   0.588  25.475  0.00  0.00     0.090 C 
ATOM    204 8H10 MET d   1       2.714   0.287  25.246  0.00  0.00     0.087 H 
BRANCH 203 205
ATOM    205  CB  MET d   1       4.109   0.079  26.872  0.00  0.00    -0.030 C 
ATOM    206 9H10 MET d   1       3.378   0.493  27.582  0.00  0.00     0.037 H 
ATOM    207 0H11 MET d   1       5.113   0.455  27.118  0.00  0.00     0.037 H 
BRANCH 205 208
ATOM    208  CG  MET d   1       4.122  -1.439  27.046  0.00  0.00    -0.021 C 
ATOM    209 1H11 MET d   1       5.165  -1.759  27.182  0.00  0.00     0.049 H 
ATOM    210 2H11 MET d   1       3.716  -1.892  26.130  0.00  0.00     0.049 H 
BRANCH 208 211
ATOM    211  SD  MET d   1       3.145  -2.056  28.470  0.00  0.00    -0.173 SA
BRANCH 211 212
ATOM    212  CE  MET d   1       3.410  -0.767  29.703  0.00  0.00    -0.035 C 
ATOM    213 3H11 MET d   1       2.865  -1.023  30.624  0.00  0.00     0.041 H 
ATOM    214 4H11 MET d   1       3.042   0.194  29.314  0.00  0.00     0.041 H 
ATOM    215 5H11 MET d   1       4.485  -0.686  29.923  0.00  0.00     0.041 H 
ENDBRANCH 211 212
ENDBRANCH 208 211
ENDBRANCH 205 208
ENDBRANCH 203 205
BRANCH 203 216
ATOM    216  C   MET d   1       3.829   2.114  25.460  0.00  0.00     0.241 C 
ATOM    217  O   MET d   1       4.772   2.691  24.923  0.00  0.00    -0.271 OA
ATOM    218  N   ARG d   1       2.846   2.763  26.073  0.00  0.00    -0.346 N 
ATOM    219 6H11 ARG d   1       2.145   2.237  26.555  0.00  0.00     0.163 HD
BRANCH 218 220
ATOM    220  CA  ARG d   1       2.755   4.224  26.066  0.00  0.00     0.089 C 
ATOM    221 7H11 ARG d   1       2.841   4.564  25.023  0.00  0.00     0.087 H 
BRANCH 220 222
ATOM    222  CB  ARG d   1       1.394   4.669  26.608  0.00  0.00    -0.036 C 
ATOM    223 8H11 ARG d   1       1.472   4.761  27.701  0.00  0.00     0.036 H 
ATOM    224 9H11 ARG d   1       0.654   3.895  26.357  0.00  0.00     0.036 H 
BRANCH 222 225
ATOM    225  CG  ARG d   1       0.905   5.989  26.055  0.00  0.00    -0.048 C 
ATOM    226 0H12 ARG d   1       0.809   5.894  24.963  0.00  0.00     0.035 H 
ATOM    227 1H12 ARG d   1       1.651   6.762  26.292  0.00  0.00     0.035 H 
BRANCH 225 228
ATOM    228  CD  ARG d   1      -0.438   6.429  26.618  0.00  0.00     0.009 C 
ATOM    229 2H12 ARG d   1      -0.699   5.778  27.465  0.00  0.00     0.064 H 
ATOM    230 3H12 ARG d   1      -1.202   6.332  25.832  0.00  0.00     0.064 H 
BRANCH 228 231
ATOM    231  NE  ARG d   1      -0.407   7.815  27.079  0.00  0.00    -0.227 N 
ATOM    232  CZ  ARG d   1      -0.375   8.884  26.285  0.00  0.00     0.665 C 
ATOM    233  NH2 ARG d   1      -0.377   8.754  24.961  0.00  0.00    -0.235 N 
ATOM    234  NH1 ARG d   1      -0.346  10.099  26.818  0.00  0.00    -0.235 N 
ATOM    235 7H12 ARG d   1      -0.399   7.816  24.536  0.00  0.00     0.174 HD
ATOM    236 8H12 ARG d   1      -0.356   9.591  24.361  0.00  0.00     0.174 HD
ATOM    237 5H12 ARG d   1      -0.321  10.928  26.208  0.00  0.00     0.174 HD
ATOM    238 6H12 ARG d   1      -0.348  10.213  27.842  0.00  0.00     0.174 HD
ATOM    239 4H12 ARG d   1      -0.410   7.978  28.096  0.00  0.00     0.177 HD
ENDBRANCH 228 231
ENDBRANCH 225 228
ENDBRANCH 222 225
ENDBRANCH 220 222
BRANCH 220 240
ATOM    240  C   ARG d   1       3.885   4.881  26.871  0.00  0.00     0.240 C 
ATOM    241  O   ARG d   1       4.452   4.274  27.783  0.00  0.00    -0.271 OA
ATOM    242  N   GLY d   1       4.188   6.131  26.529  0.00  0.00    -0.351 N 
ATOM    243 9H12 GLY d   1       3.621   6.589  25.844  0.00  0.00     0.163 HD
BRANCH 242 244
ATOM    244  CA  GLY d   1       5.306   6.863  27.105  0.00  0.00     0.069 C 
ATOM    245 0H13 GLY d   1       5.331   6.675  28.189  0.00  0.00     0.078 H 
ATOM    246 1H13 GLY d   1       5.156   7.937  26.923  0.00  0.00     0.078 H 
BRANCH 244 247
ATOM    247  C   GLY d   1       6.640   6.449  26.508  0.00  0.00     0.236 C 
ATOM    248  O   GLY d   1       7.686   6.637  27.135  0.00  0.00    -0.272 OA
ATOM    249  N   LYS d   1       6.600   5.918  25.284  0.00  0.00    -0.345 N 
ATOM    250 2H13 LYS d   1       5.753   6.000  24.758  0.00  0.00     0.163 HD
BRANCH 249 251
ATOM    251  CA  LYS d   1       7.734   5.221  24.672  0.00  0.00     0.093 C 
ATOM    252 3H13 LYS d   1       7.387   4.774  23.729  0.00  0.00     0.089 H 
BRANCH 251 253
ATOM    253  CB  LYS d   1       8.886   6.183  24.338  0.00  0.00    -0.037 C 
ATOM    254 4H13 LYS d   1       9.028   6.863  25.191  0.00  0.00     0.036 H 
ATOM    255 5H13 LYS d   1       8.604   6.765  23.448  0.00  0.00     0.036 H 
BRANCH 253 256
ATOM    256  CG  LYS d   1      10.214   5.482  24.054  0.00  0.00    -0.061 C 
ATOM    257 6H13 LYS d   1      10.010   4.552  23.503  0.00  0.00     0.033 H 
ATOM    258 7H13 LYS d   1      10.697   5.242  25.013  0.00  0.00     0.033 H 
BRANCH 256 259
ATOM    259  CD  LYS d   1      11.166   6.335  23.231  0.00  0.00    -0.043 C 
ATOM    260 8H13 LYS d   1      10.617   6.751  22.373  0.00  0.00     0.035 H 
ATOM    261 9H13 LYS d   1      11.987   5.699  22.868  0.00  0.00     0.035 H 
BRANCH 259 262
ATOM    262  CE  LYS d   1      11.754   7.478  24.033  0.00  0.00     0.080 C 
ATOM    263 0H14 LYS d   1      11.315   7.469  25.041  0.00  0.00     0.075 H 
ATOM    264 1H14 LYS d   1      11.508   8.427  23.534  0.00  0.00     0.075 H 
BRANCH 262 265
ATOM    265  NZ  LYS d   1      13.225   7.366  24.150  0.00  0.00    -0.079 N 
ATOM    266 2H14 LYS d   1      13.579   8.141  24.688  0.00  0.00     0.274 HD
ATOM    267 3H14 LYS d   1      13.637   7.379  23.230  0.00  0.00     0.274 HD
ATOM    268 4H14 LYS d   1      13.460   6.501  24.611  0.00  0.00     0.274 HD
ENDBRANCH 262 265
ENDBRANCH 259 262
ENDBRANCH 256 259
ENDBRANCH 253 256
ENDBRANCH 251 253
BRANCH 251 269
ATOM    269  C   LYS d   1       8.210   4.092  25.586  0.00  0.00     0.163 C 
ATOM    270  O   LYS d   1       7.399   3.376  26.178  0.00  0.00    -0.648 OA
BRANCH 269 271
ATOM    271  O1  LYS d   1       9.513   3.880  25.745  0.00  0.00    -0.775 OA
ATOM    272 5H14 LYS d   1       9.740   3.979  26.662  0.00  0.00     0.167 HD
ENDBRANCH 269 271
ENDBRANCH 251 269
ENDBRANCH 249 251
ENDBRANCH 244 247
ENDBRANCH 242 244
ENDBRANCH 220 240
ENDBRANCH 218 220
ENDBRANCH 203 216
ENDBRANCH 201 203
ENDBRANCH 181 199
ENDBRANCH 179 181
ENDBRANCH 166 177
ENDBRANCH 164 166
ENDBRANCH 144 162
ENDBRANCH 142 144
ENDBRANCH   1 140
TORSDOF 69
