REMARK  5 active torsions:
REMARK  status: ('A' for Active; 'I' for Inactive)
REMARK    1  A    between atoms: C1_1  and  C2_2 
REMARK    2  A    between atoms: C1_1  and  N_11 
REMARK    3  A    between atoms: C2_2  and  C3_3 
REMARK    4  A    between atoms: C3_3  and  C4_4 
REMARK    5  A    between atoms: C4_4  and  C1'_5 
ROOT
ATOM      1  C4  PBN d   1      44.950  20.847  49.701  0.00  0.00    -0.041 C 
ATOM      2  H7  PBN d   1      43.967  20.755  50.186  0.00  0.00     0.040 H 
ATOM      3  H8  PBN d   1      44.914  20.378  48.707  0.00  0.00     0.040 H 
ENDROOT
BRANCH   1   4
ATOM      4  C3  PBN d   1      45.947  20.053  50.542  0.00  0.00    -0.060 C 
ATOM      5  H5  PBN d   1      46.886  19.927  49.984  0.00  0.00     0.033 H 
ATOM      6  H6  PBN d   1      46.148  20.587  51.482  0.00  0.00     0.033 H 
BRANCH   4   7
ATOM      7  C2  PBN d   1      45.341  18.689  50.845  0.00  0.00    -0.043 C 
ATOM      8  H3  PBN d   1      44.374  18.615  50.325  0.00  0.00     0.035 H 
ATOM      9  H4  PBN d   1      46.022  17.914  50.464  0.00  0.00     0.035 H 
BRANCH   7  10
ATOM     10  C1  PBN d   1      45.112  18.441  52.311  0.00  0.00     0.080 C 
ATOM     11  H1  PBN d   1      44.087  18.066  52.446  0.00  0.00     0.075 H 
ATOM     12  H2  PBN d   1      45.228  19.393  52.849  0.00  0.00     0.075 H 
BRANCH  10  13
ATOM     13  N   PBN d   1      46.063  17.445  52.897  0.00  0.00    -0.079 N 
ATOM     14  H14 PBN d   1      45.860  17.323  53.877  0.00  0.00     0.274 HD
ATOM     15  H15 PBN d   1      47.008  17.779  52.789  0.00  0.00     0.274 HD
ATOM     16  H16 PBN d   1      45.962  16.563  52.420  0.00  0.00     0.274 HD
ENDBRANCH  10  13
ENDBRANCH   7  10
ENDBRANCH   4   7
ENDBRANCH   1   4
BRANCH   1  17
ATOM     17  C1' PBN d   1      45.190  22.199  49.510  0.00  0.00    -0.058 A 
ATOM     18  C2' PBN d   1      44.427  22.959  48.632  0.00  0.00    -0.077 A 
ATOM     19  C3' PBN d   1      44.703  24.297  48.472  0.00  0.00    -0.082 A 
ATOM     20  H9  PBN d   1      43.618  22.500  48.076  0.00  0.00     0.084 H 
ATOM     21  C4' PBN d   1      45.724  24.923  49.161  0.00  0.00    -0.083 A 
ATOM     22  H10 PBN d   1      44.100  24.879  47.784  0.00  0.00     0.083 H 
ATOM     23  C5' PBN d   1      46.497  24.183  50.036  0.00  0.00    -0.082 A 
ATOM     24  H11 PBN d   1      45.916  25.980  49.017  0.00  0.00     0.083 H 
ATOM     25  C6' PBN d   1      46.217  22.844  50.199  0.00  0.00    -0.077 A 
ATOM     26  H12 PBN d   1      47.309  24.648  50.584  0.00  0.00     0.083 H 
ATOM     27  H13 PBN d   1      46.820  22.268  50.892  0.00  0.00     0.084 H 
ENDBRANCH   1  17
TORSDOF 5
