REMARK  5 active torsions:
REMARK  status: ('A' for Active; 'I' for Inactive)
REMARK    1  A    between atoms: C1_1  and  C1'_13 
REMARK    2  A    between atoms: C4_5  and  S_9 
REMARK    3  A    between atoms: S_9  and  CM_12 
REMARK    4  A    between atoms: C4'_17  and  S'_21 
REMARK    5  A    between atoms: S'_21  and  CM'_24 
ROOT
ATOM      1  C1  PCB d   1     117.075  -0.494   0.140  0.00  0.00    -0.001 A 
ATOM      2  C2  PCB d   1     117.424  -1.156  -1.045  0.00  0.00     0.046 A 
ATOM      3 CL2  PCB d   1     116.979  -0.478  -2.584  0.00  0.00    -0.083 Cl
ATOM      4  C3  PCB d   1     118.130  -2.366  -0.990  0.00  0.00    -0.039 A 
ATOM      5  C4  PCB d   1     118.488  -2.915   0.249  0.00  0.00     0.082 A 
ATOM      6  C5  PCB d   1     118.139  -2.251   1.435  0.00  0.00     0.056 A 
ATOM      7 CL5  PCB d   1     118.580  -2.926   2.976  0.00  0.00    -0.083 Cl
ATOM      8  C6  PCB d   1     117.432  -1.041   1.379  0.00  0.00    -0.048 A 
ATOM      9  H1  PCB d   1     118.399  -2.878  -1.907  0.00  0.00     0.088 H 
ATOM     10  H2  PCB d   1     117.162  -0.529   2.295  0.00  0.00     0.087 H 
ENDROOT
BRANCH   1  11
ATOM     11  C1' PCB d   1     116.368   0.716   0.085  0.00  0.00    -0.001 A 
ATOM     12  C2' PCB d   1     117.031   1.901  -0.258  0.00  0.00     0.046 A 
ATOM     13 CL2' PCB d   1     118.734   1.872  -0.616  0.00  0.00    -0.083 Cl
ATOM     14  C3' PCB d   1     116.324   3.111  -0.311  0.00  0.00    -0.039 A 
ATOM     15  C4' PCB d   1     114.953   3.136  -0.022  0.00  0.00     0.082 A 
ATOM     16  H6  PCB d   1     116.838   4.028  -0.576  0.00  0.00     0.088 H 
ATOM     17  C5' PCB d   1     114.289   1.948   0.321  0.00  0.00     0.056 A 
ATOM     18 CL5' PCB d   1     112.587   1.972   0.681  0.00  0.00    -0.083 Cl
ATOM     19  C6' PCB d   1     114.997   0.739   0.374  0.00  0.00    -0.048 A 
ATOM     20  H7  PCB d   1     114.484  -0.178   0.639  0.00  0.00     0.087 H 
BRANCH  15  21
ATOM     21  S'  PCB d   1     114.063   4.668  -0.092  0.00  0.00     0.173 S 
ATOM     22  O1' PCB d   1     112.712   4.391  -0.507  0.00  0.00    -0.223 OA
ATOM     23  O2' PCB d   1     114.838   5.602  -0.867  0.00  0.00    -0.223 OA
BRANCH  21  24
ATOM     24  CM' PCB d   1     114.037   5.237   1.625  0.00  0.00     0.020 C 
ATOM     25  H8  PCB d   1     113.499   6.194   1.686  0.00  0.00     0.049 H 
ATOM     26  H9  PCB d   1     115.069   5.373   1.982  0.00  0.00     0.049 H 
ATOM     27  H10 PCB d   1     113.528   4.490   2.251  0.00  0.00     0.049 H 
ENDBRANCH  21  24
ENDBRANCH  15  21
ENDBRANCH   1  11
BRANCH   5  28
ATOM     28  S   PCB d   1     119.382  -4.445   0.313  0.00  0.00     0.173 S 
ATOM     29  O1  PCB d   1     120.242  -4.422   1.467  0.00  0.00    -0.223 OA
ATOM     30  O2  PCB d   1     119.977  -4.671  -0.979  0.00  0.00    -0.223 OA
BRANCH  28  31
ATOM     31  CM  PCB d   1     118.097  -5.692   0.573  0.00  0.00     0.020 C 
ATOM     32  H3  PCB d   1     118.559  -6.689   0.627  0.00  0.00     0.049 H 
ATOM     33  H4  PCB d   1     117.384  -5.663  -0.264  0.00  0.00     0.049 H 
ATOM     34  H5  PCB d   1     117.567  -5.482   1.514  0.00  0.00     0.049 H 
ENDBRANCH  28  31
ENDBRANCH   5  28
TORSDOF 5
