REMARK  4 active torsions:
REMARK  status: ('A' for Active; 'I' for Inactive)
REMARK    1  A    between atoms: N3_3  and  C8_8 
REMARK    2  A    between atoms: C10_10  and  C13_13 
REMARK    3  A    between atoms: N16_16  and  C18_18 
REMARK    4  A    between atoms: C18_18  and  C20_20 
ROOT
ATOM      1  C13 CP8 d   1     118.282  33.501  80.745  0.00  0.00     0.080 C 
ATOM      2  C14 CP8 d   1     119.257  32.396  80.278  0.00  0.00     0.026 C 
ATOM      3  O15 CP8 d   1     117.963  33.261  82.112  0.00  0.00    -0.370 OA
ATOM      4  N16 CP8 d   1     118.874  31.027  80.713  0.00  0.00    -0.343 N 
ATOM      5  C17 CP8 d   1     117.340  32.011  82.428  0.00  0.00     0.094 C 
ATOM      6  C19 CP8 d   1     117.966  30.777  81.739  0.00  0.00     0.243 C 
ATOM      7  O21 CP8 d   1     117.650  29.655  82.107  0.00  0.00    -0.271 OA
ATOM      8  H9  CP8 d   1     117.363  33.450  80.142  0.00  0.00     0.093 H 
ATOM      9  H10 CP8 d   1     120.254  32.621  80.683  0.00  0.00     0.068 H 
ATOM     10  H11 CP8 d   1     119.296  32.411  79.179  0.00  0.00     0.068 H 
ATOM     11  H12 CP8 d   1     116.284  32.071  82.127  0.00  0.00     0.089 H 
ATOM     12  H13 CP8 d   1     117.404  31.863  83.516  0.00  0.00     0.089 H 
ENDROOT
BRANCH   1  13
ATOM     13  C10 CP8 d   1     118.895  34.882  80.583  0.00  0.00    -0.027 A 
ATOM     14  C5  CP8 d   1     119.080  35.420  79.271  0.00  0.00    -0.065 A 
ATOM     15  C2  CP8 d   1     119.635  36.703  79.117  0.00  0.00    -0.014 A 
ATOM     16  H2  CP8 d   1     118.794  34.842  78.400  0.00  0.00     0.085 H 
ATOM     17  C1  CP8 d   1     120.025  37.511  80.302  0.00  0.00     0.051 A 
ATOM     18  C6  CP8 d   1     119.928  37.442  77.868  0.00  0.00     0.072 C 
ATOM     19  N3  CP8 d   1     120.553  38.744  79.967  0.00  0.00    -0.279 N 
ATOM     20  C4  CP8 d   1     119.842  36.965  81.594  0.00  0.00    -0.055 A 
ATOM     21  S7  CP8 d   1     121.008  38.754  78.390  0.00  0.00     0.236 S 
ATOM     22  O11 CP8 d   1     120.625  40.009  77.813  0.00  0.00    -0.205 OA
ATOM     23  O12 CP8 d   1     122.376  38.345  78.349  0.00  0.00    -0.205 OA
ATOM     24  C9  CP8 d   1     119.280  35.662  81.729  0.00  0.00    -0.072 A 
ATOM     25  H1  CP8 d   1     120.126  37.532  82.473  0.00  0.00     0.087 H 
ATOM     26  H8  CP8 d   1     119.139  35.248  82.721  0.00  0.00     0.084 H 
ATOM     27  H3  CP8 d   1     119.005  37.847  77.427  0.00  0.00     0.066 H 
ATOM     28  H4  CP8 d   1     120.429  36.791  77.136  0.00  0.00     0.066 H 
BRANCH  19  29
ATOM     29  C8  CP8 d   1     121.047  39.692  80.967  0.00  0.00    -0.004 C 
ATOM     30  H5  CP8 d   1     120.588  39.469  81.942  0.00  0.00     0.058 H 
ATOM     31  H6  CP8 d   1     120.784  40.716  80.663  0.00  0.00     0.058 H 
ATOM     32  H7  CP8 d   1     122.140  39.603  81.048  0.00  0.00     0.058 H 
ENDBRANCH  19  29
ENDBRANCH   1  13
BRANCH   4  33
ATOM     33  C18 CP8 d   1     119.521  29.894  80.002  0.00  0.00     0.021 C 
ATOM     34  H14 CP8 d   1     119.906  29.195  80.759  0.00  0.00     0.071 H 
ATOM     35  H15 CP8 d   1     120.360  30.297  79.415  0.00  0.00     0.071 H 
BRANCH  33  36
ATOM     36  C20 CP8 d   1     118.620  29.108  79.053  0.00  0.00    -0.040 A 
ATOM     37  C22 CP8 d   1     117.408  29.654  78.535  0.00  0.00    -0.075 A 
ATOM     38  C24 CP8 d   1     116.588  28.898  77.658  0.00  0.00    -0.082 A 
ATOM     39  H16 CP8 d   1     117.110  30.658  78.815  0.00  0.00     0.084 H 
ATOM     40  C26 CP8 d   1     116.971  27.590  77.285  0.00  0.00    -0.083 A 
ATOM     41  H18 CP8 d   1     115.668  29.324  77.274  0.00  0.00     0.083 H 
ATOM     42  C25 CP8 d   1     118.172  27.037  77.789  0.00  0.00    -0.082 A 
ATOM     43  H20 CP8 d   1     116.346  27.012  76.614  0.00  0.00     0.083 H 
ATOM     44  C23 CP8 d   1     118.988  27.793  78.666  0.00  0.00    -0.075 A 
ATOM     45  H19 CP8 d   1     118.468  26.034  77.504  0.00  0.00     0.083 H 
ATOM     46  H17 CP8 d   1     119.906  27.361  79.047  0.00  0.00     0.084 H 
ENDBRANCH  33  36
ENDBRANCH   4  33
TORSDOF 4
