REMARK  7 active torsions:
REMARK  status: ('A' for Active; 'I' for Inactive)
REMARK    1  A    between atoms: C1_2  and  C16_18 
REMARK    2  A    between atoms: C3_4  and  C5_6 
REMARK    3  A    between atoms: C8_9  and  C11_12 
REMARK       I    between atoms: C16_18  and  N2_20 
REMARK    4  A    between atoms: N2_20  and  C17_21 
REMARK    5  A    between atoms: C17_21  and  C18_22 
REMARK    6  A    between atoms: C17_21  and  C20_26 
REMARK    7  A    between atoms: C18_22  and  C19_23 
ROOT
ATOM      1  S1  PF3 d   1      42.582  53.491  19.938  0.00  0.00    -0.096 SA
ATOM      2  C1  PF3 d   1      41.481  54.654  19.217  0.00  0.00     0.073 A 
ATOM      3  C2  PF3 d   1      40.198  54.289  19.366  0.00  0.00    -0.050 A 
ATOM      4  C3  PF3 d   1      40.044  53.017  20.083  0.00  0.00    -0.018 A 
ATOM      5  C4  PF3 d   1      41.230  52.495  20.438  0.00  0.00    -0.033 A 
ATOM      6  H1  PF3 d   1      39.359  54.875  18.994  0.00  0.00     0.087 H 
ATOM      7  H2  PF3 d   1      41.339  51.555  20.978  0.00  0.00     0.096 H 
ENDROOT
BRANCH   2   8
ATOM      8  C16 PF3 d   1      41.913  55.915  18.569  0.00  0.00     0.259 C 
ATOM      9  O1  PF3 d   1      43.077  56.257  18.759  0.00  0.00    -0.267 OA
ATOM     10  N2  PF3 d   1      41.001  56.636  17.863  0.00  0.00    -0.347 N 
ATOM     11  H11 PF3 d   1      40.092  56.237  17.742  0.00  0.00     0.163 HD
BRANCH  10  12
ATOM     12  C17 PF3 d   1      41.246  57.958  17.262  0.00  0.00     0.047 C 
ATOM     13  H12 PF3 d   1      41.701  58.602  18.029  0.00  0.00     0.081 H 
BRANCH  12  14
ATOM     14  C18 PF3 d   1      39.825  58.484  16.914  0.00  0.00     0.038 C 
ATOM     15  H13 PF3 d   1      39.434  57.893  16.073  0.00  0.00     0.052 H 
ATOM     16  H14 PF3 d   1      39.910  59.539  16.613  0.00  0.00     0.052 H 
BRANCH  14  17
ATOM     17  C19 PF3 d   1      38.812  58.391  18.091  0.00  0.00     0.174 C 
ATOM     18  O2  PF3 d   1      38.994  59.084  19.088  0.00  0.00    -0.648 OA
ATOM     19  O3  PF3 d   1      37.864  57.613  17.996  0.00  0.00    -0.648 OA
ENDBRANCH  14  17
ENDBRANCH  12  14
BRANCH  12  20
ATOM     20  C20 PF3 d   1      42.162  58.027  16.013  0.00  0.00    -0.035 A 
ATOM     21  C21 PF3 d   1      42.463  59.312  15.442  0.00  0.00    -0.075 A 
ATOM     22  C22 PF3 d   1      43.300  59.439  14.308  0.00  0.00    -0.082 A 
ATOM     23  H15 PF3 d   1      42.039  60.203  15.890  0.00  0.00     0.084 H 
ATOM     24  C23 PF3 d   1      43.857  58.282  13.714  0.00  0.00    -0.083 A 
ATOM     25  H16 PF3 d   1      43.514  60.419  13.896  0.00  0.00     0.083 H 
ATOM     26  C24 PF3 d   1      43.573  57.012  14.255  0.00  0.00    -0.082 A 
ATOM     27  H17 PF3 d   1      44.500  58.372  12.846  0.00  0.00     0.083 H 
ATOM     28  C25 PF3 d   1      42.738  56.886  15.390  0.00  0.00    -0.075 A 
ATOM     29  H18 PF3 d   1      43.997  56.125  13.798  0.00  0.00     0.083 H 
ATOM     30  H19 PF3 d   1      42.533  55.901  15.793  0.00  0.00     0.084 H 
ENDBRANCH  12  20
ENDBRANCH  10  12
ENDBRANCH   2   8
BRANCH   4  31
ATOM     31  C5  PF3 d   1      38.737  52.439  20.383  0.00  0.00    -0.025 A 
ATOM     32  C6  PF3 d   1      37.791  52.162  19.367  0.00  0.00    -0.071 A 
ATOM     33  C7  PF3 d   1      36.524  51.636  19.706  0.00  0.00    -0.071 A 
ATOM     34  H3  PF3 d   1      38.038  52.353  18.329  0.00  0.00     0.084 H 
ATOM     35  C8  PF3 d   1      36.166  51.373  21.058  0.00  0.00    -0.026 A 
ATOM     36  H4  PF3 d   1      35.809  51.428  18.919  0.00  0.00     0.084 H 
ATOM     37  C9  PF3 d   1      37.128  51.648  22.056  0.00  0.00    -0.071 A 
ATOM     38  C10 PF3 d   1      38.389  52.171  21.729  0.00  0.00    -0.071 A 
ATOM     39  H5  PF3 d   1      36.887  51.451  23.095  0.00  0.00     0.084 H 
ATOM     40  H6  PF3 d   1      39.105  52.372  22.517  0.00  0.00     0.084 H 
BRANCH  35  41
ATOM     41  C11 PF3 d   1      34.799  50.834  21.427  0.00  0.00    -0.023 A 
ATOM     42  C12 PF3 d   1      34.290  50.998  22.738  0.00  0.00    -0.055 A 
ATOM     43  C13 PF3 d   1      33.014  50.500  23.059  0.00  0.00     0.003 A 
ATOM     44  H7  PF3 d   1      34.881  51.505  23.492  0.00  0.00     0.087 H 
ATOM     45  N1  PF3 d   1      32.227  49.854  22.157  0.00  0.00    -0.273 NA
ATOM     46  H8  PF3 d   1      32.642  50.637  24.068  0.00  0.00     0.114 H 
ATOM     47  C14 PF3 d   1      32.721  49.698  20.896  0.00  0.00     0.003 A 
ATOM     48  C15 PF3 d   1      33.989  50.170  20.495  0.00  0.00    -0.055 A 
ATOM     49  H9  PF3 d   1      32.108  49.185  20.164  0.00  0.00     0.114 H 
ATOM     50  H10 PF3 d   1      34.333  50.021  19.478  0.00  0.00     0.087 H 
ENDBRANCH  35  41
ENDBRANCH   4  31
TORSDOF 7
