REMARK  4 active torsions:
REMARK  status: ('A' for Active; 'I' for Inactive)
REMARK    1  A    between atoms: CBF_31  and  CBG_32 
REMARK    2  A    between atoms: CBG_32  and  NBH_33 
REMARK    3  A    between atoms: NBH_33  and  CBI_34 
REMARK    4  A    between atoms: NBH_33  and  CBJ_35 
ROOT
ATOM      1  CBD LY4 d   1      23.059  81.731  26.868  0.00  0.00    -0.024 C 
ATOM      2  CBB LY4 d   1      23.050  80.408  26.142  0.00  0.00     0.002 C 
ATOM      3  NAW LY4 d   1      23.855  79.307  26.698  0.00  0.00    -0.355 N 
ATOM      4  CAV LY4 d   1      25.176  79.425  27.087  0.00  0.00    -0.008 A 
ATOM      5  CAX LY4 d   1      23.569  78.022  26.687  0.00  0.00     0.045 A 
ATOM      6  CAY LY4 d   1      22.396  77.345  26.297  0.00  0.00    -0.056 A 
ATOM      7  CAZ LY4 d   1      22.346  75.938  26.414  0.00  0.00    -0.081 A 
ATOM      8  CAP LY4 d   1      23.411  75.190  26.923  0.00  0.00    -0.082 A 
ATOM      9  CAO LY4 d   1      24.597  75.867  27.300  0.00  0.00    -0.070 A 
ATOM     10  CAN LY4 d   1      24.669  77.295  27.167  0.00  0.00     0.003 A 
ATOM     11  CAM LY4 d   1      25.670  78.216  27.471  0.00  0.00     0.009 A 
ATOM     12  CAH LY4 d   1      27.056  78.051  27.841  0.00  0.00     0.061 A 
ATOM     13  CAE LY4 d   1      27.916  77.044  27.289  0.00  0.00     0.260 A 
ATOM     14  OAF LY4 d   1      27.600  76.118  26.514  0.00  0.00    -0.267 OA
ATOM     15  NAD LY4 d   1      29.196  77.202  27.729  0.00  0.00    -0.289 N 
ATOM     16  CAC LY4 d   1      29.211  78.268  28.503  0.00  0.00     0.260 A 
ATOM     17  OAB LY4 d   1      30.255  78.709  29.007  0.00  0.00    -0.267 OA
ATOM     18  CAG LY4 d   1      27.920  78.853  28.656  0.00  0.00     0.061 A 
ATOM     19  CAL LY4 d   1      27.539  80.040  29.364  0.00  0.00     0.009 A 
ATOM     20  CAU LY4 d   1      26.284  80.224  29.857  0.00  0.00    -0.008 A 
ATOM     21  CAK LY4 d   1      28.235  81.245  29.633  0.00  0.00     0.003 A 
ATOM     22  CAJ LY4 d   1      29.568  81.698  29.375  0.00  0.00    -0.070 A 
ATOM     23  CAI LY4 d   1      29.913  82.993  29.778  0.00  0.00    -0.082 A 
ATOM     24  CAQ LY4 d   1      28.997  83.846  30.415  0.00  0.00    -0.081 A 
ATOM     25  CAR LY4 d   1      27.694  83.406  30.656  0.00  0.00    -0.056 A 
ATOM     26  CAS LY4 d   1      27.327  82.104  30.257  0.00  0.00     0.045 A 
ATOM     27  NAT LY4 d   1      26.165  81.460  30.385  0.00  0.00    -0.353 N 
ATOM     28  CBA LY4 d   1      24.874  81.952  30.942  0.00  0.00     0.019 C 
ATOM     29  CBC LY4 d   1      24.091  82.524  29.751  0.00  0.00     0.035 C 
ATOM     30  OBE LY4 d   1      23.396  81.368  29.222  0.00  0.00    -0.383 OA
ATOM     31  CBF LY4 d   1      22.386  81.641  28.239  0.00  0.00     0.063 C 
ATOM     32  H1  LY4 d   1      22.523  82.474  26.258  0.00  0.00     0.039 H 
ATOM     33  H2  LY4 d   1      24.102  82.053  27.006  0.00  0.00     0.039 H 
ATOM     34  H3  LY4 d   1      23.412  80.594  25.120  0.00  0.00     0.065 H 
ATOM     35  H4  LY4 d   1      22.006  80.063  26.104  0.00  0.00     0.065 H 
ATOM     36  H5  LY4 d   1      25.742  80.355  27.086  0.00  0.00     0.113 H 
ATOM     37  H6  LY4 d   1      21.545  77.896  25.913  0.00  0.00     0.087 H 
ATOM     38  H7  LY4 d   1      21.448  75.419  26.097  0.00  0.00     0.083 H 
ATOM     39  H8  LY4 d   1      23.331  74.114  27.027  0.00  0.00     0.083 H 
ATOM     40  H9  LY4 d   1      25.444  75.311  27.686  0.00  0.00     0.084 H 
ATOM     41  H10 LY4 d   1      29.977  76.618  27.506  0.00  0.00     0.172 HD
ATOM     42  H11 LY4 d   1      25.489  79.480  29.829  0.00  0.00     0.113 H 
ATOM     43  H12 LY4 d   1      30.289  81.057  28.882  0.00  0.00     0.084 H 
ATOM     44  H13 LY4 d   1      30.920  83.349  29.593  0.00  0.00     0.083 H 
ATOM     45  H14 LY4 d   1      29.300  84.842  30.718  0.00  0.00     0.083 H 
ATOM     46  H15 LY4 d   1      26.975  84.055  31.142  0.00  0.00     0.087 H 
ATOM     47  H16 LY4 d   1      24.317  81.124  31.404  0.00  0.00     0.068 H 
ATOM     48  H17 LY4 d   1      25.055  82.736  31.692  0.00  0.00     0.068 H 
ATOM     49  H18 LY4 d   1      24.772  82.952  29.000  0.00  0.00     0.076 H 
ATOM     50  H19 LY4 d   1      23.379  83.295  30.081  0.00  0.00     0.076 H 
ATOM     51  H20 LY4 d   1      21.845  82.576  28.448  0.00  0.00     0.086 H 
ENDROOT
BRANCH  31  52
ATOM     52  CBG LY4 d   1      21.457  80.414  28.401  0.00  0.00     0.106 C 
ATOM     53  H21 LY4 d   1      22.075  79.504  28.381  0.00  0.00     0.080 H 
ATOM     54  H22 LY4 d   1      20.752  80.397  27.557  0.00  0.00     0.080 H 
BRANCH  52  55
ATOM     55  NBH LY4 d   1      20.668  80.424  29.678  0.00  0.00    -0.076 N 
ATOM     56  H23 LY4 d   1      20.498  81.375  29.966  0.00  0.00     0.279 HD
BRANCH  55  57
ATOM     57  CBI LY4 d   1      19.406  79.690  29.482  0.00  0.00     0.066 C 
ATOM     58  H24 LY4 d   1      18.828  79.698  30.418  0.00  0.00     0.068 H 
ATOM     59  H25 LY4 d   1      19.627  78.651  29.196  0.00  0.00     0.068 H 
ATOM     60  H26 LY4 d   1      18.821  80.173  28.686  0.00  0.00     0.068 H 
ENDBRANCH  55  57
BRANCH  55  61
ATOM     61  CBJ LY4 d   1      21.358  79.660  30.750  0.00  0.00     0.066 C 
ATOM     62  H27 LY4 d   1      22.325  80.134  30.974  0.00  0.00     0.068 H 
ATOM     63  H28 LY4 d   1      21.525  78.626  30.414  0.00  0.00     0.068 H 
ATOM     64  H29 LY4 d   1      20.734  79.655  31.656  0.00  0.00     0.068 H 
ENDBRANCH  55  61
ENDBRANCH  52  55
ENDBRANCH  31  52
TORSDOF 4
