REMARK  6 active torsions:
REMARK  status: ('A' for Active; 'I' for Inactive)
REMARK    1  A    between atoms: NBC_2  and  CBD_1 
REMARK    2  A    between atoms: CBA_7  and  CBB_6 
REMARK    3  A    between atoms: CAY_8  and  CBA_7 
REMARK    4  A    between atoms: NAH_9  and  CAY_8 
REMARK    5  A    between atoms: CAG_17  and  CAI_18 
REMARK    6  A    between atoms: CAJ_24  and  CAK_25 
ROOT
ATOM      1  NAH BI2 d   1      19.768  86.753   5.482  0.00  0.00    -0.355 N 
ATOM      2  CAW BI2 d   1      20.592  87.729   5.122  0.00  0.00    -0.008 A 
ATOM      3  CAE BI2 d   1      18.513  87.127   5.379  0.00  0.00     0.045 A 
ATOM      4  CAF BI2 d   1      17.329  86.470   5.667  0.00  0.00    -0.056 A 
ATOM      5  CAA BI2 d   1      16.132  87.134   5.465  0.00  0.00    -0.081 A 
ATOM      6  CAB BI2 d   1      16.130  88.452   5.005  0.00  0.00    -0.082 A 
ATOM      7  CAC BI2 d   1      17.320  89.089   4.714  0.00  0.00    -0.070 A 
ATOM      8  CAD BI2 d   1      18.523  88.444   4.916  0.00  0.00     0.003 A 
ATOM      9  CAG BI2 d   1      19.868  88.784   4.743  0.00  0.00     0.009 A 
ATOM     10  H16 BI2 d   1      21.680  87.677   5.134  0.00  0.00     0.113 H 
ATOM     11  H17 BI2 d   1      17.340  85.454   6.044  0.00  0.00     0.087 H 
ATOM     12  H18 BI2 d   1      15.194  86.629   5.664  0.00  0.00     0.083 H 
ATOM     13  H19 BI2 d   1      15.191  88.977   4.876  0.00  0.00     0.083 H 
ATOM     14  H20 BI2 d   1      17.309  90.101   4.325  0.00  0.00     0.084 H 
ENDROOT
BRANCH   1  15
ATOM     15  CAY BI2 d   1      20.198  85.435   5.963  0.00  0.00     0.002 C 
ATOM     16  H14 BI2 d   1      20.457  85.498   7.030  0.00  0.00     0.065 H 
ATOM     17  H15 BI2 d   1      19.384  84.708   5.825  0.00  0.00     0.065 H 
BRANCH  15  18
ATOM     18  CBA BI2 d   1      21.402  85.001   5.175  0.00  0.00    -0.023 C 
ATOM     19  H12 BI2 d   1      22.082  85.860   5.079  0.00  0.00     0.038 H 
ATOM     20  H13 BI2 d   1      21.906  84.194   5.727  0.00  0.00     0.038 H 
BRANCH  18  21
ATOM     21  CBB BI2 d   1      21.063  84.487   3.761  0.00  0.00     0.105 C 
ATOM     22  CBE BI2 d   1      22.250  83.646   3.243  0.00  0.00    -0.037 C 
ATOM     23  CBF BI2 d   1      21.946  82.209   3.680  0.00  0.00    -0.040 C 
ATOM     24  H9  BI2 d   1      22.318  83.710   2.147  0.00  0.00     0.036 H 
ATOM     25  H10 BI2 d   1      23.193  83.994   3.690  0.00  0.00     0.036 H 
ATOM     26  CBG BI2 d   1      20.521  82.262   4.277  0.00  0.00     0.084 C 
ATOM     27  H7  BI2 d   1      21.978  81.528   2.817  0.00  0.00     0.035 H 
ATOM     28  H8  BI2 d   1      22.670  81.875   4.438  0.00  0.00     0.035 H 
ATOM     29  NBC BI2 d   1      19.945  83.508   3.707  0.00  0.00    -0.071 N 
ATOM     30  H5  BI2 d   1      20.558  82.314   5.375  0.00  0.00     0.076 H 
ATOM     31  H6  BI2 d   1      19.935  81.383   3.971  0.00  0.00     0.076 H 
ATOM     32  H4  BI2 d   1      19.718  83.344   2.739  0.00  0.00     0.279 HD
ATOM     33  H11 BI2 d   1      20.855  85.345   3.105  0.00  0.00     0.084 H 
BRANCH  29  34
ATOM     34  CBD BI2 d   1      18.689  83.928   4.363  0.00  0.00     0.067 C 
ATOM     35  H1  BI2 d   1      17.938  83.131   4.261  0.00  0.00     0.068 H 
ATOM     36  H2  BI2 d   1      18.316  84.847   3.887  0.00  0.00     0.068 H 
ATOM     37  H3  BI2 d   1      18.878  84.119   5.430  0.00  0.00     0.068 H 
ENDBRANCH  29  34
ENDBRANCH  18  21
ENDBRANCH  15  18
ENDBRANCH   1  15
BRANCH   9  38
ATOM     38  CAI BI2 d   1      20.409  90.033   4.352  0.00  0.00     0.061 A 
ATOM     39  CAT BI2 d   1      19.907  91.275   4.754  0.00  0.00     0.260 A 
ATOM     40  OAZ BI2 d   1      18.850  91.411   5.388  0.00  0.00    -0.267 OA
ATOM     41  NAU BI2 d   1      20.709  92.281   4.289  0.00  0.00    -0.289 N 
ATOM     42  CAV BI2 d   1      21.739  91.718   3.654  0.00  0.00     0.260 A 
ATOM     43  H21 BI2 d   1      20.552  93.262   4.404  0.00  0.00     0.172 HD
ATOM     44  OAX BI2 d   1      22.665  92.331   3.118  0.00  0.00    -0.267 OA
ATOM     45  CAJ BI2 d   1      21.620  90.318   3.678  0.00  0.00     0.061 A 
BRANCH  45  46
ATOM     46  CAK BI2 d   1      22.569  89.444   3.095  0.00  0.00     0.009 A 
ATOM     47  CAM BI2 d   1      22.348  88.227   2.439  0.00  0.00     0.003 A 
ATOM     48  CAP BI2 d   1      21.230  87.443   2.123  0.00  0.00    -0.070 A 
ATOM     49  CAN BI2 d   1      23.604  87.785   2.071  0.00  0.00     0.043 A 
ATOM     50  CAQ BI2 d   1      21.387  86.220   1.431  0.00  0.00    -0.082 A 
ATOM     51  H22 BI2 d   1      20.239  87.776   2.411  0.00  0.00     0.084 H 
ATOM     52  CAR BI2 d   1      22.662  85.786   1.081  0.00  0.00    -0.081 A 
ATOM     53  H23 BI2 d   1      20.519  85.624   1.175  0.00  0.00     0.083 H 
ATOM     54  CAS BI2 d   1      23.770  86.569   1.395  0.00  0.00    -0.056 A 
ATOM     55  H24 BI2 d   1      22.792  84.841   0.566  0.00  0.00     0.083 H 
ATOM     56  H25 BI2 d   1      24.763  86.237   1.116  0.00  0.00     0.086 H 
ATOM     57  NAO BI2 d   1      24.498  88.686   2.472  0.00  0.00    -0.364 N 
ATOM     58  CAL BI2 d   1      23.889  89.677   3.076  0.00  0.00    -0.011 A 
ATOM     59  H26 BI2 d   1      25.516  88.615   2.329  0.00  0.00     0.165 HD
ATOM     60  H27 BI2 d   1      24.379  90.554   3.497  0.00  0.00     0.112 H 
ENDBRANCH  45  46
ENDBRANCH   9  38
TORSDOF 6
