REMARK  8 active torsions:
REMARK  status: ('A' for Active; 'I' for Inactive)
REMARK    1  A    between atoms: NBC_2  and  CBD_1 
REMARK    2  A    between atoms: CBB_4  and  NBC_2 
REMARK    3  A    between atoms: NBC_2  and  CBE_3 
REMARK    4  A    between atoms: CBA_5  and  CBB_4 
REMARK    5  A    between atoms: CAY_6  and  CBA_5 
REMARK    6  A    between atoms: NAH_7  and  CAY_6 
REMARK    7  A    between atoms: CAG_15  and  CAI_16 
REMARK    8  A    between atoms: CAJ_22  and  CAK_23 
ROOT
ATOM      1  NAH BI1 d   1      24.345  79.975  26.479  0.00  0.00    -0.355 N 
ATOM      2  CAW BI1 d   1      25.627  80.029  26.854  0.00  0.00    -0.008 A 
ATOM      3  CAE BI1 d   1      23.838  78.750  26.607  0.00  0.00     0.045 A 
ATOM      4  CAF BI1 d   1      22.600  78.179  26.329  0.00  0.00    -0.056 A 
ATOM      5  CAA BI1 d   1      22.415  76.816  26.539  0.00  0.00    -0.081 A 
ATOM      6  CAB BI1 d   1      23.461  76.036  27.026  0.00  0.00    -0.082 A 
ATOM      7  CAC BI1 d   1      24.695  76.618  27.306  0.00  0.00    -0.070 A 
ATOM      8  CAD BI1 d   1      24.886  77.979  27.095  0.00  0.00     0.003 A 
ATOM      9  CAG BI1 d   1      25.991  78.806  27.239  0.00  0.00     0.009 A 
ATOM     10  H14 BI1 d   1      26.261  80.914  26.846  0.00  0.00     0.113 H 
ATOM     11  H15 BI1 d   1      21.788  78.790  25.953  0.00  0.00     0.087 H 
ATOM     12  H16 BI1 d   1      21.455  76.361  26.323  0.00  0.00     0.083 H 
ATOM     13  H17 BI1 d   1      23.314  74.974  27.187  0.00  0.00     0.083 H 
ATOM     14  H18 BI1 d   1      25.507  76.010  27.689  0.00  0.00     0.084 H 
ENDROOT
BRANCH   9  15
ATOM     15  CAI BI1 d   1      27.307  78.540  27.612  0.00  0.00     0.061 A 
ATOM     16  CAT BI1 d   1      28.014  77.401  27.233  0.00  0.00     0.260 A 
ATOM     17  OAZ BI1 d   1      27.604  76.438  26.591  0.00  0.00    -0.267 OA
ATOM     18  NAU BI1 d   1      29.257  77.583  27.677  0.00  0.00    -0.289 N 
ATOM     19  CAV BI1 d   1      29.433  78.740  28.314  0.00  0.00     0.260 A 
ATOM     20  H19 BI1 d   1      29.989  76.914  27.545  0.00  0.00     0.172 HD
ATOM     21  OAX BI1 d   1      30.481  79.168  28.791  0.00  0.00    -0.267 OA
ATOM     22  CAJ BI1 d   1      28.192  79.369  28.292  0.00  0.00     0.061 A 
BRANCH  22  23
ATOM     23  CAK BI1 d   1      27.916  80.588  28.910  0.00  0.00     0.009 A 
ATOM     24  CAM BI1 d   1      26.809  81.066  29.592  0.00  0.00     0.003 A 
ATOM     25  CAP BI1 d   1      25.564  80.518  29.890  0.00  0.00    -0.070 A 
ATOM     26  CAN BI1 d   1      27.106  82.355  30.010  0.00  0.00     0.043 A 
ATOM     27  CAQ BI1 d   1      24.627  81.267  30.596  0.00  0.00    -0.082 A 
ATOM     28  H20 BI1 d   1      25.325  79.510  29.573  0.00  0.00     0.084 H 
ATOM     29  CAR BI1 d   1      24.930  82.562  31.010  0.00  0.00    -0.081 A 
ATOM     30  H21 BI1 d   1      23.657  80.841  30.825  0.00  0.00     0.083 H 
ATOM     31  CAS BI1 d   1      26.175  83.110  30.719  0.00  0.00    -0.056 A 
ATOM     32  H22 BI1 d   1      24.197  83.142  31.558  0.00  0.00     0.083 H 
ATOM     33  H23 BI1 d   1      26.418  84.116  31.041  0.00  0.00     0.086 H 
ATOM     34  NAO BI1 d   1      28.346  82.594  29.583  0.00  0.00    -0.364 N 
ATOM     35  CAL BI1 d   1      28.843  81.543  28.925  0.00  0.00    -0.011 A 
ATOM     36  H24 BI1 d   1      28.855  83.475  29.740  0.00  0.00     0.165 HD
ATOM     37  H25 BI1 d   1      29.834  81.479  28.479  0.00  0.00     0.112 H 
ENDBRANCH  22  23
ENDBRANCH   9  15
BRANCH   1  38
ATOM     38  CAY BI1 d   1      23.599  81.101  25.894  0.00  0.00     0.001 C 
ATOM     39  H12 BI1 d   1      23.747  81.086  24.804  0.00  0.00     0.065 H 
ATOM     40  H13 BI1 d   1      22.531  80.965  26.121  0.00  0.00     0.065 H 
BRANCH  38  41
ATOM     41  CBA BI1 d   1      24.033  82.473  26.421  0.00  0.00    -0.027 C 
ATOM     42  H10 BI1 d   1      25.130  82.485  26.500  0.00  0.00     0.037 H 
ATOM     43  H11 BI1 d   1      23.709  83.241  25.703  0.00  0.00     0.037 H 
BRANCH  41  44
ATOM     44  CBB BI1 d   1      23.443  82.811  27.794  0.00  0.00     0.084 C 
ATOM     45  H8  BI1 d   1      24.005  83.660  28.211  0.00  0.00     0.076 H 
ATOM     46  H9  BI1 d   1      23.565  81.934  28.447  0.00  0.00     0.076 H 
BRANCH  44  47
ATOM     47  NBC BI1 d   1      22.013  83.172  27.767  0.00  0.00    -0.079 N 
ATOM     48  H4  BI1 d   1      22.100  84.149  28.000  0.00  0.00     0.278 HD
BRANCH  47  49
ATOM     49  CBE BI1 d   1      21.324  83.321  26.475  0.00  0.00     0.066 C 
ATOM     50  H5  BI1 d   1      22.043  83.654  25.712  0.00  0.00     0.068 H 
ATOM     51  H6  BI1 d   1      20.521  84.067  26.572  0.00  0.00     0.068 H 
ATOM     52  H7  BI1 d   1      20.893  82.354  26.176  0.00  0.00     0.068 H 
ENDBRANCH  47  49
BRANCH  47  53
ATOM     53  CBD BI1 d   1      21.211  82.732  28.917  0.00  0.00     0.066 C 
ATOM     54  H1  BI1 d   1      20.169  83.058  28.783  0.00  0.00     0.068 H 
ATOM     55  H2  BI1 d   1      21.618  83.174  29.838  0.00  0.00     0.068 H 
ATOM     56  H3  BI1 d   1      21.246  81.635  28.990  0.00  0.00     0.068 H 
ENDBRANCH  47  53
ENDBRANCH  44  47
ENDBRANCH  41  44
ENDBRANCH  38  41
ENDBRANCH   1  38
TORSDOF 8
