REMARK  6 active torsions:
REMARK  status: ('A' for Active; 'I' for Inactive)
REMARK    1  A    between atoms: CBB_2  and  NBC_1 
REMARK    2  A    between atoms: CBA_3  and  CBB_2 
REMARK    3  A    between atoms: CAY_4  and  CBA_3 
REMARK    4  A    between atoms: NAH_5  and  CAY_4 
REMARK    5  A    between atoms: CAG_13  and  CAI_14 
REMARK    6  A    between atoms: CAJ_20  and  CAK_21 
ROOT
ATOM      1  NAH BI3 d   1      24.113  79.360  26.606  0.00  0.00    -0.355 N 
ATOM      2  CAW BI3 d   1      25.365  79.531  27.037  0.00  0.00    -0.008 A 
ATOM      3  CAE BI3 d   1      23.719  78.090  26.704  0.00  0.00     0.045 A 
ATOM      4  CAF BI3 d   1      22.555  77.404  26.367  0.00  0.00    -0.056 A 
ATOM      5  CAA BI3 d   1      22.496  76.024  26.539  0.00  0.00    -0.081 A 
ATOM      6  CAB BI3 d   1      23.595  75.340  27.054  0.00  0.00    -0.082 A 
ATOM      7  CAC BI3 d   1      24.749  76.037  27.400  0.00  0.00    -0.070 A 
ATOM      8  CAD BI3 d   1      24.818  77.417  27.224  0.00  0.00     0.003 A 
ATOM      9  CAG BI3 d   1      25.830  78.343  27.425  0.00  0.00     0.009 A 
ATOM     10  H10 BI3 d   1      25.910  80.474  27.067  0.00  0.00     0.113 H 
ATOM     11  H11 BI3 d   1      21.700  77.941  25.973  0.00  0.00     0.087 H 
ATOM     12  H12 BI3 d   1      21.596  75.482  26.273  0.00  0.00     0.083 H 
ATOM     13  H13 BI3 d   1      23.551  74.265  27.185  0.00  0.00     0.083 H 
ATOM     14  H14 BI3 d   1      25.599  75.503  27.809  0.00  0.00     0.084 H 
ENDROOT
BRANCH   9  15
ATOM     15  CAI BI3 d   1      27.179  78.179  27.746  0.00  0.00     0.061 A 
ATOM     16  CAT BI3 d   1      27.950  77.116  27.284  0.00  0.00     0.260 A 
ATOM     17  OAZ BI3 d   1      27.576  76.155  26.615  0.00  0.00    -0.267 OA
ATOM     18  NAU BI3 d   1      29.197  77.360  27.683  0.00  0.00    -0.289 N 
ATOM     19  CAV BI3 d   1      29.316  78.495  28.372  0.00  0.00     0.260 A 
ATOM     20  H15 BI3 d   1      29.967  76.753  27.486  0.00  0.00     0.172 HD
ATOM     21  OAX BI3 d   1      30.357  78.972  28.825  0.00  0.00    -0.267 OA
ATOM     22  CAJ BI3 d   1      28.034  79.035  28.434  0.00  0.00     0.061 A 
BRANCH  22  23
ATOM     23  CAK BI3 d   1      27.726  80.217  29.111  0.00  0.00     0.009 A 
ATOM     24  CAM BI3 d   1      26.563  80.720  29.678  0.00  0.00     0.003 A 
ATOM     25  CAP BI3 d   1      25.322  80.159  29.971  0.00  0.00    -0.070 A 
ATOM     26  CAN BI3 d   1      26.784  82.061  29.971  0.00  0.00     0.043 A 
ATOM     27  CAQ BI3 d   1      24.318  80.939  30.539  0.00  0.00    -0.082 A 
ATOM     28  H16 BI3 d   1      25.137  79.113  29.756  0.00  0.00     0.084 H 
ATOM     29  CAR BI3 d   1      24.546  82.284  30.820  0.00  0.00    -0.081 A 
ATOM     30  H17 BI3 d   1      23.354  80.497  30.764  0.00  0.00     0.083 H 
ATOM     31  CAS BI3 d   1      25.786  82.849  30.536  0.00  0.00    -0.056 A 
ATOM     32  H18 BI3 d   1      23.760  82.889  31.258  0.00  0.00     0.083 H 
ATOM     33  H19 BI3 d   1      25.973  83.894  30.753  0.00  0.00     0.086 H 
ATOM     34  NAO BI3 d   1      28.040  82.306  29.594  0.00  0.00    -0.364 N 
ATOM     35  CAL BI3 d   1      28.610  81.213  29.080  0.00  0.00    -0.011 A 
ATOM     36  H20 BI3 d   1      28.509  83.218  29.687  0.00  0.00     0.165 HD
ATOM     37  H21 BI3 d   1      29.628  81.147  28.699  0.00  0.00     0.112 H 
ENDBRANCH  22  23
ENDBRANCH   9  15
BRANCH   1  38
ATOM     38  CAY BI3 d   1      23.328  80.394  25.912  0.00  0.00     0.001 C 
ATOM     39  H8  BI3 d   1      24.020  81.010  25.320  0.00  0.00     0.065 H 
ATOM     40  H9  BI3 d   1      22.617  79.892  25.240  0.00  0.00     0.065 H 
BRANCH  38  41
ATOM     41  CBA BI3 d   1      22.536  81.321  26.839  0.00  0.00    -0.028 C 
ATOM     42  H6  BI3 d   1      21.786  81.862  26.244  0.00  0.00     0.037 H 
ATOM     43  H7  BI3 d   1      22.029  80.712  27.602  0.00  0.00     0.037 H 
BRANCH  41  44
ATOM     44  CBB BI3 d   1      23.440  82.339  27.539  0.00  0.00     0.081 C 
ATOM     45  H4  BI3 d   1      24.087  82.826  26.794  0.00  0.00     0.075 H 
ATOM     46  H5  BI3 d   1      24.063  81.823  28.284  0.00  0.00     0.075 H 
BRANCH  44  47
ATOM     47  NBC BI3 d   1      22.616  83.356  28.211  0.00  0.00    -0.079 N 
ATOM     48  H1  BI3 d   1      23.215  84.024  28.670  0.00  0.00     0.274 HD
ATOM     49  H2  BI3 d   1      22.023  82.911  28.894  0.00  0.00     0.274 HD
ATOM     50  H3  BI3 d   1      22.045  83.830  27.529  0.00  0.00     0.274 HD
ENDBRANCH  44  47
ENDBRANCH  41  44
ENDBRANCH  38  41
ENDBRANCH   1  38
TORSDOF 6
