REMARK  1 active torsions:
REMARK  status: ('A' for Active; 'I' for Inactive)
REMARK    1  A    between atoms: N24_20  and  O39_21 
ROOT
ATOM      1  C1  BRW d   1      94.405  70.408   9.094  0.00  0.00     0.024 A 
ATOM      2  C2  BRW d   1      93.677  69.251   9.602  0.00  0.00     0.124 A 
ATOM      3  C3  BRW d   1      95.808  69.982   8.983  0.00  0.00     0.045 A 
ATOM      4  N4  BRW d   1      95.911  68.670   9.422  0.00  0.00    -0.353 N 
ATOM      5  C5  BRW d   1      96.774  70.813   8.520  0.00  0.00    -0.056 A 
ATOM      6  C7  BRW d   1      96.378  72.190   8.095  0.00  0.00    -0.081 A 
ATOM      7  C9  BRW d   1      95.075  72.591   8.194  0.00  0.00    -0.082 A 
ATOM      8  C11 BRW d   1      94.026  71.665   8.717  0.00  0.00    -0.068 A 
ATOM      9  C13 BRW d   1      94.633  68.168   9.788  0.00  0.00     0.081 A 
ATOM     10  C14 BRW d   1      94.491  66.914  10.166  0.00  0.00     0.073 A 
ATOM     11  C15 BRW d   1      95.643  65.996  10.351  0.00  0.00     0.259 A 
ATOM     12  N16 BRW d   1      95.164  64.712  10.730  0.00  0.00    -0.322 N 
ATOM     13  C17 BRW d   1      93.774  64.793  10.747  0.00  0.00     0.047 A 
ATOM     14  C18 BRW d   1      93.330  66.063  10.474  0.00  0.00     0.009 A 
ATOM     15  C19 BRW d   1      92.846  63.680  11.024  0.00  0.00    -0.040 A 
ATOM     16  C20 BRW d   1      91.507  63.922  10.967  0.00  0.00     0.013 A 
ATOM     17  C21 BRW d   1      91.028  65.280  10.691  0.00  0.00    -0.065 A 
ATOM     18  C22 BRW d   1      91.882  66.290  10.440  0.00  0.00    -0.069 A 
ATOM     19  O23 BRW d   1      96.836  66.277  10.201  0.00  0.00    -0.267 OA
ATOM     20  N24 BRW d   1      92.440  69.155   9.870  0.00  0.00    -0.133 NA
ATOM     21 BR21 BRW d   1      90.240  62.548  11.200  0.00  0.00    -0.051 Br
ATOM     22  H1  BRW d   1      96.790  68.135   9.475  0.00  0.00     0.166 HD
ATOM     23  H2  BRW d   1      97.806  70.487   8.460  0.00  0.00     0.086 H 
ATOM     24  H3  BRW d   1      97.126  72.872   7.707  0.00  0.00     0.083 H 
ATOM     25  H4  BRW d   1      94.799  73.594   7.889  0.00  0.00     0.083 H 
ATOM     26  H5  BRW d   1      92.992  71.982   8.795  0.00  0.00     0.085 H 
ATOM     27  H6  BRW d   1      95.718  63.907  10.943  0.00  0.00     0.169 HD
ATOM     28  H7  BRW d   1      93.221  62.693  11.267  0.00  0.00     0.089 H 
ATOM     29  H8  BRW d   1      89.962  65.475  10.689  0.00  0.00     0.085 H 
ATOM     30  H9  BRW d   1      91.497  67.277  10.211  0.00  0.00     0.085 H 
ENDROOT
BRANCH  20  31
ATOM     31  O39 BRW d   1      91.456  70.023   9.782  0.00  0.00    -0.266 OA
ATOM     32  H10 BRW d   1      91.366  70.308   8.880  0.00  0.00     0.247 HD
ENDBRANCH  20  31
TORSDOF 1
