REMARK  9 active torsions:
REMARK  status: ('A' for Active; 'I' for Inactive)
REMARK    1  A    between atoms: C3_3  and  S19_7 
REMARK    2  A    between atoms: S19_7  and  N20_10 
REMARK    3  A    between atoms: N20_10  and  C21_11 
REMARK    4  A    between atoms: C21_11  and  C22_12 
REMARK       I    between atoms: C22_12  and  N23_14 
REMARK    5  A    between atoms: N23_14  and  C24_15 
REMARK    6  A    between atoms: C24_15  and  C25_16 
REMARK    7  A    between atoms: C24_15  and  C34_25 
REMARK    8  A    between atoms: C25_16  and  C26_17 
REMARK    9  A    between atoms: C26_17  and  N27_18 
REMARK       I    between atoms: C34_25  and  N35_27 
ROOT
ATOM      1  C24 I11 d   1     -13.332  66.672 172.191  0.00  0.00     0.091 C 
ATOM      2  H16 I11 d   1     -13.347  67.769 172.118  0.00  0.00     0.087 H 
ENDROOT
BRANCH   1   3
ATOM      3  N23 I11 d   1     -14.070  66.296 173.386  0.00  0.00    -0.346 N 
ATOM      4  C22 I11 d   1     -14.744  67.267 174.037  0.00  0.00     0.236 C 
ATOM      5  O42 I11 d   1     -14.666  68.463 173.734  0.00  0.00    -0.272 OA
ATOM      6  H15 I11 d   1     -14.078  65.351 173.714  0.00  0.00     0.163 HD
BRANCH   4   7
ATOM      7  C21 I11 d   1     -15.604  66.948 175.188  0.00  0.00     0.076 C 
ATOM      8  H13 I11 d   1     -16.436  66.330 174.819  0.00  0.00     0.079 H 
ATOM      9  H14 I11 d   1     -15.002  66.365 175.900  0.00  0.00     0.079 H 
BRANCH   7  10
ATOM     10  N20 I11 d   1     -16.132  67.978 175.856  0.00  0.00    -0.310 N 
ATOM     11  H12 I11 d   1     -16.614  68.720 175.390  0.00  0.00     0.172 HD
BRANCH  10  12
ATOM     12  S19 I11 d   1     -15.943  67.952 177.486  0.00  0.00     0.231 S 
ATOM     13  O43 I11 d   1     -17.243  68.266 178.036  0.00  0.00    -0.206 OA
ATOM     14  O44 I11 d   1     -15.569  66.647 177.962  0.00  0.00    -0.206 OA
BRANCH  12  15
ATOM     15  C3  I11 d   1     -14.689  69.066 178.191  0.00  0.00     0.063 C 
ATOM     16  C2  I11 d   1     -15.258  70.490 178.327  0.00  0.00    -0.047 C 
ATOM     17  C1  I11 d   1     -14.218  71.398 179.032  0.00  0.00    -0.064 C 
ATOM     18  H3  I11 d   1     -15.479  70.893 177.328  0.00  0.00     0.035 H 
ATOM     19  H4  I11 d   1     -16.182  70.460 178.923  0.00  0.00     0.035 H 
ATOM     20  C6  I11 d   1     -12.888  71.399 178.265  0.00  0.00    -0.065 C 
ATOM     21  H1  I11 d   1     -14.046  71.025 180.052  0.00  0.00     0.033 H 
ATOM     22  H2  I11 d   1     -14.608  72.425 179.078  0.00  0.00     0.033 H 
ATOM     23  C5  I11 d   1     -12.369  69.955 178.072  0.00  0.00    -0.064 C 
ATOM     24  H10 I11 d   1     -12.144  71.978 178.832  0.00  0.00     0.033 H 
ATOM     25  H11 I11 d   1     -13.040  71.863 177.279  0.00  0.00     0.033 H 
ATOM     26  C4  I11 d   1     -13.411  69.090 177.334  0.00  0.00    -0.047 C 
ATOM     27  H8  I11 d   1     -11.441  69.982 177.483  0.00  0.00     0.033 H 
ATOM     28  H9  I11 d   1     -12.165  69.511 179.058  0.00  0.00     0.033 H 
ATOM     29  H6  I11 d   1     -13.629  69.526 176.348  0.00  0.00     0.035 H 
ATOM     30  H7  I11 d   1     -13.026  68.067 177.206  0.00  0.00     0.035 H 
ATOM     31  H5  I11 d   1     -14.426  68.697 179.193  0.00  0.00     0.066 H 
ENDBRANCH  12  15
ENDBRANCH  10  12
ENDBRANCH   7  10
ENDBRANCH   4   7
ENDBRANCH   1   3
BRANCH   1  32
ATOM     32  C25 I11 d   1     -14.064  66.105 170.950  0.00  0.00    -0.023 C 
ATOM     33  H17 I11 d   1     -15.133  66.002 171.187  0.00  0.00     0.039 H 
ATOM     34  H18 I11 d   1     -13.644  65.116 170.713  0.00  0.00     0.039 H 
BRANCH  32  35
ATOM     35  C26 I11 d   1     -13.915  67.019 169.709  0.00  0.00    -0.005 C 
ATOM     36  H19 I11 d   1     -14.442  66.544 168.868  0.00  0.00     0.064 H 
ATOM     37  H20 I11 d   1     -12.844  67.102 169.471  0.00  0.00     0.064 H 
BRANCH  35  38
ATOM     38  N27 I11 d   1     -14.451  68.370 169.878  0.00  0.00    -0.390 N 
ATOM     39  C28 I11 d   1     -15.670  68.685 169.483  0.00  0.00     0.030 C 
ATOM     40  C29 I11 d   1     -16.789  67.914 169.815  0.00  0.00    -0.041 C 
ATOM     41  C33 I11 d   1     -15.932  69.952 168.776  0.00  0.00    -0.041 C 
ATOM     42  C30 I11 d   1     -18.046  68.272 169.288  0.00  0.00     0.004 C 
ATOM     43  H22 I11 d   1     -16.691  67.054 170.468  0.00  0.00     0.089 H 
ATOM     44  N31 I11 d   1     -18.201  69.307 168.493  0.00  0.00    -0.273 NA
ATOM     45  H23 I11 d   1     -18.913  67.675 169.547  0.00  0.00     0.114 H 
ATOM     46  C32 I11 d   1     -17.251  70.221 168.385  0.00  0.00     0.004 C 
ATOM     47  H24 I11 d   1     -17.497  71.198 167.986  0.00  0.00     0.114 H 
ATOM     48  H25 I11 d   1     -15.132  70.652 168.566  0.00  0.00     0.089 H 
ATOM     49  H21 I11 d   1     -13.862  69.093 170.316  0.00  0.00     0.159 HD
ENDBRANCH  35  38
ENDBRANCH  32  35
ENDBRANCH   1  32
BRANCH   1  50
ATOM     50  C34 I11 d   1     -11.872  66.247 172.253  0.00  0.00     0.242 C 
ATOM     51  O41 I11 d   1     -11.494  65.233 171.678  0.00  0.00    -0.271 OA
ATOM     52  N35 I11 d   1     -11.046  66.906 173.106  0.00  0.00    -0.350 N 
ATOM     53  C36 I11 d   1     -11.036  68.367 173.100  0.00  0.00    -0.002 C 
ATOM     54  C40 I11 d   1     -10.247  66.127 174.053  0.00  0.00    -0.002 C 
ATOM     55  C37 I11 d   1     -10.968  68.851 174.572  0.00  0.00    -0.050 C 
ATOM     56  H26 I11 d   1     -11.953  68.745 172.625  0.00  0.00     0.064 H 
ATOM     57  H27 I11 d   1     -10.159  68.732 172.546  0.00  0.00     0.064 H 
ATOM     58  C38 I11 d   1      -9.843  68.198 175.421  0.00  0.00    -0.062 C 
ATOM     59  H28 I11 d   1     -11.932  68.626 175.051  0.00  0.00     0.035 H 
ATOM     60  H29 I11 d   1     -10.806  69.939 174.567  0.00  0.00     0.035 H 
ATOM     61  C39 I11 d   1      -9.166  67.012 174.704  0.00  0.00    -0.050 C 
ATOM     62  H30 I11 d   1     -10.279  67.836 176.364  0.00  0.00     0.033 H 
ATOM     63  H31 I11 d   1      -9.080  68.960 175.638  0.00  0.00     0.033 H 
ATOM     64  H32 I11 d   1      -8.595  66.418 175.434  0.00  0.00     0.035 H 
ATOM     65  H33 I11 d   1      -8.485  67.392 173.928  0.00  0.00     0.035 H 
ATOM     66  H34 I11 d   1      -9.762  65.296 173.520  0.00  0.00     0.064 H 
ATOM     67  H35 I11 d   1     -10.905  65.725 174.837  0.00  0.00     0.064 H 
ENDBRANCH   1  50
TORSDOF 9
