REMARK  8 active torsions:
REMARK  status: ('A' for Active; 'I' for Inactive)
REMARK    1  A    between atoms: CZ_1  and  NZ1_2 
REMARK    2  A    between atoms: CZ_1  and  C11_4 
REMARK    3  A    between atoms: C15_8  and  CA1_14 
REMARK    4  A    between atoms: CA1_14  and  CA2_15 
REMARK    5  A    between atoms: CA2_15  and  CA3_16 
REMARK    6  A    between atoms: CA3_16  and  OA4_18 
REMARK    7  A    between atoms: OA4_18  and  CA5_19 
REMARK    8  A    between atoms: CA5_19  and  CA6_20 
ROOT
ATOM      1  C11 DCH d   1     -39.195 -31.115  40.950  0.00  0.00     0.008 A 
ATOM      2  C12 DCH d   1     -38.337 -31.620  41.903  0.00  0.00    -0.059 A 
ATOM      3  C13 DCH d   1     -37.125 -30.965  42.109  0.00  0.00    -0.025 A 
ATOM      4  C14 DCH d   1     -36.289 -31.502  43.077  0.00  0.00    -0.066 A 
ATOM      5  C15 DCH d   1     -35.050 -30.921  43.351  0.00  0.00    -0.057 A 
ATOM      6  C16 DCH d   1     -34.668 -29.742  42.654  0.00  0.00    -0.076 A 
ATOM      7  C17 DCH d   1     -35.510 -29.172  41.678  0.00  0.00    -0.072 A 
ATOM      8  C18 DCH d   1     -36.745 -29.783  41.398  0.00  0.00    -0.026 A 
ATOM      9  C19 DCH d   1     -37.596 -29.259  40.437  0.00  0.00    -0.071 A 
ATOM     10  C1A DCH d   1     -38.812 -29.943  40.220  0.00  0.00    -0.069 A 
ATOM     11  H5  DCH d   1     -38.598 -32.502  42.476  0.00  0.00     0.086 H 
ATOM     12  H6  DCH d   1     -36.602 -32.383  43.627  0.00  0.00     0.085 H 
ATOM     13  H7  DCH d   1     -33.715 -29.275  42.877  0.00  0.00     0.084 H 
ATOM     14  H8  DCH d   1     -35.209 -28.274  41.150  0.00  0.00     0.084 H 
ATOM     15  H9  DCH d   1     -37.340 -28.366  39.878  0.00  0.00     0.084 H 
ATOM     16  H10 DCH d   1     -39.489 -29.563  39.464  0.00  0.00     0.085 H 
ENDROOT
BRANCH   5  17
ATOM     17  CA1 DCH d   1     -34.234 -31.586  44.464  0.00  0.00    -0.033 C 
ATOM     18  H11 DCH d   1     -33.165 -31.362  44.335  0.00  0.00     0.040 H 
ATOM     19  H12 DCH d   1     -34.385 -32.675  44.445  0.00  0.00     0.040 H 
BRANCH  17  20
ATOM     20  CA2 DCH d   1     -34.748 -30.995  45.820  0.00  0.00     0.019 C 
ATOM     21  H13 DCH d   1     -34.122 -31.401  46.629  0.00  0.00     0.048 H 
ATOM     22  H14 DCH d   1     -35.789 -31.321  45.963  0.00  0.00     0.048 H 
BRANCH  20  23
ATOM     23  CA3 DCH d   1     -34.711 -29.435  45.913  0.00  0.00     0.259 C 
ATOM     24  OA3 DCH d   1     -35.552 -28.883  46.622  0.00  0.00    -0.265 OA
BRANCH  23  25
ATOM     25  OA4 DCH d   1     -33.745 -28.732  45.184  0.00  0.00    -0.322 OA
BRANCH  25  26
ATOM     26  CA5 DCH d   1     -33.166 -27.469  45.741  0.00  0.00     0.025 C 
ATOM     27  H15 DCH d   1     -32.378 -27.666  46.483  0.00  0.00     0.074 H 
ATOM     28  H16 DCH d   1     -33.935 -26.821  46.186  0.00  0.00     0.074 H 
BRANCH  26  29
ATOM     29  CA6 DCH d   1     -32.591 -26.875  44.414  0.00  0.00    -0.056 C 
ATOM     30  H17 DCH d   1     -32.107 -25.910  44.624  0.00  0.00     0.030 H 
ATOM     31  H18 DCH d   1     -33.409 -26.726  43.694  0.00  0.00     0.030 H 
ATOM     32  H19 DCH d   1     -31.852 -27.571  43.991  0.00  0.00     0.030 H 
ENDBRANCH  26  29
ENDBRANCH  25  26
ENDBRANCH  23  25
ENDBRANCH  20  23
ENDBRANCH  17  20
ENDBRANCH   5  17
BRANCH   1  33
ATOM     33  CZ  DCH d   1     -40.513 -31.794  40.699  0.00  0.00     0.102 C 
ATOM     34  NZ2 DCH d   1     -40.645 -33.104  40.716  0.00  0.00    -0.385 N 
ATOM     35  H3  DCH d   1     -39.831 -33.701  40.921  0.00  0.00     0.157 HD
ATOM     36  H4  DCH d   1     -41.562 -33.532  40.525  0.00  0.00     0.157 HD
BRANCH  33  37
ATOM     37  NZ1 DCH d   1     -41.466 -30.913  40.453  0.00  0.00    -0.385 N 
ATOM     38  H1  DCH d   1     -41.252 -29.906  40.465  0.00  0.00     0.157 HD
ATOM     39  H2  DCH d   1     -42.423 -31.233  40.249  0.00  0.00     0.157 HD
ENDBRANCH  33  37
ENDBRANCH   1  33
TORSDOF 8
