REMARK  5 active torsions:
REMARK  status: ('A' for Active; 'I' for Inactive)
REMARK    1  A    between atoms: C5_8  and  C11_16 
REMARK    2  A    between atoms: N6_9  and  C12_17 
REMARK    3  A    between atoms: C12_17  and  C13_18 
REMARK    4  A    between atoms: C14_19  and  C15_20 
REMARK    5  A    between atoms: C14_19  and  C16_21 
ROOT
ATOM      1  N1  TBO d   1     141.497 -25.398  71.596  0.00  0.00    -0.331 N 
ATOM      2  C1A TBO d   1     142.104 -25.844  72.816  0.00  0.00     0.062 A 
ATOM      3  C2  TBO d   1     142.455 -24.572  70.931  0.00  0.00     0.179 A 
ATOM      4  S2  TBO d   1     142.255 -23.796  69.435  0.00  0.00    -0.040 SA
ATOM      5  N3  TBO d   1     143.612 -24.561  71.712  0.00  0.00    -0.319 N 
ATOM      6  C3A TBO d   1     143.327 -25.303  72.847  0.00  0.00     0.073 A 
ATOM      7  C4  TBO d   1     144.814 -23.942  71.226  0.00  0.00     0.029 C 
ATOM      8  C5  TBO d   1     145.498 -23.034  72.184  0.00  0.00     0.117 C 
ATOM      9  N6  TBO d   1     145.436 -23.342  73.597  0.00  0.00    -0.059 N 
ATOM     10  C7  TBO d   1     145.575 -24.742  73.876  0.00  0.00     0.112 C 
ATOM     11  C7A TBO d   1     144.236 -25.403  73.908  0.00  0.00     0.018 A 
ATOM     12  C8  TBO d   1     143.845 -26.199  75.033  0.00  0.00     0.044 A 
ATOM     13 CL8  TBO d   1     144.878 -26.346  76.426  0.00  0.00    -0.084 Cl
ATOM     14  C9  TBO d   1     142.587 -26.837  75.038  0.00  0.00    -0.059 A 
ATOM     15  C10 TBO d   1     141.709 -26.663  73.897  0.00  0.00    -0.053 A 
ATOM     16  H1  TBO d   1     140.578 -25.622  71.272  0.00  0.00     0.168 HD
ATOM     17  H2  TBO d   1     144.556 -23.358  70.330  0.00  0.00     0.068 H 
ATOM     18  H3  TBO d   1     145.520 -24.740  70.953  0.00  0.00     0.068 H 
ATOM     19  H4  TBO d   1     145.187 -21.992  72.015  0.00  0.00     0.086 H 
ATOM     20  H5  TBO d   1     144.442 -23.246  73.731  0.00  0.00     0.281 HD
ATOM     21  H6  TBO d   1     146.065 -24.870  74.852  0.00  0.00     0.083 H 
ATOM     22  H7  TBO d   1     146.190 -25.208  73.093  0.00  0.00     0.083 H 
ATOM     23  H8  TBO d   1     142.282 -27.447  75.880  0.00  0.00     0.086 H 
ATOM     24  H9  TBO d   1     140.747 -27.163  73.874  0.00  0.00     0.087 H 
ENDROOT
BRANCH   9  25
ATOM     25  C12 TBO d   1     145.880 -22.350  74.652  0.00  0.00     0.100 C 
ATOM     26  H13 TBO d   1     146.202 -21.422  74.156  0.00  0.00     0.082 H 
ATOM     27  H14 TBO d   1     146.725 -22.779  75.212  0.00  0.00     0.082 H 
BRANCH  25  28
ATOM     28  C13 TBO d   1     144.759 -22.025  75.625  0.00  0.00    -0.077 C 
ATOM     29  C14 TBO d   1     144.782 -21.446  76.815  0.00  0.00    -0.090 C 
ATOM     30  H15 TBO d   1     143.767 -22.319  75.285  0.00  0.00     0.079 H 
BRANCH  29  31
ATOM     31  C15 TBO d   1     143.378 -21.415  77.286  0.00  0.00    -0.055 C 
ATOM     32  H16 TBO d   1     143.334 -20.941  78.278  0.00  0.00     0.033 H 
ATOM     33  H17 TBO d   1     142.991 -22.442  77.353  0.00  0.00     0.033 H 
ATOM     34  H18 TBO d   1     142.766 -20.838  76.577  0.00  0.00     0.033 H 
ENDBRANCH  29  31
BRANCH  29  35
ATOM     35  C16 TBO d   1     146.053 -20.963  77.459  0.00  0.00    -0.055 C 
ATOM     36  H19 TBO d   1     146.903 -21.165  76.790  0.00  0.00     0.033 H 
ATOM     37  H20 TBO d   1     146.204 -21.490  78.413  0.00  0.00     0.033 H 
ATOM     38  H21 TBO d   1     145.982 -19.881  77.645  0.00  0.00     0.033 H 
ENDBRANCH  29  35
ENDBRANCH  25  28
ENDBRANCH   9  25
BRANCH   8  39
ATOM     39  C11 TBO d   1     146.901 -23.296  71.833  0.00  0.00    -0.048 C 
ATOM     40  H10 TBO d   1     147.056 -23.089  70.764  0.00  0.00     0.030 H 
ATOM     41  H11 TBO d   1     147.141 -24.349  72.041  0.00  0.00     0.030 H 
ATOM     42  H12 TBO d   1     147.556 -22.646  72.431  0.00  0.00     0.030 H 
ENDBRANCH   8  39
TORSDOF 5
