REMARK  9 active torsions:
REMARK  status: ('A' for Active; 'I' for Inactive)
REMARK    1  A    between atoms: O4A_1  and  C1B_2 
REMARK    2  A    between atoms: O4A_1  and  C1B_3 
REMARK    3  A    between atoms: C2B_4  and  O2B_8 
REMARK    4  A    between atoms: C3B_5  and  O3B_9 
REMARK    5  A    between atoms: C4B_6  and  O4B_10 
REMARK    6  A    between atoms: O4B_10  and  C1B_12 
REMARK    7  A    between atoms: C2B_13  and  O2B_17 
REMARK    8  A    between atoms: C3B_14  and  O3B_18 
REMARK    9  A    between atoms: C4B_15  and  O4B_19 
ROOT
ATOM      1  C1B NON d   1       8.376  18.544 -10.049  0.00  0.00     0.157 C 
ATOM      2  C2B NON d   1       7.234  18.517  -9.046  0.00  0.00     0.110 C 
ATOM      3  C3B NON d   1       6.085  17.632  -9.530  0.00  0.00     0.092 C 
ATOM      4  C4B NON d   1       5.658  18.006 -10.942  0.00  0.00     0.089 C 
ATOM      5  C5B NON d   1       6.911  17.999 -11.807  0.00  0.00     0.049 C 
ATOM      6  O5B NON d   1       7.858  18.891 -11.255  0.00  0.00    -0.356 OA
ATOM      7  H4  NON d   1       8.832  17.545 -10.121  0.00  0.00     0.133 H 
ATOM      8  H5  NON d   1       6.847  19.544  -8.976  0.00  0.00     0.094 H 
ATOM      9  H6  NON d   1       6.424  16.585  -9.531  0.00  0.00     0.091 H 
ATOM     10  H7  NON d   1       5.213  19.012 -10.940  0.00  0.00     0.090 H 
ATOM     11  H8  NON d   1       6.656  18.318 -12.828  0.00  0.00     0.078 H 
ATOM     12  H9  NON d   1       7.334  16.984 -11.835  0.00  0.00     0.078 H 
ENDROOT
BRANCH   4  13
ATOM     13  O4B NON d   1       4.709  17.083 -11.441  0.00  0.00    -0.348 OA
BRANCH  13  14
ATOM     14  C1B NON d   1       3.656  17.665 -12.223  0.00  0.00     0.158 C 
ATOM     15  C2B NON d   1       3.121  16.564 -13.095  0.00  0.00     0.110 C 
ATOM     16  C3B NON d   1       1.873  16.981 -13.877  0.00  0.00     0.091 C 
ATOM     17  H13 NON d   1       2.837  15.723 -12.445  0.00  0.00     0.094 H 
ATOM     18  C4B NON d   1       0.855  17.627 -12.925  0.00  0.00     0.083 C 
ATOM     19  H14 NON d   1       2.155  17.719 -14.643  0.00  0.00     0.091 H 
ATOM     20  C5B NON d   1       1.572  18.686 -12.111  0.00  0.00     0.049 C 
ATOM     21  H15 NON d   1       0.462  16.845 -12.258  0.00  0.00     0.090 H 
ATOM     22  O5B NON d   1       2.648  18.099 -11.426  0.00  0.00    -0.356 OA
ATOM     23  H16 NON d   1       0.873  19.128 -11.386  0.00  0.00     0.078 H 
ATOM     24  H17 NON d   1       1.949  19.472 -12.782  0.00  0.00     0.078 H 
ATOM     25  H12 NON d   1       4.043  18.497 -12.830  0.00  0.00     0.133 H 
BRANCH  15  26
ATOM     26  O2B NON d   1       4.153  16.129 -13.955  0.00  0.00    -0.388 OA
ATOM     27  H18 NON d   1       4.910  15.879 -13.438  0.00  0.00     0.210 HD
ENDBRANCH  15  26
BRANCH  16  28
ATOM     28  O3B NON d   1       1.335  15.834 -14.521  0.00  0.00    -0.390 OA
ATOM     29  H19 NON d   1       1.989  15.461 -15.100  0.00  0.00     0.210 HD
ENDBRANCH  16  28
BRANCH  18  30
ATOM     30  O4B NON d   1      -0.237  18.266 -13.560  0.00  0.00    -0.391 OA
ATOM     31  H20 NON d   1       0.087  18.961 -14.121  0.00  0.00     0.210 HD
ENDBRANCH  18  30
ENDBRANCH  13  14
ENDBRANCH   4  13
BRANCH   3  32
ATOM     32  O3B NON d   1       4.984  17.758  -8.646  0.00  0.00    -0.390 OA
ATOM     33  H11 NON d   1       4.286  17.179  -8.927  0.00  0.00     0.210 HD
ENDBRANCH   3  32
BRANCH   2  34
ATOM     34  O2B NON d   1       7.649  18.144  -7.745  0.00  0.00    -0.388 OA
ATOM     35  H10 NON d   1       8.362  18.707  -7.468  0.00  0.00     0.210 HD
ENDBRANCH   2  34
BRANCH   1  36
ATOM     36  O4A NON d   1       9.379  19.489  -9.613  0.00  0.00    -0.363 OA
BRANCH  36  37
ATOM     37  C1B NON d   1      10.662  18.913  -9.402  0.00  0.00     0.007 C 
ATOM     38  H1  NON d   1      11.365  19.693  -9.074  0.00  0.00     0.066 H 
ATOM     39  H2  NON d   1      11.022  18.466 -10.341  0.00  0.00     0.066 H 
ATOM     40  H3  NON d   1      10.591  18.134  -8.629  0.00  0.00     0.066 H 
ENDBRANCH  36  37
ENDBRANCH   1  36
TORSDOF 9
