REMARK  17 active torsions:
REMARK  status: ('A' for Active; 'I' for Inactive)
REMARK    1  A    between atoms: C2_2  and  C1_1 
REMARK    2  A    between atoms: O3_29  and  C2_2 
REMARK    3  A    between atoms: C4_4  and  O4_15 
REMARK    4  A    between atoms: C5_5  and  N5_12 
REMARK    5  A    between atoms: C6_6  and  C7_7 
REMARK    6  A    between atoms: C7_7  and  C8_8 
REMARK    7  A    between atoms: C7_7  and  O7_17 
REMARK    8  A    between atoms: C8_8  and  C9_9 
REMARK    9  A    between atoms: C8_8  and  O8_18 
REMARK   10  A    between atoms: C9_9  and  O9_19 
REMARK   11  A    between atoms: C10_10  and  C11_11 
REMARK       I    between atoms: N5_12  and  C10_10 
REMARK   12  A    between atoms: C1_21  and  O1_27 
REMARK   13  A    between atoms: C2_22  and  O2_28 
REMARK   14  A    between atoms: C3_23  and  O3_29 
REMARK   15  A    between atoms: C4_24  and  O4_30 
REMARK   16  A    between atoms: C5_25  and  C6_26 
REMARK   17  A    between atoms: C6_26  and  O6_32 
ROOT
ATOM      1  C2  SIA d   1      46.650  52.517  65.170  0.00  0.00     0.259 C 
ATOM      2  C3  SIA d   1      46.639  50.972  65.159  0.00  0.00     0.024 C 
ATOM      3  C4  SIA d   1      45.383  50.349  64.477  0.00  0.00     0.063 C 
ATOM      4  C5  SIA d   1      45.029  51.051  63.163  0.00  0.00     0.064 C 
ATOM      5  C6  SIA d   1      44.968  52.545  63.453  0.00  0.00     0.091 C 
ATOM      6  O6  SIA d   1      46.255  53.028  63.885  0.00  0.00    -0.336 OA
ATOM      7  H1  SIA d   1      46.678  50.619  66.200  0.00  0.00     0.045 H 
ATOM      8  H2  SIA d   1      47.533  50.624  64.620  0.00  0.00     0.045 H 
ATOM      9  H3  SIA d   1      44.528  50.414  65.165  0.00  0.00     0.086 H 
ATOM     10  H4  SIA d   1      45.775  50.830  62.385  0.00  0.00     0.080 H 
ATOM     11  H5  SIA d   1      44.246  52.698  64.268  0.00  0.00     0.090 H 
ENDROOT
BRANCH   1  12
ATOM     12  C1  SIA d   1      45.693  53.068  66.275  0.00  0.00     0.239 C 
ATOM     13  O1A SIA d   1      45.712  52.542  67.408  0.00  0.00    -0.644 OA
ATOM     14  O1B SIA d   1      44.967  54.051  66.020  0.00  0.00    -0.644 OA
ENDBRANCH   1  12
BRANCH   1  15
ATOM     15  O3  GAL d   1      47.946  52.968  65.398  0.00  0.00    -0.336 OA
BRANCH  15  16
ATOM     16  C3  GAL d   1      48.082  54.402  65.433  0.00  0.00     0.099 C 
ATOM     17  C2  GAL d   1      49.168  54.863  64.437  0.00  0.00     0.110 C 
ATOM     18  C1  GAL d   1      49.410  56.370  64.608  0.00  0.00     0.156 C 
ATOM     19  H19 SIA d   1      50.101  54.317  64.640  0.00  0.00     0.094 H 
ATOM     20  O5  GAL d   1      49.759  56.648  65.966  0.00  0.00    -0.349 OA
ATOM     21  H18 SIA d   1      48.490  56.913  64.347  0.00  0.00     0.133 H 
ATOM     22  C5  GAL d   1      48.684  56.317  66.878  0.00  0.00     0.089 C 
ATOM     23  C4  GAL d   1      48.438  54.815  66.857  0.00  0.00     0.090 C 
ATOM     24  H22 SIA d   1      47.762  56.819  66.549  0.00  0.00     0.090 H 
ATOM     25  H21 SIA d   1      47.613  54.567  67.541  0.00  0.00     0.091 H 
ATOM     26  H20 SIA d   1      47.124  54.865  65.151  0.00  0.00     0.091 H 
BRANCH  17  27
ATOM     27  O2  GAL d   1      48.752  54.601  63.101  0.00  0.00    -0.388 OA
ATOM     28  H26 SIA d   1      48.606  53.669  62.993  0.00  0.00     0.210 HD
ENDBRANCH  17  27
BRANCH  18  29
ATOM     29  O1  GAL d   1      50.449  56.804  63.785  0.00  0.00    -0.369 OA
ATOM     30  H25 SIA d   1      50.576  57.738  63.903  0.00  0.00     0.212 HD
ENDBRANCH  18  29
BRANCH  22  31
ATOM     31  C6  GAL d   1      49.055  56.847  68.239  0.00  0.00     0.043 C 
ATOM     32  H23 SIA d   1      50.056  56.478  68.508  0.00  0.00     0.078 H 
ATOM     33  H24 SIA d   1      48.322  56.490  68.977  0.00  0.00     0.078 H 
BRANCH  31  34
ATOM     34  O6  GAL d   1      49.066  58.270  68.245  0.00  0.00    -0.398 OA
ATOM     35  H28 SIA d   1      49.701  58.583  67.612  0.00  0.00     0.209 HD
ENDBRANCH  31  34
ENDBRANCH  22  31
BRANCH  23  36
ATOM     36  O4  GAL d   1      49.612  54.105  67.243  0.00  0.00    -0.390 OA
ATOM     37  H27 SIA d   1      49.437  53.172  67.223  0.00  0.00     0.210 HD
ENDBRANCH  23  36
ENDBRANCH  15  16
ENDBRANCH   1  15
BRANCH   3  38
ATOM     38  O4  SIA d   1      45.665  49.007  64.186  0.00  0.00    -0.393 OA
ATOM     39  H14 SIA d   1      45.888  48.550  64.989  0.00  0.00     0.210 HD
ENDBRANCH   3  38
BRANCH   5  40
ATOM     40  C7  SIA d   1      44.506  53.371  62.249  0.00  0.00     0.089 C 
ATOM     41  H6  SIA d   1      43.478  53.095  61.970  0.00  0.00     0.091 H 
BRANCH  40  42
ATOM     42  C8  SIA d   1      44.563  54.823  62.653  0.00  0.00     0.083 C 
ATOM     43  H7  SIA d   1      45.613  55.149  62.696  0.00  0.00     0.090 H 
BRANCH  42  44
ATOM     44  C9  SIA d   1      43.818  55.662  61.638  0.00  0.00     0.043 C 
ATOM     45  H8  SIA d   1      42.734  55.575  61.806  0.00  0.00     0.078 H 
ATOM     46  H9  SIA d   1      44.060  55.318  60.621  0.00  0.00     0.078 H 
BRANCH  44  47
ATOM     47  O9  SIA d   1      44.222  57.012  61.797  0.00  0.00    -0.398 OA
ATOM     48  H17 SIA d   1      43.764  57.555  61.166  0.00  0.00     0.209 HD
ENDBRANCH  44  47
ENDBRANCH  42  44
BRANCH  42  49
ATOM     49  O8  SIA d   1      43.966  54.982  63.934  0.00  0.00    -0.391 OA
ATOM     50  H16 SIA d   1      44.436  54.454  64.569  0.00  0.00     0.210 HD
ENDBRANCH  42  49
ENDBRANCH  40  42
BRANCH  40  51
ATOM     51  O7  SIA d   1      45.380  53.143  61.148  0.00  0.00    -0.390 OA
ATOM     52  H15 SIA d   1      45.112  53.685  60.415  0.00  0.00     0.210 HD
ENDBRANCH  40  51
ENDBRANCH   5  40
BRANCH   4  53
ATOM     53  N5  SIA d   1      43.707  50.615  62.748  0.00  0.00    -0.352 N 
ATOM     54  C10 SIA d   1      43.499  49.899  61.647  0.00  0.00     0.214 C 
ATOM     55  O10 SIA d   1      44.392  49.454  60.903  0.00  0.00    -0.274 OA
ATOM     56  H13 SIA d   1      42.921  50.864  63.314  0.00  0.00     0.163 HD
BRANCH  54  57
ATOM     57  C11 SIA d   1      42.042  49.619  61.338  0.00  0.00    -0.003 C 
ATOM     58  H10 SIA d   1      41.971  49.025  60.415  0.00  0.00     0.040 H 
ATOM     59  H11 SIA d   1      41.506  50.570  61.204  0.00  0.00     0.040 H 
ATOM     60  H12 SIA d   1      41.592  49.059  62.171  0.00  0.00     0.040 H 
ENDBRANCH  54  57
ENDBRANCH   4  53
TORSDOF 17
