REMARK  12 active torsions:
REMARK  status: ('A' for Active; 'I' for Inactive)
REMARK    1  A    between atoms: C19_1  and  O3_2 
REMARK    2  A    between atoms: O3_2  and  C5_3 
REMARK    3  A    between atoms: C4_5  and  O1_6 
REMARK    4  A    between atoms: O1_6  and  C7_7 
REMARK    5  A    between atoms: C3_8  and  O2_9 
REMARK    6  A    between atoms: O2_9  and  C8_10 
REMARK    7  A    between atoms: C1_12  and  C9_13 
REMARK    8  A    between atoms: C9_13  and  C10_14 
REMARK    9  A    between atoms: N2_23  and  C15_24 
REMARK   10  A    between atoms: C15_24  and  C16_25 
REMARK   11  A    between atoms: C16_25  and  C17_26 
REMARK   12  A    between atoms: C17_26  and  C18_27 
ROOT
ATOM      1  C10 PU3 d   1       1.994  10.767  23.992  0.00  0.00     0.113 A 
ATOM      2  N1  PU3 d   1       0.803  11.305  23.705  0.00  0.00    -0.227 NA
ATOM      3  C11 PU3 d   1       0.052  10.900  24.754  0.00  0.00     0.150 A 
ATOM      4  C13 PU3 d   1      -1.351  11.040  25.115  0.00  0.00     0.155 A 
ATOM      5  N5  PU3 d   1      -2.195  11.726  24.321  0.00  0.00    -0.382 N 
ATOM      6  C12 PU3 d   1       0.858  10.089  25.659  0.00  0.00     0.165 A 
ATOM      7  N4  PU3 d   1       0.342   9.564  26.785  0.00  0.00    -0.222 NA
ATOM      8  C14 PU3 d   1      -0.957   9.793  27.086  0.00  0.00     0.091 A 
ATOM      9  N3  PU3 d   1      -1.778  10.515  26.281  0.00  0.00    -0.222 NA
ATOM     10  N2  PU3 d   1       2.068  10.063  25.140  0.00  0.00    -0.317 N 
ATOM     11  H14 PU3 d   1      -3.187  11.821  24.583  0.00  0.00     0.157 HD
ATOM     12  H15 PU3 d   1      -1.849  12.156  23.451  0.00  0.00     0.157 HD
ATOM     13  H16 PU3 d   1      -1.358   9.384  28.006  0.00  0.00     0.146 H 
ENDROOT
BRANCH   1  14
ATOM     14  C9  PU3 d   1       3.209  11.027  23.137  0.00  0.00     0.014 C 
ATOM     15  H12 PU3 d   1       3.575  10.052  22.782  0.00  0.00     0.051 H 
ATOM     16  H13 PU3 d   1       2.883  11.632  22.278  0.00  0.00     0.051 H 
BRANCH  14  17
ATOM     17  C1  PU3 d   1       4.383  11.746  23.777  0.00  0.00    -0.046 A 
ATOM     18  C6  PU3 d   1       5.659  11.286  23.496  0.00  0.00    -0.041 A 
ATOM     19  C5  PU3 d   1       6.822  11.893  24.015  0.00  0.00     0.104 A 
ATOM     20  H4  PU3 d   1       5.769  10.423  22.850  0.00  0.00     0.088 H 
ATOM     21  C4  PU3 d   1       6.654  13.070  24.841  0.00  0.00     0.135 A 
ATOM     22  C3  PU3 d   1       5.310  13.554  25.112  0.00  0.00     0.104 A 
ATOM     23  C2  PU3 d   1       4.186  12.887  24.588  0.00  0.00    -0.041 A 
ATOM     24  H11 PU3 d   1       3.185  13.243  24.803  0.00  0.00     0.088 H 
BRANCH  19  25
ATOM     25  O3  PU3 d   1       8.095  11.389  23.853  0.00  0.00    -0.353 OA
BRANCH  25  26
ATOM     26  C19 PU3 d   1       8.256  10.187  23.060  0.00  0.00     0.010 C 
ATOM     27  H1  PU3 d   1       9.320   9.912  23.024  0.00  0.00     0.066 H 
ATOM     28  H2  PU3 d   1       7.889  10.369  22.039  0.00  0.00     0.066 H 
ATOM     29  H3  PU3 d   1       7.681   9.367  23.515  0.00  0.00     0.066 H 
ENDBRANCH  25  26
ENDBRANCH  19  25
BRANCH  21  30
ATOM     30  O1  PU3 d   1       7.714  13.715  25.376  0.00  0.00    -0.351 OA
BRANCH  30  31
ATOM     31  C7  PU3 d   1       8.041  15.002  24.817  0.00  0.00     0.011 C 
ATOM     32  H5  PU3 d   1       8.917  15.416  25.338  0.00  0.00     0.067 H 
ATOM     33  H6  PU3 d   1       7.186  15.683  24.939  0.00  0.00     0.067 H 
ATOM     34  H7  PU3 d   1       8.270  14.889  23.747  0.00  0.00     0.067 H 
ENDBRANCH  30  31
ENDBRANCH  21  30
BRANCH  22  35
ATOM     35  O2  PU3 d   1       5.290  14.717  25.857  0.00  0.00    -0.353 OA
BRANCH  35  36
ATOM     36  C8  PU3 d   1       4.156  15.537  25.907  0.00  0.00     0.010 C 
ATOM     37  H8  PU3 d   1       4.358  16.403  26.554  0.00  0.00     0.066 H 
ATOM     38  H9  PU3 d   1       3.308  14.966  26.313  0.00  0.00     0.066 H 
ATOM     39  H10 PU3 d   1       3.911  15.886  24.893  0.00  0.00     0.066 H 
ENDBRANCH  35  36
ENDBRANCH  22  35
ENDBRANCH  14  17
ENDBRANCH   1  14
BRANCH  10  40
ATOM     40  C15 PU3 d   1       3.182   9.305  25.710  0.00  0.00     0.003 C 
ATOM     41  H17 PU3 d   1       3.204   9.421  26.804  0.00  0.00     0.065 H 
ATOM     42  H18 PU3 d   1       4.136   9.649  25.285  0.00  0.00     0.065 H 
BRANCH  40  43
ATOM     43  C16 PU3 d   1       2.929   7.846  25.335  0.00  0.00    -0.050 C 
ATOM     44  H19 PU3 d   1       1.998   7.798  24.752  0.00  0.00     0.035 H 
ATOM     45  H20 PU3 d   1       2.811   7.268  26.263  0.00  0.00     0.035 H 
BRANCH  43  46
ATOM     46  C17 PU3 d   1       4.035   7.206  24.516  0.00  0.00    -0.067 C 
ATOM     47  H21 PU3 d   1       5.003   7.674  24.750  0.00  0.00     0.032 H 
ATOM     48  H22 PU3 d   1       3.825   7.315  23.442  0.00  0.00     0.032 H 
BRANCH  46  49
ATOM     49  C18 PU3 d   1       4.054   5.723  24.906  0.00  0.00    -0.076 C 
ATOM     50  H23 PU3 d   1       4.842   5.205  24.340  0.00  0.00     0.027 H 
ATOM     51  H24 PU3 d   1       3.078   5.271  24.675  0.00  0.00     0.027 H 
ATOM     52  H25 PU3 d   1       4.255   5.630  25.983  0.00  0.00     0.027 H 
ENDBRANCH  46  49
ENDBRANCH  43  46
ENDBRANCH  40  43
ENDBRANCH  10  40
TORSDOF 12
