REMARK  9 active torsions:
REMARK  status: ('A' for Active; 'I' for Inactive)
REMARK    1  A    between atoms: C18_1  and  C17_2 
REMARK    2  A    between atoms: C17_2  and  C16_3 
REMARK    3  A    between atoms: C16_3  and  C15_4 
REMARK    4  A    between atoms: C15_4  and  N2_5 
REMARK    5  A    between atoms: C13_11  and  N5_12 
REMARK    6  A    between atoms: C10_14  and  C9_15 
REMARK    7  A    between atoms: C9_15  and  C1_16 
REMARK    8  A    between atoms: C4_21  and  O1_22 
REMARK    9  A    between atoms: O1_22  and  C7_23 
ROOT
ATOM      1  N2  PU4 d   1       2.042   9.715  25.143  0.00  0.00    -0.317 N 
ATOM      2  C12 PU4 d   1       0.805   9.827  25.598  0.00  0.00     0.165 A 
ATOM      3  N4  PU4 d   1       0.400   9.294  26.826  0.00  0.00    -0.222 NA
ATOM      4  C14 PU4 d   1      -0.995   9.515  27.187  0.00  0.00     0.091 A 
ATOM      5  N3  PU4 d   1      -1.747  10.307  26.266  0.00  0.00    -0.222 NA
ATOM      6  C11 PU4 d   1      -0.079  10.599  24.695  0.00  0.00     0.150 A 
ATOM      7  C13 PU4 d   1      -1.420  10.851  25.073  0.00  0.00     0.155 A 
ATOM      8  N1  PU4 d   1       0.748  11.000  23.689  0.00  0.00    -0.227 NA
ATOM      9  C10 PU4 d   1       1.889  10.390  23.999  0.00  0.00     0.113 A 
ATOM     10  H10 PU4 d   1      -1.431   9.107  28.091  0.00  0.00     0.146 H 
ENDROOT
BRANCH   9  11
ATOM     11  C9  PU4 d   1       3.230  10.494  23.275  0.00  0.00     0.014 C 
ATOM     12  H13 PU4 d   1       3.022  10.683  22.212  0.00  0.00     0.051 H 
ATOM     13  H14 PU4 d   1       3.743   9.527  23.382  0.00  0.00     0.051 H 
BRANCH  11  14
ATOM     14  C1  PU4 d   1       4.180  11.577  23.759  0.00  0.00    -0.051 A 
ATOM     15  C6  PU4 d   1       5.565  11.471  23.840  0.00  0.00    -0.074 A 
ATOM     16  C5  PU4 d   1       6.330  12.548  24.291  0.00  0.00    -0.050 A 
ATOM     17  H15 PU4 d   1       6.053  10.547  23.551  0.00  0.00     0.084 H 
ATOM     18  C4  PU4 d   1       5.659  13.718  24.676  0.00  0.00     0.068 A 
ATOM     19  H16 PU4 d   1       7.411  12.482  24.342  0.00  0.00     0.087 H 
ATOM     20  C3  PU4 d   1       4.257  13.807  24.610  0.00  0.00    -0.050 A 
ATOM     21  C2  PU4 d   1       3.464  12.739  24.145  0.00  0.00    -0.074 A 
ATOM     22  H18 PU4 d   1       3.772  14.724  24.926  0.00  0.00     0.087 H 
ATOM     23  H17 PU4 d   1       2.383  12.801  24.086  0.00  0.00     0.084 H 
BRANCH  18  24
ATOM     24  O1  PU4 d   1       6.418  14.777  25.157  0.00  0.00    -0.356 OA
BRANCH  24  25
ATOM     25  C7  PU4 d   1       5.837  15.821  25.933  0.00  0.00     0.010 C 
ATOM     26  H19 PU4 d   1       6.614  16.550  26.206  0.00  0.00     0.066 H 
ATOM     27  H20 PU4 d   1       5.395  15.396  26.846  0.00  0.00     0.066 H 
ATOM     28  H21 PU4 d   1       5.054  16.323  25.345  0.00  0.00     0.066 H 
ENDBRANCH  24  25
ENDBRANCH  18  24
ENDBRANCH  11  14
ENDBRANCH   9  11
BRANCH   1  29
ATOM     29  C15 PU4 d   1       3.169   9.023  25.736  0.00  0.00     0.003 C 
ATOM     30  H8  PU4 d   1       4.094   9.365  25.249  0.00  0.00     0.065 H 
ATOM     31  H9  PU4 d   1       3.210   9.262  26.809  0.00  0.00     0.065 H 
BRANCH  29  32
ATOM     32  C16 PU4 d   1       3.052   7.518  25.570  0.00  0.00    -0.050 C 
ATOM     33  H6  PU4 d   1       3.508   7.048  26.454  0.00  0.00     0.035 H 
ATOM     34  H7  PU4 d   1       1.982   7.268  25.533  0.00  0.00     0.035 H 
BRANCH  32  35
ATOM     35  C17 PU4 d   1       3.633   6.989  24.480  0.00  0.00    -0.067 C 
ATOM     36  H4  PU4 d   1       3.326   5.934  24.441  0.00  0.00     0.032 H 
ATOM     37  H5  PU4 d   1       3.220   7.524  23.612  0.00  0.00     0.032 H 
BRANCH  35  38
ATOM     38  C18 PU4 d   1       5.181   7.009  24.320  0.00  0.00    -0.076 C 
ATOM     39  H1  PU4 d   1       5.457   6.532  23.368  0.00  0.00     0.027 H 
ATOM     40  H2  PU4 d   1       5.643   6.460  25.154  0.00  0.00     0.027 H 
ATOM     41  H3  PU4 d   1       5.537   8.050  24.325  0.00  0.00     0.027 H 
ENDBRANCH  35  38
ENDBRANCH  32  35
ENDBRANCH  29  32
ENDBRANCH   1  29
BRANCH   7  42
ATOM     42  N5  PU4 d   1      -2.210  11.575  24.249  0.00  0.00    -0.382 N 
ATOM     43  H11 PU4 d   1      -1.834  11.935  23.360  0.00  0.00     0.157 HD
ATOM     44  H12 PU4 d   1      -3.188  11.767  24.510  0.00  0.00     0.157 HD
ENDBRANCH   7  42
TORSDOF 9
