REMARK  9 active torsions:
REMARK  status: ('A' for Active; 'I' for Inactive)
REMARK    1  A    between atoms: C18_1  and  C17_2 
REMARK    2  A    between atoms: C17_2  and  C16_3 
REMARK    3  A    between atoms: C16_3  and  C15_4 
REMARK    4  A    between atoms: C15_4  and  N2_5 
REMARK    5  A    between atoms: C10_15  and  C9_9 
REMARK    6  A    between atoms: C9_9  and  C6_17 
REMARK    7  A    between atoms: C13_12  and  N5_13 
REMARK    8  A    between atoms: C4_21  and  O1_22 
REMARK    9  A    between atoms: O1_22  and  C7_23 
ROOT
ATOM      1  N2  PU5 d   1       2.099   9.976  25.146  0.00  0.00    -0.317 N 
ATOM      2  C12 PU5 d   1       0.901   9.980  25.692  0.00  0.00     0.165 A 
ATOM      3  N4  PU5 d   1       0.400   9.517  26.841  0.00  0.00    -0.222 NA
ATOM      4  C14 PU5 d   1      -0.916   9.664  27.093  0.00  0.00     0.091 A 
ATOM      5  N3  PU5 d   1      -1.769  10.333  26.283  0.00  0.00    -0.222 NA
ATOM      6  C11 PU5 d   1       0.052  10.714  24.759  0.00  0.00     0.150 A 
ATOM      7  C13 PU5 d   1      -1.343  10.824  25.097  0.00  0.00     0.155 A 
ATOM      8  N1  PU5 d   1       0.813  11.099  23.743  0.00  0.00    -0.227 NA
ATOM      9  C10 PU5 d   1       2.045  10.606  23.982  0.00  0.00     0.113 A 
ATOM     10  H10 PU5 d   1      -1.315   9.220  27.998  0.00  0.00     0.146 H 
ENDROOT
BRANCH   9  11
ATOM     11  C9  PU5 d   1       3.245  10.807  23.092  0.00  0.00     0.014 C 
ATOM     12  H11 PU5 d   1       2.908  11.138  22.099  0.00  0.00     0.051 H 
ATOM     13  H12 PU5 d   1       3.789   9.856  22.997  0.00  0.00     0.051 H 
BRANCH  11  14
ATOM     14  C6  PU5 d   1       4.167  11.852  23.679  0.00  0.00    -0.048 A 
ATOM     15  C1  PU5 d   1       5.557  11.686  23.557  0.00  0.00    -0.076 A 
ATOM     16  C2  PU5 d   1       6.399  12.658  24.077  0.00  0.00    -0.080 A 
ATOM     17  H15 PU5 d   1       5.965  10.811  23.064  0.00  0.00     0.084 H 
ATOM     18  C3  PU5 d   1       5.854  13.770  24.688  0.00  0.00    -0.051 A 
ATOM     19  H17 PU5 d   1       7.475  12.546  24.004  0.00  0.00     0.083 H 
ATOM     20  C4  PU5 d   1       4.477  13.933  24.756  0.00  0.00     0.068 A 
ATOM     21  H18 PU5 d   1       6.506  14.521  25.118  0.00  0.00     0.087 H 
ATOM     22  C5  PU5 d   1       3.620  12.970  24.277  0.00  0.00    -0.044 A 
ATOM     23  H16 PU5 d   1       2.546  13.085  24.366  0.00  0.00     0.088 H 
BRANCH  20  24
ATOM     24  O1  PU5 d   1       3.919  15.020  25.374  0.00  0.00    -0.356 OA
BRANCH  24  25
ATOM     25  C7  PU5 d   1       4.648  16.220  25.655  0.00  0.00     0.010 C 
ATOM     26  H19 PU5 d   1       3.986  16.943  26.153  0.00  0.00     0.066 H 
ATOM     27  H20 PU5 d   1       5.021  16.651  24.714  0.00  0.00     0.066 H 
ATOM     28  H21 PU5 d   1       5.498  15.987  26.314  0.00  0.00     0.066 H 
ENDBRANCH  24  25
ENDBRANCH  20  24
ENDBRANCH  11  14
ENDBRANCH   9  11
BRANCH   1  29
ATOM     29  C15 PU5 d   1       3.296   9.381  25.762  0.00  0.00     0.003 C 
ATOM     30  H8  PU5 d   1       4.201   9.827  25.325  0.00  0.00     0.065 H 
ATOM     31  H9  PU5 d   1       3.286   9.561  26.847  0.00  0.00     0.065 H 
BRANCH  29  32
ATOM     32  C16 PU5 d   1       3.274   7.879  25.486  0.00  0.00    -0.050 C 
ATOM     33  H6  PU5 d   1       3.973   7.409  26.193  0.00  0.00     0.035 H 
ATOM     34  H7  PU5 d   1       2.253   7.526  25.691  0.00  0.00     0.035 H 
BRANCH  32  35
ATOM     35  C17 PU5 d   1       3.604   7.447  24.253  0.00  0.00    -0.067 C 
ATOM     36  H4  PU5 d   1       3.163   6.445  24.150  0.00  0.00     0.032 H 
ATOM     37  H5  PU5 d   1       3.119   8.136  23.546  0.00  0.00     0.032 H 
BRANCH  35  38
ATOM     38  C18 PU5 d   1       5.066   7.322  23.797  0.00  0.00    -0.076 C 
ATOM     39  H1  PU5 d   1       5.097   6.953  22.761  0.00  0.00     0.027 H 
ATOM     40  H2  PU5 d   1       5.596   6.616  24.454  0.00  0.00     0.027 H 
ATOM     41  H3  PU5 d   1       5.552   8.307  23.849  0.00  0.00     0.027 H 
ENDBRANCH  35  38
ENDBRANCH  32  35
ENDBRANCH  29  32
ENDBRANCH   1  29
BRANCH   7  42
ATOM     42  N5  PU5 d   1      -2.150  11.449  24.240  0.00  0.00    -0.382 N 
ATOM     43  H13 PU5 d   1      -1.778  11.806  23.348  0.00  0.00     0.157 HD
ATOM     44  H14 PU5 d   1      -3.146  11.575  24.469  0.00  0.00     0.157 HD
ENDBRANCH   7  42
TORSDOF 9
