REMARK  7 active torsions:
REMARK  status: ('A' for Active; 'I' for Inactive)
REMARK    1  A    between atoms: C18_1  and  C17_2 
REMARK    2  A    between atoms: C17_2  and  C16_3 
REMARK    3  A    between atoms: C16_3  and  C15_4 
REMARK    4  A    between atoms: C15_4  and  N2_5 
REMARK    5  A    between atoms: C13_11  and  N5_12 
REMARK    6  A    between atoms: C10_14  and  C9_15 
REMARK    7  A    between atoms: C9_15  and  C1_16 
ROOT
ATOM      1  N2  PU6 d   1       2.076  10.019  25.141  0.00  0.00    -0.317 N 
ATOM      2  C12 PU6 d   1       0.820  10.043  25.662  0.00  0.00     0.165 A 
ATOM      3  N4  PU6 d   1       0.360   9.523  26.826  0.00  0.00    -0.222 NA
ATOM      4  C14 PU6 d   1      -0.951   9.698  27.107  0.00  0.00     0.091 A 
ATOM      5  N3  PU6 d   1      -1.774  10.357  26.258  0.00  0.00    -0.222 NA
ATOM      6  C11 PU6 d   1      -0.012  10.733  24.793  0.00  0.00     0.150 A 
ATOM      7  C13 PU6 d   1      -1.344  10.886  25.086  0.00  0.00     0.155 A 
ATOM      8  N1  PU6 d   1       0.776  11.119  23.773  0.00  0.00    -0.227 NA
ATOM      9  C10 PU6 d   1       2.042  10.692  23.961  0.00  0.00     0.113 A 
ATOM     10  H10 PU6 d   1      -1.352   9.302  28.033  0.00  0.00     0.146 H 
ENDROOT
BRANCH   9  11
ATOM     11  C9  PU6 d   1       3.245  10.905  23.070  0.00  0.00     0.014 C 
ATOM     12  H13 PU6 d   1       2.914  11.204  22.064  0.00  0.00     0.051 H 
ATOM     13  H14 PU6 d   1       3.827   9.974  23.003  0.00  0.00     0.051 H 
BRANCH  11  14
ATOM     14  C1  PU6 d   1       4.103  12.004  23.676  0.00  0.00    -0.048 A 
ATOM     15  C6  PU6 d   1       3.521  13.173  24.218  0.00  0.00    -0.041 A 
ATOM     16  C5  PU6 d   1       4.385  14.134  24.730  0.00  0.00     0.105 A 
ATOM     17  H15 PU6 d   1       2.446  13.314  24.234  0.00  0.00     0.088 H 
ATOM     18  O3  PU6 d   1       4.098  15.356  25.316  0.00  0.00    -0.323 OA
ATOM     19  C4  PU6 d   1       5.742  13.970  24.707  0.00  0.00     0.105 A 
ATOM     20  C7  PU6 d   1       5.324  16.003  25.690  0.00  0.00     0.115 A 
ATOM     21  O1  PU6 d   1       6.348  15.085  25.285  0.00  0.00    -0.323 OA
ATOM     22  H18 PU6 d   1       5.360  16.172  26.776  0.00  0.00     0.118 H 
ATOM     23  H19 PU6 d   1       5.433  16.964  25.166  0.00  0.00     0.118 H 
ATOM     24  C3  PU6 d   1       6.336  12.831  24.187  0.00  0.00    -0.047 A 
ATOM     25  C2  PU6 d   1       5.498  11.840  23.662  0.00  0.00    -0.074 A 
ATOM     26  H17 PU6 d   1       7.413  12.711  24.187  0.00  0.00     0.087 H 
ATOM     27  H16 PU6 d   1       5.929  10.939  23.241  0.00  0.00     0.084 H 
ENDBRANCH  11  14
ENDBRANCH   9  11
BRANCH   1  28
ATOM     28  C15 PU6 d   1       3.259   9.403  25.753  0.00  0.00     0.003 C 
ATOM     29  H8  PU6 d   1       4.172   9.789  25.277  0.00  0.00     0.065 H 
ATOM     30  H9  PU6 d   1       3.284   9.627  26.830  0.00  0.00     0.065 H 
BRANCH  28  31
ATOM     31  C16 PU6 d   1       3.154   7.881  25.534  0.00  0.00    -0.050 C 
ATOM     32  H6  PU6 d   1       3.840   7.383  26.235  0.00  0.00     0.035 H 
ATOM     33  H7  PU6 d   1       2.121   7.572  25.750  0.00  0.00     0.035 H 
BRANCH  31  34
ATOM     34  C17 PU6 d   1       3.506   7.426  24.110  0.00  0.00    -0.067 C 
ATOM     35  H4  PU6 d   1       3.233   6.365  24.010  0.00  0.00     0.032 H 
ATOM     36  H5  PU6 d   1       2.915   8.025  23.401  0.00  0.00     0.032 H 
BRANCH  34  37
ATOM     37  C18 PU6 d   1       4.983   7.576  23.748  0.00  0.00    -0.076 C 
ATOM     38  H1  PU6 d   1       5.145   7.229  22.717  0.00  0.00     0.027 H 
ATOM     39  H2  PU6 d   1       5.593   6.974  24.438  0.00  0.00     0.027 H 
ATOM     40  H3  PU6 d   1       5.275   8.633  23.829  0.00  0.00     0.027 H 
ENDBRANCH  34  37
ENDBRANCH  31  34
ENDBRANCH  28  31
ENDBRANCH   1  28
BRANCH   7  41
ATOM     41  N5  PU6 d   1      -2.220  11.534  24.254  0.00  0.00    -0.382 N 
ATOM     42  H11 PU6 d   1      -1.886  11.933  23.365  0.00  0.00     0.157 HD
ATOM     43  H12 PU6 d   1      -3.212  11.621  24.518  0.00  0.00     0.157 HD
ENDBRANCH   7  41
TORSDOF 7
