REMARK  11 active torsions:
REMARK  status: ('A' for Active; 'I' for Inactive)
REMARK    1  A    between atoms: O20_3  and  C19_1 
REMARK    2  A    between atoms: O20_3  and  C6_4 
REMARK    3  A    between atoms: C3_6  and  O2_7 
REMARK    4  A    between atoms: O2_7  and  C8_8 
REMARK    5  A    between atoms: C1_10  and  C9_11 
REMARK    6  A    between atoms: C9_11  and  C10_12 
REMARK    7  A    between atoms: C13_15  and  N5_16 
REMARK    8  A    between atoms: N2_21  and  C15_22 
REMARK    9  A    between atoms: C15_22  and  C16_23 
REMARK   10  A    between atoms: C16_23  and  C17_24 
REMARK   11  A    between atoms: C17_24  and  C18_25 
ROOT
ATOM      1  C10 PU7 d   1       2.183  10.484  24.056  0.00  0.00     0.113 A 
ATOM      2  N1  PU7 d   1       0.977  11.006  23.782  0.00  0.00    -0.227 NA
ATOM      3  C11 PU7 d   1       0.198  10.666  24.827  0.00  0.00     0.150 A 
ATOM      4  C13 PU7 d   1      -1.149  10.871  25.086  0.00  0.00     0.155 A 
ATOM      5  C12 PU7 d   1       0.959   9.956  25.726  0.00  0.00     0.165 A 
ATOM      6  N4  PU7 d   1       0.492   9.509  26.894  0.00  0.00    -0.222 NA
ATOM      7  C14 PU7 d   1      -0.827   9.704  27.142  0.00  0.00     0.091 A 
ATOM      8  N3  PU7 d   1      -1.694  10.443  26.253  0.00  0.00    -0.222 NA
ATOM      9  N2  PU7 d   1       2.160   9.872  25.224  0.00  0.00    -0.317 N 
ATOM     10  H14 PU7 d   1      -1.250   9.287  28.048  0.00  0.00     0.146 H 
ENDROOT
BRANCH   1  11
ATOM     11  C9  PU7 d   1       3.448  10.604  23.218  0.00  0.00     0.017 C 
ATOM     12  H10 PU7 d   1       3.963   9.633  23.251  0.00  0.00     0.051 H 
ATOM     13  H11 PU7 d   1       3.143  10.823  22.184  0.00  0.00     0.051 H 
BRANCH  11  14
ATOM     14  C1  PU7 d   1       4.447  11.669  23.639  0.00  0.00    -0.015 A 
ATOM     15  C6  PU7 d   1       5.838  11.581  23.417  0.00  0.00     0.075 A 
ATOM     16  C5  PU7 d   1       6.734  12.593  23.832  0.00  0.00    -0.048 A 
ATOM     17  C4  PU7 d   1       6.212  13.739  24.469  0.00  0.00    -0.048 A 
ATOM     18  H4  PU7 d   1       7.800  12.491  23.664  0.00  0.00     0.087 H 
ATOM     19  C3  PU7 d   1       4.821  13.811  24.645  0.00  0.00     0.068 A 
ATOM     20  H5  PU7 d   1       6.862  14.536  24.811  0.00  0.00     0.087 H 
ATOM     21  C2  PU7 d   1       3.957  12.791  24.274  0.00  0.00    -0.042 A 
ATOM     22  H9  PU7 d   1       2.897  12.876  24.483  0.00  0.00     0.088 H 
BRANCH  15  23
ATOM     23  O20 PU7 d   1       6.369  10.446  22.795  0.00  0.00    -0.355 OA
BRANCH  23  24
ATOM     24  C19 PU7 d   1       7.738  10.017  23.091  0.00  0.00     0.010 C 
ATOM     25  H1  PU7 d   1       7.973   9.113  22.510  0.00  0.00     0.066 H 
ATOM     26  H2  PU7 d   1       7.829   9.797  24.165  0.00  0.00     0.066 H 
ATOM     27  H3  PU7 d   1       8.440  10.819  22.820  0.00  0.00     0.066 H 
ENDBRANCH  23  24
ENDBRANCH  15  23
BRANCH  19  28
ATOM     28  O2  PU7 d   1       4.181  14.909  25.282  0.00  0.00    -0.356 OA
BRANCH  28  29
ATOM     29  C8  PU7 d   1       4.861  16.097  25.655  0.00  0.00     0.010 C 
ATOM     30  H6  PU7 d   1       4.152  16.792  26.128  0.00  0.00     0.066 H 
ATOM     31  H7  PU7 d   1       5.294  16.568  24.760  0.00  0.00     0.066 H 
ATOM     32  H8  PU7 d   1       5.664  15.852  26.366  0.00  0.00     0.066 H 
ENDBRANCH  28  29
ENDBRANCH  19  28
ENDBRANCH  11  14
ENDBRANCH   1  11
BRANCH   9  33
ATOM     33  C15 PU7 d   1       3.372   9.232  25.779  0.00  0.00     0.003 C 
ATOM     34  H15 PU7 d   1       3.424   9.472  26.851  0.00  0.00     0.065 H 
ATOM     35  H16 PU7 d   1       4.247   9.656  25.265  0.00  0.00     0.065 H 
BRANCH  33  36
ATOM     36  C16 PU7 d   1       3.427   7.705  25.630  0.00  0.00    -0.050 C 
ATOM     37  H17 PU7 d   1       2.399   7.346  25.788  0.00  0.00     0.035 H 
ATOM     38  H18 PU7 d   1       4.072   7.342  26.444  0.00  0.00     0.035 H 
BRANCH  36  39
ATOM     39  C17 PU7 d   1       3.925   7.020  24.357  0.00  0.00    -0.067 C 
ATOM     40  H19 PU7 d   1       3.189   7.272  23.579  0.00  0.00     0.032 H 
ATOM     41  H20 PU7 d   1       3.882   5.941  24.566  0.00  0.00     0.032 H 
BRANCH  39  42
ATOM     42  C18 PU7 d   1       5.320   7.264  23.708  0.00  0.00    -0.076 C 
ATOM     43  H21 PU7 d   1       5.417   6.644  22.804  0.00  0.00     0.027 H 
ATOM     44  H22 PU7 d   1       6.110   6.994  24.424  0.00  0.00     0.027 H 
ATOM     45  H23 PU7 d   1       5.418   8.326  23.437  0.00  0.00     0.027 H 
ENDBRANCH  39  42
ENDBRANCH  36  39
ENDBRANCH  33  36
ENDBRANCH   9  33
BRANCH   4  46
ATOM     46  N5  PU7 d   1      -2.030  11.551  24.191  0.00  0.00    -0.382 N 
ATOM     47  H12 PU7 d   1      -3.022  11.673  24.439  0.00  0.00     0.157 HD
ATOM     48  H13 PU7 d   1      -1.673  11.920  23.298  0.00  0.00     0.157 HD
ENDBRANCH   4  46
TORSDOF 11
