REMARK  13 active torsions:
REMARK  status: ('A' for Active; 'I' for Inactive)
REMARK    1  A    between atoms: C15_3  and  O3_4 
REMARK    2  A    between atoms: O3_4  and  C20_5 
REMARK    3  A    between atoms: C17_6  and  O2_7 
REMARK    4  A    between atoms: O2_7  and  C19_8 
REMARK    5  A    between atoms: C16_9  and  O1_10 
REMARK    6  A    between atoms: O1_10  and  C18_11 
REMARK    7  A    between atoms: C12_13  and  C6_14 
REMARK    8  A    between atoms: C6_14  and  C5_15 
REMARK    9  A    between atoms: C3_18  and  N5_19 
REMARK   10  A    between atoms: N4_24  and  C7_25 
REMARK   11  A    between atoms: C7_25  and  C8_26 
REMARK   12  A    between atoms: C8_26  and  C9_27 
REMARK   13  A    between atoms: C9_27  and  C10_28 
ROOT
ATOM      1  C10 PU9 d   1       4.569   7.851  23.434  0.00  0.00    -0.117 C 
ATOM      2  C11 PU9 d   1       5.692   7.960  23.073  0.00  0.00    -0.154 C 
ATOM      3  H22 PU9 d   1       6.693   8.057  22.751  0.00  0.00     0.166 H 
ENDROOT
BRANCH   1   4
ATOM      4  C9  PU9 d   1       3.155   7.706  24.013  0.00  0.00    -0.009 C 
ATOM      5  H20 PU9 d   1       2.482   8.366  23.446  0.00  0.00     0.051 H 
ATOM      6  H21 PU9 d   1       2.837   6.661  23.885  0.00  0.00     0.051 H 
BRANCH   4   7
ATOM      7  C8  PU9 d   1       3.037   8.061  25.489  0.00  0.00    -0.040 C 
ATOM      8  H18 PU9 d   1       2.090   7.659  25.879  0.00  0.00     0.036 H 
ATOM      9  H19 PU9 d   1       3.879   7.609  26.034  0.00  0.00     0.036 H 
BRANCH   7  10
ATOM     10  C7  PU9 d   1       3.061   9.578  25.704  0.00  0.00     0.004 C 
ATOM     11  H16 PU9 d   1       3.042   9.790  26.783  0.00  0.00     0.065 H 
ATOM     12  H17 PU9 d   1       3.982   9.991  25.266  0.00  0.00     0.065 H 
BRANCH  10  13
ATOM     13  N4  PU9 d   1       1.902  10.207  25.069  0.00  0.00    -0.317 N 
ATOM     14  C5  PU9 d   1       1.853  10.879  23.883  0.00  0.00     0.113 A 
ATOM     15  N3  PU9 d   1       0.605  11.302  23.643  0.00  0.00    -0.227 NA
ATOM     16  C2  PU9 d   1      -0.151  10.881  24.654  0.00  0.00     0.150 A 
ATOM     17  C3  PU9 d   1      -1.477  10.972  24.982  0.00  0.00     0.155 A 
ATOM     18  C1  PU9 d   1       0.668  10.233  25.524  0.00  0.00     0.165 A 
ATOM     19  N2  PU9 d   1      -1.877  10.442  26.135  0.00  0.00    -0.222 NA
ATOM     20  C4  PU9 d   1      -1.023   9.797  26.949  0.00  0.00     0.091 A 
ATOM     21  N1  PU9 d   1       0.285   9.660  26.666  0.00  0.00    -0.222 NA
ATOM     22  H15 PU9 d   1      -1.404   9.370  27.870  0.00  0.00     0.146 H 
BRANCH  14  23
ATOM     23  C6  PU9 d   1       3.045  11.173  22.981  0.00  0.00     0.016 C 
ATOM     24  H11 PU9 d   1       3.488  10.218  22.661  0.00  0.00     0.051 H 
ATOM     25  H12 PU9 d   1       2.691  11.727  22.099  0.00  0.00     0.051 H 
BRANCH  23  26
ATOM     26  C12 PU9 d   1       4.129  12.007  23.684  0.00  0.00    -0.024 A 
ATOM     27  C13 PU9 d   1       3.869  13.263  24.286  0.00  0.00     0.077 A 
ATOM     28 CL   PU9 d   1       2.256  13.990  24.257  0.00  0.00    -0.081 Cl
ATOM     29  C15 PU9 d   1       4.946  13.947  24.877  0.00  0.00     0.126 A 
ATOM     30  C17 PU9 d   1       6.221  13.431  24.881  0.00  0.00     0.136 A 
ATOM     31  C16 PU9 d   1       6.493  12.218  24.292  0.00  0.00     0.104 A 
ATOM     32  C14 PU9 d   1       5.448  11.503  23.689  0.00  0.00    -0.040 A 
ATOM     33  H10 PU9 d   1       5.656  10.548  23.219  0.00  0.00     0.088 H 
BRANCH  29  34
ATOM     34  O3  PU9 d   1       4.981  15.221  25.514  0.00  0.00    -0.351 OA
BRANCH  34  35
ATOM     35  C20 PU9 d   1       5.159  16.515  25.701  0.00  0.00     0.011 C 
ATOM     36  H1  PU9 d   1       4.887  16.777  26.734  0.00  0.00     0.067 H 
ATOM     37  H2  PU9 d   1       4.524  17.078  25.001  0.00  0.00     0.067 H 
ATOM     38  H3  PU9 d   1       6.215  16.769  25.524  0.00  0.00     0.067 H 
ENDBRANCH  34  35
ENDBRANCH  29  34
BRANCH  30  39
ATOM     39  O2  PU9 d   1       7.222  14.227  25.535  0.00  0.00    -0.351 OA
BRANCH  39  40
ATOM     40  C19 PU9 d   1       8.329  14.803  24.785  0.00  0.00     0.011 C 
ATOM     41  H4  PU9 d   1       8.977  15.372  25.467  0.00  0.00     0.067 H 
ATOM     42  H5  PU9 d   1       7.935  15.475  24.008  0.00  0.00     0.067 H 
ATOM     43  H6  PU9 d   1       8.911  13.998  24.313  0.00  0.00     0.067 H 
ENDBRANCH  39  40
ENDBRANCH  30  39
BRANCH  31  44
ATOM     44  O1  PU9 d   1       7.804  11.783  24.348  0.00  0.00    -0.353 OA
BRANCH  44  45
ATOM     45  C18 PU9 d   1       8.284  10.656  23.581  0.00  0.00     0.010 C 
ATOM     46  H7  PU9 d   1       9.353  10.500  23.788  0.00  0.00     0.066 H 
ATOM     47  H8  PU9 d   1       8.144  10.856  22.509  0.00  0.00     0.066 H 
ATOM     48  H9  PU9 d   1       7.721   9.754  23.863  0.00  0.00     0.066 H 
ENDBRANCH  44  45
ENDBRANCH  31  44
ENDBRANCH  23  26
ENDBRANCH  14  23
BRANCH  17  49
ATOM     49  N5  PU9 d   1      -2.438  11.652  24.150  0.00  0.00    -0.382 N 
ATOM     50  H13 PU9 d   1      -3.427  11.696  24.436  0.00  0.00     0.157 HD
ATOM     51  H14 PU9 d   1      -2.136  12.094  23.270  0.00  0.00     0.157 HD
ENDBRANCH  17  49
ENDBRANCH  10  13
ENDBRANCH   7  10
ENDBRANCH   4   7
ENDBRANCH   1   4
TORSDOF 13
