REMARK  13 active torsions:
REMARK  status: ('A' for Active; 'I' for Inactive)
REMARK    1  A    between atoms: C15_3  and  O3_4 
REMARK    2  A    between atoms: O3_4  and  C20_5 
REMARK    3  A    between atoms: C17_6  and  O2_7 
REMARK    4  A    between atoms: O2_7  and  C19_8 
REMARK    5  A    between atoms: C16_9  and  O1_10 
REMARK    6  A    between atoms: O1_10  and  C18_11 
REMARK    7  A    between atoms: C12_13  and  C6_14 
REMARK    8  A    between atoms: C6_14  and  C5_15 
REMARK    9  A    between atoms: C3_18  and  N5_19 
REMARK   10  A    between atoms: N4_24  and  C7_25 
REMARK   11  A    between atoms: C7_25  and  C8_26 
REMARK   12  A    between atoms: C8_26  and  C9_27 
REMARK   13  A    between atoms: C9_27  and  C10_28 
ROOT
ATOM      1  C10 PU1 d   1       4.780   7.767  23.748  0.00  0.00    -0.117 C 
ATOM      2  C11 PU1 d   1       5.823   8.036  23.268  0.00  0.00    -0.154 C 
ATOM      3  H21 PU1 d   1       6.757   8.277  22.838  0.00  0.00     0.166 H 
ENDROOT
BRANCH   1   4
ATOM      4  C9  PU1 d   1       3.390   7.480  24.336  0.00  0.00    -0.009 C 
ATOM      5  H19 PU1 d   1       2.657   7.756  23.564  0.00  0.00     0.051 H 
ATOM      6  H20 PU1 d   1       3.341   6.396  24.517  0.00  0.00     0.051 H 
BRANCH   4   7
ATOM      7  C8  PU1 d   1       2.951   8.151  25.609  0.00  0.00    -0.040 C 
ATOM      8  H17 PU1 d   1       1.888   7.910  25.755  0.00  0.00     0.036 H 
ATOM      9  H18 PU1 d   1       3.542   7.715  26.428  0.00  0.00     0.036 H 
BRANCH   7  10
ATOM     10  C7  PU1 d   1       3.088   9.660  25.708  0.00  0.00     0.004 C 
ATOM     11  H15 PU1 d   1       3.157   9.948  26.767  0.00  0.00     0.065 H 
ATOM     12  H16 PU1 d   1       4.001   9.976  25.182  0.00  0.00     0.065 H 
BRANCH  10  13
ATOM     13  N4  PU1 d   1       1.923  10.326  25.099  0.00  0.00    -0.317 N 
ATOM     14  C5  PU1 d   1       1.830  11.015  23.812  0.00  0.00     0.113 A 
ATOM     15  N3  PU1 d   1       0.627  11.445  23.560  0.00  0.00    -0.227 NA
ATOM     16  C2  PU1 d   1      -0.175  10.972  24.673  0.00  0.00     0.150 A 
ATOM     17  C3  PU1 d   1      -1.484  11.134  24.956  0.00  0.00     0.159 A 
ATOM     18  C1  PU1 d   1       0.583  10.314  25.577  0.00  0.00     0.168 A 
ATOM     19  N2  PU1 d   1      -1.897  10.605  26.099  0.00  0.00    -0.183 NA
ATOM     20  C4  PU1 d   1      -1.136  10.008  26.953  0.00  0.00     0.313 A 
ATOM     21  N1  PU1 d   1       0.147   9.843  26.705  0.00  0.00    -0.182 NA
ATOM     22  F   PU1 d   1      -1.696   9.551  28.095  0.00  0.00    -0.161 F 
BRANCH  14  23
ATOM     23  C6  PU1 d   1       3.041  11.215  22.947  0.00  0.00     0.016 C 
ATOM     24  H11 PU1 d   1       3.455  10.225  22.704  0.00  0.00     0.051 H 
ATOM     25  H12 PU1 d   1       2.721  11.715  22.021  0.00  0.00     0.051 H 
BRANCH  23  26
ATOM     26  C12 PU1 d   1       4.140  12.043  23.572  0.00  0.00    -0.024 A 
ATOM     27  C13 PU1 d   1       3.898  13.292  24.210  0.00  0.00     0.077 A 
ATOM     28 CL   PU1 d   1       2.312  14.068  24.315  0.00  0.00    -0.081 Cl
ATOM     29  C15 PU1 d   1       5.026  13.911  24.711  0.00  0.00     0.126 A 
ATOM     30  C17 PU1 d   1       6.265  13.367  24.631  0.00  0.00     0.136 A 
ATOM     31  C16 PU1 d   1       6.502  12.195  24.043  0.00  0.00     0.104 A 
ATOM     32  C14 PU1 d   1       5.427  11.507  23.502  0.00  0.00    -0.040 A 
ATOM     33  H10 PU1 d   1       5.587  10.548  23.022  0.00  0.00     0.088 H 
BRANCH  29  34
ATOM     34  O3  PU1 d   1       5.119  15.139  25.358  0.00  0.00    -0.351 OA
BRANCH  34  35
ATOM     35  C20 PU1 d   1       4.126  15.723  26.135  0.00  0.00     0.011 C 
ATOM     36  H1  PU1 d   1       4.482  16.691  26.517  0.00  0.00     0.067 H 
ATOM     37  H2  PU1 d   1       3.885  15.061  26.980  0.00  0.00     0.067 H 
ATOM     38  H3  PU1 d   1       3.225  15.879  25.523  0.00  0.00     0.067 H 
ENDBRANCH  34  35
ENDBRANCH  29  34
BRANCH  30  39
ATOM     39  O2  PU1 d   1       7.309  14.087  25.213  0.00  0.00    -0.351 OA
BRANCH  39  40
ATOM     40  C19 PU1 d   1       7.766  15.271  24.572  0.00  0.00     0.011 C 
ATOM     41  H4  PU1 d   1       8.586  15.712  25.158  0.00  0.00     0.067 H 
ATOM     42  H5  PU1 d   1       6.938  15.992  24.500  0.00  0.00     0.067 H 
ATOM     43  H6  PU1 d   1       8.127  15.025  23.562  0.00  0.00     0.067 H 
ENDBRANCH  39  40
ENDBRANCH  30  39
BRANCH  31  44
ATOM     44  O1  PU1 d   1       7.834  11.733  24.106  0.00  0.00    -0.353 OA
BRANCH  44  45
ATOM     45  C18 PU1 d   1       8.181  10.708  23.156  0.00  0.00     0.010 C 
ATOM     46  H7  PU1 d   1       9.235  10.423  23.292  0.00  0.00     0.066 H 
ATOM     47  H8  PU1 d   1       8.033  11.089  22.135  0.00  0.00     0.066 H 
ATOM     48  H9  PU1 d   1       7.540   9.828  23.315  0.00  0.00     0.066 H 
ENDBRANCH  44  45
ENDBRANCH  31  44
ENDBRANCH  23  26
ENDBRANCH  14  23
BRANCH  17  49
ATOM     49  N5  PU1 d   1      -2.457  11.808  24.125  0.00  0.00    -0.382 N 
ATOM     50  H13 PU1 d   1      -3.437  11.878  24.433  0.00  0.00     0.157 HD
ATOM     51  H14 PU1 d   1      -2.170  12.218  23.225  0.00  0.00     0.157 HD
ENDBRANCH  17  49
ENDBRANCH  10  13
ENDBRANCH   7  10
ENDBRANCH   4   7
ENDBRANCH   1   4
TORSDOF 13
