REMARK  7 active torsions:
REMARK  status: ('A' for Active; 'I' for Inactive)
REMARK    1  A    between atoms: O2_21  and  C18_1 
REMARK    2  A    between atoms: C9_6  and  C10_12 
REMARK    3  A    between atoms: C6_14  and  C9_6 
REMARK    4  A    between atoms: C13_9  and  N5_10 
REMARK    5  A    between atoms: C1_13  and  O2_21 
REMARK    6  A    between atoms: C4_18  and  O1_20 
REMARK    7  A    between atoms: O1_20  and  C7_22 
ROOT
ATOM      1  C1  PU2 d   1       5.796  11.544  23.412  0.00  0.00     0.075 A 
ATOM      2  C6  PU2 d   1       4.437  11.639  23.664  0.00  0.00    -0.015 A 
ATOM      3  C5  PU2 d   1       3.921  12.751  24.287  0.00  0.00    -0.042 A 
ATOM      4  C2  PU2 d   1       6.683  12.556  23.727  0.00  0.00    -0.048 A 
ATOM      5  C3  PU2 d   1       6.177  13.697  24.339  0.00  0.00    -0.048 A 
ATOM      6  C4  PU2 d   1       4.801  13.784  24.608  0.00  0.00     0.068 A 
ATOM      7  H9  PU2 d   1       2.865  12.822  24.521  0.00  0.00     0.088 H 
ATOM      8  H10 PU2 d   1       7.740  12.463  23.504  0.00  0.00     0.087 H 
ATOM      9  H11 PU2 d   1       6.839  14.513  24.606  0.00  0.00     0.087 H 
ENDROOT
BRANCH   2  10
ATOM     10  C9  PU2 d   1       3.515  10.505  23.270  0.00  0.00     0.017 C 
ATOM     11  H5  PU2 d   1       3.248  10.624  22.210  0.00  0.00     0.051 H 
ATOM     12  H6  PU2 d   1       4.051   9.555  23.408  0.00  0.00     0.051 H 
BRANCH  10  13
ATOM     13  C10 PU2 d   1       2.255  10.461  24.076  0.00  0.00     0.110 A 
ATOM     14  N2  PU2 d   1       2.260   9.958  25.319  0.00  0.00    -0.327 N 
ATOM     15  C12 PU2 d   1       1.048  10.093  25.756  0.00  0.00     0.166 A 
ATOM     16  H4  PU2 d   1       3.061   9.549  25.822  0.00  0.00     0.169 HD
ATOM     17  N4  PU2 d   1       0.571   9.694  26.914  0.00  0.00    -0.183 NA
ATOM     18  C11 PU2 d   1       0.284  10.697  24.825  0.00  0.00     0.150 A 
ATOM     19  C14 PU2 d   1      -0.711   9.929  27.094  0.00  0.00     0.313 A 
ATOM     20  N3  PU2 d   1      -1.556  10.498  26.243  0.00  0.00    -0.183 NA
ATOM     21  F1  PU2 d   1      -1.304   9.482  28.520  0.00  0.00    -0.161 F 
ATOM     22  C13 PU2 d   1      -1.066  10.865  25.073  0.00  0.00     0.159 A 
ATOM     23  N1  PU2 d   1       1.032  10.944  23.752  0.00  0.00    -0.227 NA
BRANCH  22  24
ATOM     24  N5  PU2 d   1      -1.968  11.475  24.154  0.00  0.00    -0.382 N 
ATOM     25  H7  PU2 d   1      -1.633  11.778  23.228  0.00  0.00     0.157 HD
ATOM     26  H8  PU2 d   1      -2.955  11.612  24.415  0.00  0.00     0.157 HD
ENDBRANCH  22  24
ENDBRANCH  10  13
ENDBRANCH   2  10
BRANCH   1  27
ATOM     27  O2  PU2 d   1       6.269  10.384  22.805  0.00  0.00    -0.355 OA
BRANCH  27  28
ATOM     28  C18 PU2 d   1       7.681  10.089  22.845  0.00  0.00     0.010 C 
ATOM     29  H1  PU2 d   1       7.873   9.142  22.320  0.00  0.00     0.066 H 
ATOM     30  H2  PU2 d   1       8.008  10.001  23.892  0.00  0.00     0.066 H 
ATOM     31  H3  PU2 d   1       8.239  10.900  22.354  0.00  0.00     0.066 H 
ENDBRANCH  27  28
ENDBRANCH   1  27
BRANCH   6  32
ATOM     32  O1  PU2 d   1       4.235  14.918  25.261  0.00  0.00    -0.356 OA
BRANCH  32  33
ATOM     33  C7  PU2 d   1       5.031  16.022  25.711  0.00  0.00     0.010 C 
ATOM     34  H12 PU2 d   1       4.381  16.774  26.182  0.00  0.00     0.066 H 
ATOM     35  H13 PU2 d   1       5.551  16.473  24.853  0.00  0.00     0.066 H 
ATOM     36  H14 PU2 d   1       5.771  15.666  26.443  0.00  0.00     0.066 H 
ENDBRANCH  32  33
ENDBRANCH   6  32
TORSDOF 7
