REMARK  11 active torsions:
REMARK  status: ('A' for Active; 'I' for Inactive)
REMARK    1  A    between atoms: O20_3  and  C19_1 
REMARK    2  A    between atoms: O20_3  and  C6_4 
REMARK    3  A    between atoms: C3_6  and  O2_7 
REMARK    4  A    between atoms: O2_7  and  C8_8 
REMARK    5  A    between atoms: C1_10  and  C9_11 
REMARK    6  A    between atoms: C9_11  and  C10_12 
REMARK    7  A    between atoms: C13_15  and  N5_16 
REMARK    8  A    between atoms: N2_21  and  C15_22 
REMARK    9  A    between atoms: C15_22  and  C16_23 
REMARK   10  A    between atoms: C16_23  and  C17_24 
REMARK   11  A    between atoms: C17_24  and  C18_25 
ROOT
ATOM      1  C10 PU0 d   1       2.184  10.465  23.925  0.00  0.00     0.113 A 
ATOM      2  N1  PU0 d   1       0.931  10.981  23.627  0.00  0.00    -0.227 NA
ATOM      3  C11 PU0 d   1       0.152  10.651  24.698  0.00  0.00     0.150 A 
ATOM      4  C13 PU0 d   1      -1.209  10.833  24.970  0.00  0.00     0.159 A 
ATOM      5  C12 PU0 d   1       0.942   9.990  25.622  0.00  0.00     0.168 A 
ATOM      6  N4  PU0 d   1       0.427   9.562  26.794  0.00  0.00    -0.182 NA
ATOM      7  C14 PU0 d   1      -0.897   9.789  27.031  0.00  0.00     0.313 A 
ATOM      8  N3  PU0 d   1      -1.689  10.396  26.158  0.00  0.00    -0.183 NA
ATOM      9  N2  PU0 d   1       2.179   9.852  25.122  0.00  0.00    -0.317 N 
ATOM     10  F1  PU0 d   1      -1.463   9.406  28.175  0.00  0.00    -0.161 F 
ENDROOT
BRANCH   1  11
ATOM     11  C9  PU0 d   1       3.431  10.567  23.094  0.00  0.00     0.017 C 
ATOM     12  H10 PU0 d   1       3.974   9.611  23.136  0.00  0.00     0.051 H 
ATOM     13  H11 PU0 d   1       3.155  10.786  22.052  0.00  0.00     0.051 H 
BRANCH  11  14
ATOM     14  C1  PU0 d   1       4.334  11.682  23.621  0.00  0.00    -0.015 A 
ATOM     15  C6  PU0 d   1       5.746  11.581  23.496  0.00  0.00     0.075 A 
ATOM     16  C5  PU0 d   1       6.561  12.606  23.957  0.00  0.00    -0.048 A 
ATOM     17  C4  PU0 d   1       6.028  13.764  24.569  0.00  0.00    -0.048 A 
ATOM     18  H4  PU0 d   1       7.635  12.516  23.845  0.00  0.00     0.087 H 
ATOM     19  C3  PU0 d   1       4.640  13.843  24.721  0.00  0.00     0.068 A 
ATOM     20  H5  PU0 d   1       6.675  14.565  24.909  0.00  0.00     0.087 H 
ATOM     21  C2  PU0 d   1       3.803  12.822  24.230  0.00  0.00    -0.042 A 
ATOM     22  H9  PU0 d   1       2.728  12.922  24.326  0.00  0.00     0.088 H 
BRANCH  15  23
ATOM     23  O20 PU0 d   1       6.268  10.473  22.883  0.00  0.00    -0.355 OA
BRANCH  23  24
ATOM     24  C19 PU0 d   1       7.660  10.137  22.827  0.00  0.00     0.010 C 
ATOM     25  H1  PU0 d   1       7.788   9.195  22.273  0.00  0.00     0.066 H 
ATOM     26  H2  PU0 d   1       8.050  10.017  23.849  0.00  0.00     0.066 H 
ATOM     27  H3  PU0 d   1       8.211  10.941  22.317  0.00  0.00     0.066 H 
ENDBRANCH  23  24
ENDBRANCH  15  23
BRANCH  19  28
ATOM     28  O2  PU0 d   1       4.057  14.938  25.298  0.00  0.00    -0.356 OA
BRANCH  28  29
ATOM     29  C8  PU0 d   1       4.789  16.068  25.796  0.00  0.00     0.010 C 
ATOM     30  H6  PU0 d   1       4.086  16.807  26.208  0.00  0.00     0.066 H 
ATOM     31  H7  PU0 d   1       5.362  16.524  24.975  0.00  0.00     0.066 H 
ATOM     32  H8  PU0 d   1       5.480  15.738  26.586  0.00  0.00     0.066 H 
ENDBRANCH  28  29
ENDBRANCH  19  28
ENDBRANCH  11  14
ENDBRANCH   1  11
BRANCH   9  33
ATOM     33  C15 PU0 d   1       3.363   9.245  25.789  0.00  0.00     0.003 C 
ATOM     34  H14 PU0 d   1       3.397   9.606  26.827  0.00  0.00     0.065 H 
ATOM     35  H15 PU0 d   1       4.267   9.575  25.256  0.00  0.00     0.065 H 
BRANCH  33  36
ATOM     36  C16 PU0 d   1       3.352   7.724  25.813  0.00  0.00    -0.050 C 
ATOM     37  H16 PU0 d   1       2.316   7.385  25.963  0.00  0.00     0.035 H 
ATOM     38  H17 PU0 d   1       3.975   7.384  26.654  0.00  0.00     0.035 H 
BRANCH  36  39
ATOM     39  C17 PU0 d   1       3.883   7.099  24.537  0.00  0.00    -0.067 C 
ATOM     40  H18 PU0 d   1       3.216   7.385  23.711  0.00  0.00     0.032 H 
ATOM     41  H19 PU0 d   1       3.869   6.006  24.658  0.00  0.00     0.032 H 
BRANCH  39  42
ATOM     42  C18 PU0 d   1       5.298   7.518  24.172  0.00  0.00    -0.076 C 
ATOM     43  H20 PU0 d   1       5.599   7.019  23.239  0.00  0.00     0.027 H 
ATOM     44  H21 PU0 d   1       5.986   7.229  24.980  0.00  0.00     0.027 H 
ATOM     45  H22 PU0 d   1       5.333   8.609  24.033  0.00  0.00     0.027 H 
ENDBRANCH  39  42
ENDBRANCH  36  39
ENDBRANCH  33  36
ENDBRANCH   9  33
BRANCH   4  46
ATOM     46  N5  PU0 d   1      -2.056  11.469  24.084  0.00  0.00    -0.382 N 
ATOM     47  H12 PU0 d   1      -3.052  11.585  24.317  0.00  0.00     0.157 HD
ATOM     48  H13 PU0 d   1      -1.691  11.827  23.190  0.00  0.00     0.157 HD
ENDBRANCH   4  46
TORSDOF 11
