REMARK  11 active torsions:
REMARK  status: ('A' for Active; 'I' for Inactive)
REMARK    1  A    between atoms: C18_2  and  C17_3 
REMARK    2  A    between atoms: C17_3  and  C16_4 
REMARK    3  A    between atoms: C16_4  and  C15_5 
REMARK    4  A    between atoms: C15_5  and  N2_6 
REMARK    5  A    between atoms: C13_10  and  N5_11 
REMARK    6  A    between atoms: C10_16  and  C9_17 
REMARK    7  A    between atoms: C9_17  and  C1_18 
REMARK    8  A    between atoms: C2_19  and  O2_20 
REMARK    9  A    between atoms: O2_20  and  C7_21 
REMARK   10  A    between atoms: C5_24  and  O5_26 
REMARK   11  A    between atoms: O5_26  and  C8_27 
ROOT
ATOM      1  C19 PUZ d   1       5.199   7.982  29.013  0.00  0.00    -0.154 C 
ATOM      2  C18 PUZ d   1       4.981   7.654  27.777  0.00  0.00    -0.117 C 
ATOM      3  H1  PUZ d   1       5.377   8.249  30.019  0.00  0.00     0.166 H 
ENDROOT
BRANCH   2   4
ATOM      4  C17 PUZ d   1       4.680   7.289  26.366  0.00  0.00    -0.009 C 
ATOM      5  H2  PUZ d   1       4.597   6.195  26.286  0.00  0.00     0.051 H 
ATOM      6  H3  PUZ d   1       5.496   7.643  25.719  0.00  0.00     0.051 H 
BRANCH   4   7
ATOM      7  C16 PUZ d   1       3.354   7.933  25.908  0.00  0.00    -0.040 C 
ATOM      8  H4  PUZ d   1       2.531   7.572  26.543  0.00  0.00     0.036 H 
ATOM      9  H5  PUZ d   1       3.156   7.662  24.861  0.00  0.00     0.036 H 
BRANCH   7  10
ATOM     10  C15 PUZ d   1       3.466   9.461  26.031  0.00  0.00     0.004 C 
ATOM     11  H6  PUZ d   1       4.387   9.813  25.544  0.00  0.00     0.065 H 
ATOM     12  H7  PUZ d   1       3.476   9.756  27.091  0.00  0.00     0.065 H 
BRANCH  10  13
ATOM     13  N2  PUZ d   1       2.283  10.033  25.356  0.00  0.00    -0.317 N 
ATOM     14  C12 PUZ d   1       1.033  10.147  25.850  0.00  0.00     0.168 A 
ATOM     15  N4  PUZ d   1       0.566   9.767  27.042  0.00  0.00    -0.182 NA
ATOM     16  C11 PUZ d   1       0.225  10.747  24.923  0.00  0.00     0.150 A 
ATOM     17  C14 PUZ d   1      -0.726   9.979  27.307  0.00  0.00     0.313 A 
ATOM     18  N3  PUZ d   1      -1.560  10.549  26.428  0.00  0.00    -0.183 NA
ATOM     19  F1  PUZ d   1      -1.180   9.600  28.474  0.00  0.00    -0.161 F 
ATOM     20  C13 PUZ d   1      -1.123  10.934  25.230  0.00  0.00     0.159 A 
ATOM     21  N1  PUZ d   1       0.997  11.024  23.841  0.00  0.00    -0.227 NA
ATOM     22  C10 PUZ d   1       2.246  10.548  24.120  0.00  0.00     0.113 A 
BRANCH  20  23
ATOM     23  N5  PUZ d   1      -2.008  11.492  24.385  0.00  0.00    -0.382 N 
ATOM     24  H8  PUZ d   1      -2.992  11.603  24.669  0.00  0.00     0.157 HD
ATOM     25  H9  PUZ d   1      -1.702  11.808  23.454  0.00  0.00     0.157 HD
ENDBRANCH  20  23
BRANCH  22  26
ATOM     26  C9  PUZ d   1       3.481  10.617  23.259  0.00  0.00     0.017 C 
ATOM     27  H10 PUZ d   1       3.178  10.728  22.207  0.00  0.00     0.051 H 
ATOM     28  H11 PUZ d   1       4.053   9.685  23.380  0.00  0.00     0.051 H 
BRANCH  26  29
ATOM     29  C1  PUZ d   1       4.367  11.796  23.646  0.00  0.00    -0.015 A 
ATOM     30  C2  PUZ d   1       5.740  11.732  23.333  0.00  0.00     0.075 A 
ATOM     31  C3  PUZ d   1       6.611  12.802  23.622  0.00  0.00    -0.048 A 
ATOM     32  C4  PUZ d   1       6.055  13.934  24.236  0.00  0.00    -0.048 A 
ATOM     33  H15 PUZ d   1       7.666  12.752  23.380  0.00  0.00     0.087 H 
ATOM     34  C5  PUZ d   1       4.695  13.995  24.577  0.00  0.00     0.068 A 
ATOM     35  H16 PUZ d   1       6.692  14.784  24.453  0.00  0.00     0.087 H 
ATOM     36  C6  PUZ d   1       3.837  12.919  24.274  0.00  0.00    -0.042 A 
ATOM     37  H17 PUZ d   1       2.784  12.965  24.526  0.00  0.00     0.088 H 
BRANCH  30  38
ATOM     38  O2  PUZ d   1       6.215  10.596  22.709  0.00  0.00    -0.355 OA
BRANCH  38  39
ATOM     39  C7  PUZ d   1       7.496  10.037  23.023  0.00  0.00     0.010 C 
ATOM     40  H12 PUZ d   1       7.665   9.140  22.409  0.00  0.00     0.066 H 
ATOM     41  H13 PUZ d   1       7.525   9.763  24.088  0.00  0.00     0.066 H 
ATOM     42  H14 PUZ d   1       8.281  10.779  22.814  0.00  0.00     0.066 H 
ENDBRANCH  38  39
ENDBRANCH  30  38
BRANCH  34  43
ATOM     43  O5  PUZ d   1       4.163  15.108  25.189  0.00  0.00    -0.356 OA
BRANCH  43  44
ATOM     44  C8  PUZ d   1       4.943  16.252  25.577  0.00  0.00     0.010 C 
ATOM     45  H18 PUZ d   1       4.287  17.002  26.043  0.00  0.00     0.066 H 
ATOM     46  H19 PUZ d   1       5.423  16.687  24.688  0.00  0.00     0.066 H 
ATOM     47  H20 PUZ d   1       5.715  15.942  26.296  0.00  0.00     0.066 H 
ENDBRANCH  43  44
ENDBRANCH  34  43
ENDBRANCH  26  29
ENDBRANCH  22  26
ENDBRANCH  10  13
ENDBRANCH   7  10
ENDBRANCH   4   7
ENDBRANCH   2   4
TORSDOF 11
