REMARK  7 active torsions:
REMARK  status: ('A' for Active; 'I' for Inactive)
REMARK    1  A    between atoms: C18_1  and  C17_2 
REMARK    2  A    between atoms: C17_2  and  C16_3 
REMARK    3  A    between atoms: C16_3  and  C15_4 
REMARK    4  A    between atoms: C15_4  and  N2_5 
REMARK    5  A    between atoms: C13_11  and  N5_12 
REMARK    6  A    between atoms: C10_14  and  C9_15 
REMARK    7  A    between atoms: C9_15  and  C1_16 
ROOT
ATOM      1  N2  PUX d   1       2.093   9.890  25.550  0.00  0.00    -0.317 N 
ATOM      2  C12 PUX d   1       0.825  10.007  26.052  0.00  0.00     0.168 A 
ATOM      3  N4  PUX d   1       0.314   9.540  27.257  0.00  0.00    -0.182 NA
ATOM      4  C14 PUX d   1      -0.976   9.678  27.618  0.00  0.00     0.313 A 
ATOM      5  N3  PUX d   1      -1.720  10.344  26.692  0.00  0.00    -0.183 NA
ATOM      6  C11 PUX d   1       0.006  10.676  25.121  0.00  0.00     0.150 A 
ATOM      7  C13 PUX d   1      -1.312  10.864  25.467  0.00  0.00     0.159 A 
ATOM      8  N1  PUX d   1       0.757  10.979  24.039  0.00  0.00    -0.227 NA
ATOM      9  C10 PUX d   1       2.073  10.531  24.265  0.00  0.00     0.113 A 
ATOM     10  F   PUX d   1      -1.833   9.392  29.018  0.00  0.00    -0.161 F 
ENDROOT
BRANCH   9  11
ATOM     11  C9  PUX d   1       3.306  10.745  23.283  0.00  0.00     0.014 C 
ATOM     12  H12 PUX d   1       2.938  10.973  22.272  0.00  0.00     0.051 H 
ATOM     13  H13 PUX d   1       3.918   9.832  23.253  0.00  0.00     0.051 H 
BRANCH  11  14
ATOM     14  C1  PUX d   1       4.145  11.908  23.798  0.00  0.00    -0.048 A 
ATOM     15  C6  PUX d   1       3.540  13.049  24.344  0.00  0.00    -0.041 A 
ATOM     16  C5  PUX d   1       4.421  14.036  24.800  0.00  0.00     0.105 A 
ATOM     17  H14 PUX d   1       2.463  13.159  24.409  0.00  0.00     0.088 H 
ATOM     18  O3  PUX d   1       4.173  15.273  25.369  0.00  0.00    -0.323 OA
ATOM     19  C4  PUX d   1       5.777  13.901  24.739  0.00  0.00     0.105 A 
ATOM     20  C7  PUX d   1       5.356  15.899  25.817  0.00  0.00     0.115 C 
ATOM     21  O1  PUX d   1       6.309  14.993  25.287  0.00  0.00    -0.323 OA
ATOM     22  H17 PUX d   1       5.404  15.950  26.915  0.00  0.00     0.118 H 
ATOM     23  H18 PUX d   1       5.471  16.909  25.397  0.00  0.00     0.118 H 
ATOM     24  C3  PUX d   1       6.425  12.780  24.249  0.00  0.00    -0.047 A 
ATOM     25  C2  PUX d   1       5.528  11.765  23.762  0.00  0.00    -0.074 A 
ATOM     26  H16 PUX d   1       7.504  12.677  24.234  0.00  0.00     0.087 H 
ATOM     27  H15 PUX d   1       5.947  10.854  23.351  0.00  0.00     0.084 H 
ENDBRANCH  11  14
ENDBRANCH   9  11
BRANCH   1  28
ATOM     28  C15 PUX d   1       3.220   9.247  26.241  0.00  0.00     0.003 C 
ATOM     29  H8  PUX d   1       4.141   9.706  25.853  0.00  0.00     0.065 H 
ATOM     30  H9  PUX d   1       3.118   9.479  27.311  0.00  0.00     0.065 H 
BRANCH  28  31
ATOM     31  C16 PUX d   1       3.389   7.724  26.123  0.00  0.00    -0.050 C 
ATOM     32  H6  PUX d   1       4.023   7.405  26.963  0.00  0.00     0.035 H 
ATOM     33  H7  PUX d   1       2.388   7.280  26.230  0.00  0.00     0.035 H 
BRANCH  31  34
ATOM     34  C17 PUX d   1       4.010   7.135  24.839  0.00  0.00    -0.067 C 
ATOM     35  H4  PUX d   1       4.086   6.045  24.970  0.00  0.00     0.032 H 
ATOM     36  H5  PUX d   1       3.330   7.357  24.003  0.00  0.00     0.032 H 
BRANCH  34  37
ATOM     37  C18 PUX d   1       5.394   7.659  24.468  0.00  0.00    -0.076 C 
ATOM     38  H1  PUX d   1       5.734   7.172  23.542  0.00  0.00     0.027 H 
ATOM     39  H2  PUX d   1       6.101   7.436  25.281  0.00  0.00     0.027 H 
ATOM     40  H3  PUX d   1       5.345   8.747  24.314  0.00  0.00     0.027 H 
ENDBRANCH  34  37
ENDBRANCH  31  34
ENDBRANCH  28  31
ENDBRANCH   1  28
BRANCH   7  41
ATOM     41  N5  PUX d   1      -2.195  11.552  24.652  0.00  0.00    -0.382 N 
ATOM     42  H10 PUX d   1      -1.875  11.930  23.749  0.00  0.00     0.157 HD
ATOM     43  H11 PUX d   1      -3.172  11.686  24.949  0.00  0.00     0.157 HD
ENDBRANCH   7  41
TORSDOF 7
