REMARK  13 active torsions:
REMARK  status: ('A' for Active; 'I' for Inactive)
REMARK    1  A    between atoms: C19_1  and  O3_2 
REMARK    2  A    between atoms: O3_2  and  C5_3 
REMARK    3  A    between atoms: C4_5  and  O1_6 
REMARK    4  A    between atoms: O1_6  and  C7_7 
REMARK    5  A    between atoms: C3_8  and  O2_9 
REMARK    6  A    between atoms: O2_9  and  C8_10 
REMARK    7  A    between atoms: C1_12  and  C9_13 
REMARK    8  A    between atoms: C9_13  and  C10_14 
REMARK    9  A    between atoms: C13_17  and  N5_18 
REMARK   10  A    between atoms: N2_23  and  C15_24 
REMARK   11  A    between atoms: C15_24  and  C16_25 
REMARK   12  A    between atoms: C16_25  and  C17_26 
REMARK   13  A    between atoms: C17_26  and  C18_27 
ROOT
ATOM      1  C10 PU3 d   1       2.183  10.742  23.956  0.00  0.00     0.113 A 
ATOM      2  N1  PU3 d   1       0.921  11.249  23.743  0.00  0.00    -0.227 NA
ATOM      3  C11 PU3 d   1       0.145  10.833  24.752  0.00  0.00     0.150 A 
ATOM      4  C13 PU3 d   1      -1.266  11.007  25.164  0.00  0.00     0.155 A 
ATOM      5  C12 PU3 d   1       1.016  10.043  25.583  0.00  0.00     0.165 A 
ATOM      6  N4  PU3 d   1       0.564   9.468  26.735  0.00  0.00    -0.222 NA
ATOM      7  C14 PU3 d   1      -0.826   9.628  27.163  0.00  0.00     0.091 A 
ATOM      8  N3  PU3 d   1      -1.618  10.452  26.238  0.00  0.00    -0.222 NA
ATOM      9  N2  PU3 d   1       2.242   9.997  25.083  0.00  0.00    -0.317 N 
ATOM     10  H16 PU3 d   1      -1.229   9.186  28.067  0.00  0.00     0.146 H 
ENDROOT
BRANCH   1  11
ATOM     11  C9  PU3 d   1       3.350  10.970  23.024  0.00  0.00     0.014 C 
ATOM     12  H12 PU3 d   1       3.673   9.993  22.634  0.00  0.00     0.051 H 
ATOM     13  H13 PU3 d   1       3.006  11.601  22.192  0.00  0.00     0.051 H 
BRANCH  11  14
ATOM     14  C1  PU3 d   1       4.554  11.647  23.667  0.00  0.00    -0.046 C 
ATOM     15  C6  PU3 d   1       5.760  11.091  23.358  0.00  0.00    -0.041 C 
ATOM     16  C5  PU3 d   1       6.991  11.630  24.041  0.00  0.00     0.104 C 
ATOM     17  H4  PU3 d   1       5.832  10.282  22.640  0.00  0.00     0.088 H 
ATOM     18  C4  PU3 d   1       6.761  12.923  24.724  0.00  0.00     0.135 C 
ATOM     19  C3  PU3 d   1       5.352  13.322  25.006  0.00  0.00     0.104 C 
ATOM     20  C2  PU3 d   1       4.398  12.690  24.412  0.00  0.00    -0.041 C 
ATOM     21  H11 PU3 d   1       3.389  13.062  24.548  0.00  0.00     0.088 H 
BRANCH  16  22
ATOM     22  O3  PU3 d   1       8.344  11.256  23.734  0.00  0.00    -0.353 OA
BRANCH  22  23
ATOM     23  C19 PU3 d   1       8.464  10.076  22.946  0.00  0.00     0.010 C 
ATOM     24  H1  PU3 d   1       9.528   9.866  22.760  0.00  0.00     0.066 H 
ATOM     25  H2  PU3 d   1       7.946  10.222  21.987  0.00  0.00     0.066 H 
ATOM     26  H3  PU3 d   1       8.011   9.229  23.483  0.00  0.00     0.066 H 
ENDBRANCH  22  23
ENDBRANCH  16  22
BRANCH  18  27
ATOM     27  O1  PU3 d   1       7.808  13.583  25.438  0.00  0.00    -0.351 OA
BRANCH  27  28
ATOM     28  C7  PU3 d   1       8.308  14.668  24.663  0.00  0.00     0.011 C 
ATOM     29  H5  PU3 d   1       9.114  15.173  25.216  0.00  0.00     0.067 H 
ATOM     30  H6  PU3 d   1       7.495  15.382  24.465  0.00  0.00     0.067 H 
ATOM     31  H7  PU3 d   1       8.701  14.287  23.709  0.00  0.00     0.067 H 
ENDBRANCH  27  28
ENDBRANCH  18  27
BRANCH  19  32
ATOM     32  O2  PU3 d   1       5.200  14.500  25.854  0.00  0.00    -0.353 OA
BRANCH  32  33
ATOM     33  C8  PU3 d   1       4.429  15.640  25.533  0.00  0.00     0.010 C 
ATOM     34  H8  PU3 d   1       4.495  16.370  26.353  0.00  0.00     0.066 H 
ATOM     35  H9  PU3 d   1       3.379  15.344  25.390  0.00  0.00     0.066 H 
ATOM     36  H10 PU3 d   1       4.812  16.093  24.607  0.00  0.00     0.066 H 
ENDBRANCH  32  33
ENDBRANCH  19  32
ENDBRANCH  11  14
ENDBRANCH   1  11
BRANCH   9  37
ATOM     37  C15 PU3 d   1       3.388   9.267  25.611  0.00  0.00     0.003 C 
ATOM     38  H17 PU3 d   1       3.367   9.255  26.711  0.00  0.00     0.065 H 
ATOM     39  H18 PU3 d   1       4.329   9.721  25.267  0.00  0.00     0.065 H 
BRANCH  37  40
ATOM     40  C16 PU3 d   1       3.236   7.846  25.052  0.00  0.00    -0.050 C 
ATOM     41  H19 PU3 d   1       2.799   7.919  24.045  0.00  0.00     0.035 H 
ATOM     42  H20 PU3 d   1       2.551   7.291  25.709  0.00  0.00     0.035 H 
BRANCH  40  43
ATOM     43  C17 PU3 d   1       4.538   7.058  24.949  0.00  0.00    -0.067 C 
ATOM     44  H21 PU3 d   1       4.308   5.985  25.030  0.00  0.00     0.032 H 
ATOM     45  H22 PU3 d   1       5.197   7.355  25.778  0.00  0.00     0.032 H 
BRANCH  43  46
ATOM     46  C18 PU3 d   1       5.263   7.303  23.640  0.00  0.00    -0.076 C 
ATOM     47  H23 PU3 d   1       6.191   6.713  23.619  0.00  0.00     0.027 H 
ATOM     48  H24 PU3 d   1       5.506   8.372  23.550  0.00  0.00     0.027 H 
ATOM     49  H25 PU3 d   1       4.618   7.002  22.802  0.00  0.00     0.027 H 
ENDBRANCH  43  46
ENDBRANCH  40  43
ENDBRANCH  37  40
ENDBRANCH   9  37
BRANCH   4  50
ATOM     50  N5  PU3 d   1      -2.102  11.740  24.423  0.00  0.00    -0.382 N 
ATOM     51  H14 PU3 d   1      -3.083  11.857  24.716  0.00  0.00     0.157 HD
ATOM     52  H15 PU3 d   1      -1.766  12.188  23.559  0.00  0.00     0.157 HD
ENDBRANCH   4  50
TORSDOF 13
