REMARK  7 active torsions:
REMARK  status: ('A' for Active; 'I' for Inactive)
REMARK    1  A    between atoms: C1_2  and  C2_4 
REMARK    2  A    between atoms: C2_4  and  C2A_5 
REMARK    3  A    between atoms: C2_4  and  O2_6 
REMARK    4  A    between atoms: O2_6  and  C3_7 
REMARK    5  A    between atoms: C8_12  and  O8_13 
REMARK    6  A    between atoms: O8_13  and  C9_14 
REMARK    7  A    between atoms: C11_17  and  C12_18 
ROOT
ATOM      1  C3  H1L d   1      -0.146  18.051 -19.593  0.00  0.00     0.070 A 
ATOM      2  C4  H1L d   1      -0.135  19.424 -19.300  0.00  0.00    -0.048 A 
ATOM      3  C5  H1L d   1      -0.054  19.872 -17.973  0.00  0.00    -0.048 A 
ATOM      4  C6  H1L d   1      -0.100  17.127 -18.521  0.00  0.00    -0.048 A 
ATOM      5  C7  H1L d   1      -0.032  17.580 -17.219  0.00  0.00    -0.048 A 
ATOM      6  C8  H1L d   1       0.008  18.948 -16.961  0.00  0.00     0.078 A 
ATOM      7  H5  H1L d   1      -0.190  20.145 -20.107  0.00  0.00     0.087 H 
ATOM      8  H6  H1L d   1      -0.041  20.933 -17.751  0.00  0.00     0.087 H 
ATOM      9  H7  H1L d   1      -0.118  16.062 -18.723  0.00  0.00     0.087 H 
ATOM     10  H8  H1L d   1      -0.010  16.872 -16.398  0.00  0.00     0.087 H 
ENDROOT
BRANCH   6  11
ATOM     11  O8  H1L d   1       0.257  19.349 -15.651  0.00  0.00    -0.291 OA
BRANCH  11  12
ATOM     12  C9  H1L d   1      -0.866  19.494 -14.898  0.00  0.00     0.191 A 
ATOM     13  N9  H1L d   1      -2.028  19.059 -15.296  0.00  0.00    -0.234 NA
ATOM     14  C10 H1L d   1      -3.140  19.160 -14.522  0.00  0.00     0.020 A 
ATOM     15  C11 H1L d   1      -3.055  19.730 -13.291  0.00  0.00     0.067 A 
ATOM     16  H9  H1L d   1      -4.091  18.788 -14.885  0.00  0.00     0.116 H 
ATOM     17  C13 H1L d   1      -1.840  20.224 -12.821  0.00  0.00    -0.042 A 
ATOM     18  C14 H1L d   1      -0.703  20.112 -13.640  0.00  0.00     0.088 A 
ATOM     19  H10 H1L d   1      -1.773  20.686 -11.843  0.00  0.00     0.087 H 
ATOM     20 CL14 H1L d   1       0.822  20.672 -13.141  0.00  0.00    -0.080 Cl
BRANCH  15  21
ATOM     21  C12 H1L d   1      -4.285  19.833 -12.395  0.00  0.00     0.418 C 
ATOM     22  F1  H1L d   1      -5.351  19.361 -13.028  0.00  0.00    -0.166 F 
ATOM     23  F2  H1L d   1      -4.059  19.119 -11.298  0.00  0.00    -0.166 F 
ATOM     24  F3  H1L d   1      -4.513  21.092 -12.062  0.00  0.00    -0.166 F 
ENDBRANCH  15  21
ENDBRANCH  11  12
ENDBRANCH   6  11
BRANCH   1  25
ATOM     25  O2  H1L d   1      -0.085  17.557 -20.832  0.00  0.00    -0.336 OA
BRANCH  25  26
ATOM     26  C2  H1L d   1      -0.904  18.259 -21.791  0.00  0.00     0.125 C 
ATOM     27  H1  H1L d   1      -1.461  19.064 -21.290  0.00  0.00     0.100 H 
BRANCH  26  28
ATOM     28  C1  H1L d   1       0.005  18.851 -22.841  0.00  0.00     0.203 C 
ATOM     29  O1A H1L d   1      -0.432  19.698 -23.633  0.00  0.00    -0.646 OA
ATOM     30  O1B H1L d   1       1.188  18.495 -22.916  0.00  0.00    -0.646 OA
ENDBRANCH  26  28
BRANCH  26  31
ATOM     31  C2A H1L d   1      -1.894  17.272 -22.423  0.00  0.00    -0.042 C 
ATOM     32  H2  H1L d   1      -2.545  16.854 -21.641  0.00  0.00     0.031 H 
ATOM     33  H3  H1L d   1      -1.339  16.458 -22.912  0.00  0.00     0.031 H 
ATOM     34  H4  H1L d   1      -2.508  17.796 -23.170  0.00  0.00     0.031 H 
ENDBRANCH  26  31
ENDBRANCH  25  26
ENDBRANCH   1  25
TORSDOF 7
