REMARK  9 active torsions:
REMARK  status: ('A' for Active; 'I' for Inactive)
REMARK    1  A    between atoms: C2_9  and  N1_6 
REMARK    2  A    between atoms: N1_6  and  C4_11 
REMARK       I    between atoms: N2_7  and  C1_8 
REMARK    3  A    between atoms: C1_8  and  C2_9 
REMARK    4  A    between atoms: C2_9  and  C10_17 
REMARK    5  A    between atoms: C4_11  and  C3_10 
REMARK    6  A    between atoms: C4_11  and  C14_18 
REMARK    7  A    between atoms: C5_12  and  C9_16 
REMARK    8  A    between atoms: C14_18  and  C15_19 
REMARK    9  A    between atoms: C15_19  and  C16_20 
ROOT
ATOM      1  N1  EAL d   1      41.771  34.472  47.118  0.00  0.00    -0.049 N 
ATOM      2  H1  EAL d   1      42.465  34.303  47.829  0.00  0.00     0.279 HD
ATOM      3  H2  EAL d   1      41.059  33.760  47.167  0.00  0.00     0.279 HD
ENDROOT
BRANCH   1   4
ATOM      4  C2  EAL d   1      42.492  34.196  45.813  0.00  0.00     0.175 C 
ATOM      5  H3  EAL d   1      43.310  34.921  45.691  0.00  0.00     0.099 H 
BRANCH   4   6
ATOM      6  C1  EAL d   1      41.415  34.391  44.676  0.00  0.00     0.251 C 
ATOM      7  O1  EAL d   1      40.192  34.094  44.927  0.00  0.00    -0.271 OA
ATOM      8  N2  EAL d   1      41.757  34.874  43.435  0.00  0.00    -0.329 N 
ATOM      9  C5  EAL d   1      40.684  35.023  42.363  0.00  0.00     0.115 A 
ATOM     10  C8  EAL d   1      43.094  35.308  42.933  0.00  0.00     0.014 A 
ATOM     11  C6  EAL d   1      41.509  35.588  41.179  0.00  0.00    -0.073 A 
ATOM     12  H5  EAL d   1      39.894  35.725  42.669  0.00  0.00     0.096 H 
ATOM     13  C7  EAL d   1      42.821  35.728  41.557  0.00  0.00    -0.087 A 
ATOM     14  H6  EAL d   1      41.109  35.836  40.197  0.00  0.00     0.080 H 
ATOM     15  H7  EAL d   1      43.591  36.117  40.892  0.00  0.00     0.079 H 
ATOM     16  H8  EAL d   1      43.812  34.475  42.955  0.00  0.00     0.070 H 
ATOM     17  H9  EAL d   1      43.486  36.145  43.529  0.00  0.00     0.070 H 
BRANCH   9  18
ATOM     18  C9  EAL d   1      40.041  33.603  42.040  0.00  0.00     0.200 C 
ATOM     19  O4  EAL d   1      38.804  33.684  41.705  0.00  0.00    -0.646 OA
ATOM     20  O5  EAL d   1      40.674  32.586  42.127  0.00  0.00    -0.646 OA
ENDBRANCH   9  18
ENDBRANCH   4   6
BRANCH   4  21
ATOM     21  C10 EAL d   1      43.074  32.775  45.712  0.00  0.00    -0.041 C 
ATOM     22  H10 EAL d   1      43.578  32.654  44.742  0.00  0.00     0.030 H 
ATOM     23  H11 EAL d   1      42.261  32.039  45.797  0.00  0.00     0.030 H 
ATOM     24  H12 EAL d   1      43.798  32.617  46.524  0.00  0.00     0.030 H 
ENDBRANCH   4  21
ENDBRANCH   1   4
BRANCH   1  25
ATOM     25  C4  EAL d   1      41.198  35.509  47.485  0.00  0.00     0.185 C 
ATOM     26  H4  EAL d   1      40.451  35.693  46.699  0.00  0.00     0.101 H 
BRANCH  25  27
ATOM     27  C3  EAL d   1      42.207  36.664  47.530  0.00  0.00     0.204 C 
ATOM     28  O2  EAL d   1      43.285  36.522  48.186  0.00  0.00    -0.646 OA
ATOM     29  O3  EAL d   1      41.988  37.694  46.909  0.00  0.00    -0.646 OA
ENDBRANCH  25  27
BRANCH  25  30
ATOM     30  C14 EAL d   1      40.506  35.772  48.779  0.00  0.00    -0.025 C 
ATOM     31  H13 EAL d   1      41.291  36.170  49.439  0.00  0.00     0.037 H 
ATOM     32  H14 EAL d   1      40.195  34.779  49.136  0.00  0.00     0.037 H 
BRANCH  30  33
ATOM     33  C15 EAL d   1      39.303  36.665  49.029  0.00  0.00    -0.039 C 
ATOM     34  H15 EAL d   1      38.489  36.290  48.391  0.00  0.00     0.040 H 
ATOM     35  H16 EAL d   1      39.585  37.678  48.705  0.00  0.00     0.040 H 
BRANCH  33  36
ATOM     36  C16 EAL d   1      38.747  36.791  50.411  0.00  0.00    -0.058 A 
ATOM     37  C17 EAL d   1      38.524  35.600  51.257  0.00  0.00    -0.077 A 
ATOM     38  C18 EAL d   1      37.971  35.745  52.595  0.00  0.00    -0.082 A 
ATOM     39  H17 EAL d   1      38.773  34.615  50.879  0.00  0.00     0.084 H 
ATOM     40  C19 EAL d   1      37.630  37.081  53.111  0.00  0.00    -0.083 A 
ATOM     41  H18 EAL d   1      37.810  34.869  53.212  0.00  0.00     0.083 H 
ATOM     42  C20 EAL d   1      37.850  38.274  52.274  0.00  0.00    -0.082 A 
ATOM     43  H19 EAL d   1      37.217  37.187  54.108  0.00  0.00     0.083 H 
ATOM     44  C21 EAL d   1      38.407  38.130  50.926  0.00  0.00    -0.077 A 
ATOM     45  H20 EAL d   1      37.600  39.258  52.655  0.00  0.00     0.083 H 
ATOM     46  H21 EAL d   1      38.569  39.006  50.309  0.00  0.00     0.084 H 
ENDBRANCH  33  36
ENDBRANCH  30  33
ENDBRANCH  25  30
ENDBRANCH   1  25
TORSDOF 9
