REMARK  7 active torsions:
REMARK  status: ('A' for Active; 'I' for Inactive)
REMARK    1  A    between atoms: C2_2  and  O2_3 
REMARK    2  A    between atoms: C3_4  and  O3_5 
REMARK    3  A    between atoms: C4_6  and  O4_7 
REMARK    4  A    between atoms: O4_7  and  C1B_10 
REMARK    5  A    between atoms: C2B_11  and  O2B_15 
REMARK    6  A    between atoms: C3B_12  and  O3B_16 
REMARK    7  A    between atoms: C4B_13  and  O4B_17 
ROOT
ATOM      1  C1  XDN d   1      10.515  17.806  15.218  0.00  0.00     0.107 C 
ATOM      2  C2  XDN d   1      10.511  17.459  16.708  0.00  0.00     0.086 C 
ATOM      3  C3  XDN d   1      10.114  15.996  16.998  0.00  0.00     0.088 C 
ATOM      4  C4  XDN d   1       8.821  15.733  16.249  0.00  0.00     0.091 C 
ATOM      5  C5  XDN d   1       9.059  15.901  14.745  0.00  0.00     0.108 C 
ATOM      6  N5  XDN d   1       9.285  17.347  14.517  0.00  0.00    -0.070 N 
ATOM      7  H1  XDN d   1      11.387  17.328  14.748  0.00  0.00     0.079 H 
ATOM      8  H2  XDN d   1      10.594  18.898  15.111  0.00  0.00     0.079 H 
ATOM      9  H3  XDN d   1       9.753  18.094  17.190  0.00  0.00     0.089 H 
ATOM     10  H5  XDN d   1      10.906  15.307  16.669  0.00  0.00     0.091 H 
ATOM     11  H7  XDN d   1       8.054  16.451  16.574  0.00  0.00     0.090 H 
ATOM     12  H8  XDN d   1       8.179  15.560  14.180  0.00  0.00     0.079 H 
ATOM     13  H9  XDN d   1       9.942  15.324  14.433  0.00  0.00     0.079 H 
ATOM     14  H10 XDN d   1       9.386  17.514  13.528  0.00  0.00     0.277 HD
ATOM     15  H11 XDN d   1       8.493  17.864  14.866  0.00  0.00     0.277 HD
ENDROOT
BRANCH   4  16
ATOM     16  O4  XDN d   1       8.383  14.403  16.554  0.00  0.00    -0.349 OA
BRANCH  16  17
ATOM     17  C1B XYP d   1       6.997  14.220  16.331  0.00  0.00     0.158 C 
ATOM     18  C2B XYP d   1       6.692  12.782  16.594  0.00  0.00     0.110 C 
ATOM     19  C3B XYP d   1       5.188  12.543  16.500  0.00  0.00     0.091 C 
ATOM     20  H13 XDN d   1       7.034  12.523  17.607  0.00  0.00     0.094 H 
ATOM     21  C4B XYP d   1       4.405  13.580  17.291  0.00  0.00     0.083 C 
ATOM     22  H14 XDN d   1       4.889  12.610  15.444  0.00  0.00     0.091 H 
ATOM     23  C5B XYP d   1       4.897  14.985  16.953  0.00  0.00     0.049 C 
ATOM     24  H15 XDN d   1       4.547  13.393  18.366  0.00  0.00     0.090 H 
ATOM     25  O5B XYP d   1       6.299  15.052  17.195  0.00  0.00    -0.356 OA
ATOM     26  H16 XDN d   1       4.378  15.720  17.585  0.00  0.00     0.078 H 
ATOM     27  H17 XDN d   1       4.694  15.203  15.894  0.00  0.00     0.078 H 
ATOM     28  H12 XDN d   1       6.740  14.471  15.291  0.00  0.00     0.133 H 
BRANCH  18  29
ATOM     29  O2B XYP d   1       7.364  11.967  15.659  0.00  0.00    -0.388 OA
ATOM     30  H18 XDN d   1       7.178  11.054  15.845  0.00  0.00     0.210 HD
ENDBRANCH  18  29
BRANCH  19  31
ATOM     31  O3B XYP d   1       4.878  11.240  16.987  0.00  0.00    -0.390 OA
ATOM     32  H19 XDN d   1       3.947  11.079  16.887  0.00  0.00     0.210 HD
ENDBRANCH  19  31
BRANCH  21  33
ATOM     33  O4B XYP d   1       3.026  13.494  16.978  0.00  0.00    -0.391 OA
ATOM     34  H20 XDN d   1       2.546  14.136  17.488  0.00  0.00     0.210 HD
ENDBRANCH  21  33
ENDBRANCH  16  17
ENDBRANCH   4  16
BRANCH   3  35
ATOM     35  O3  XDN d   1       9.866  15.836  18.370  0.00  0.00    -0.390 OA
ATOM     36  H6  XDN d   1      10.651  16.053  18.860  0.00  0.00     0.210 HD
ENDBRANCH   3  35
BRANCH   2  37
ATOM     37  O2  XDN d   1      11.763  17.791  17.268  0.00  0.00    -0.391 OA
ATOM     38  H4  XDN d   1      12.446  17.299  16.828  0.00  0.00     0.210 HD
ENDBRANCH   2  37
TORSDOF 7
