REMARK  6 active torsions:
REMARK  status: ('A' for Active; 'I' for Inactive)
REMARK    1  A    between atoms: C3_3  and  O3_4 
REMARK    2  A    between atoms: C4_5  and  O4_6 
REMARK    3  A    between atoms: O4_6  and  C1B_9 
REMARK    4  A    between atoms: C2B_10  and  O2B_14 
REMARK    5  A    between atoms: C3B_11  and  O3B_15 
REMARK    6  A    between atoms: C4B_12  and  O4B_16 
ROOT
ATOM      1  O4  XIF d   1       8.237  14.200  15.936  0.00  0.00    -0.351 OA
ENDROOT
BRANCH   1   2
ATOM      2  C4  XIF d   1       8.718  15.492  15.539  0.00  0.00     0.069 C 
ATOM      3  C3  XIF d   1       9.972  15.783  16.347  0.00  0.00     0.083 C 
ATOM      4  C2  XIF d   1      10.462  17.214  15.995  0.00  0.00     0.107 C 
ATOM      5  H5  XIF d   1      10.752  15.042  16.119  0.00  0.00     0.089 H 
ATOM      6  N1  XIF d   1      10.743  17.346  14.551  0.00  0.00    -0.073 N 
ATOM      7  H3  XIF d   1       9.683  17.938  16.276  0.00  0.00     0.079 H 
ATOM      8  H4  XIF d   1      11.382  17.427  16.560  0.00  0.00     0.079 H 
ATOM      9  C6  XIF d   1       9.606  16.920  13.696  0.00  0.00     0.084 C 
ATOM     10  H1  XIF d   1      11.544  16.777  14.326  0.00  0.00     0.277 HD
ATOM     11  H2  XIF d   1      10.950  18.312  14.351  0.00  0.00     0.277 HD
ATOM     12  C5  XIF d   1       9.108  15.533  14.062  0.00  0.00    -0.016 C 
ATOM     13  H10 XIF d   1       9.934  16.914  12.646  0.00  0.00     0.075 H 
ATOM     14  H11 XIF d   1       8.781  17.637  13.819  0.00  0.00     0.075 H 
ATOM     15  H8  XIF d   1       8.230  15.287  13.446  0.00  0.00     0.039 H 
ATOM     16  H9  XIF d   1       9.905  14.798  13.875  0.00  0.00     0.039 H 
ATOM     17  H7  XIF d   1       7.946  16.250  15.738  0.00  0.00     0.087 H 
BRANCH   3  18
ATOM     18  O3  XIF d   1       9.654  15.756  17.738  0.00  0.00    -0.391 OA
ATOM     19  H6  XIF d   1      10.429  15.972  18.243  0.00  0.00     0.210 HD
ENDBRANCH   3  18
ENDBRANCH   1   2
BRANCH   1  20
ATOM     20  C1B XYP d   1       6.856  14.021  15.674  0.00  0.00     0.158 C 
ATOM     21  C2B XYP d   1       6.517  12.565  15.942  0.00  0.00     0.110 C 
ATOM     22  C3B XYP d   1       4.996  12.343  15.893  0.00  0.00     0.091 C 
ATOM     23  H13 XIF d   1       6.865  12.304  16.952  0.00  0.00     0.094 H 
ATOM     24  C4B XYP d   1       4.221  13.408  16.676  0.00  0.00     0.083 C 
ATOM     25  H14 XIF d   1       4.676  12.408  14.843  0.00  0.00     0.091 H 
ATOM     26  C5B XYP d   1       4.721  14.796  16.307  0.00  0.00     0.049 C 
ATOM     27  H15 XIF d   1       4.359  13.245  17.755  0.00  0.00     0.090 H 
ATOM     28  O5B XYP d   1       6.150  14.875  16.546  0.00  0.00    -0.356 OA
ATOM     29  H16 XIF d   1       4.204  15.547  16.922  0.00  0.00     0.078 H 
ATOM     30  H17 XIF d   1       4.516  14.989  15.244  0.00  0.00     0.078 H 
ATOM     31  H12 XIF d   1       6.623  14.274  14.629  0.00  0.00     0.133 H 
BRANCH  21  32
ATOM     32  O2B XYP d   1       7.206  11.755  15.014  0.00  0.00    -0.388 OA
ATOM     33  H18 XIF d   1       7.035  10.840  15.206  0.00  0.00     0.210 HD
ENDBRANCH  21  32
BRANCH  22  34
ATOM     34  O3B XYP d   1       4.714  11.034  16.363  0.00  0.00    -0.390 OA
ATOM     35  H19 XIF d   1       3.785  10.858  16.268  0.00  0.00     0.210 HD
ENDBRANCH  22  34
BRANCH  24  36
ATOM     36  O4B XYP d   1       2.831  13.296  16.344  0.00  0.00    -0.391 OA
ATOM     37  H20 XIF d   1       2.338  13.949  16.826  0.00  0.00     0.210 HD
ENDBRANCH  24  36
ENDBRANCH   1  20
TORSDOF 6
