REMARK  1 active torsions:
REMARK  status: ('A' for Active; 'I' for Inactive)
REMARK    1  A    between atoms: C19_18  and  S21_20 
ROOT
ATOM      1  C1  INR d   1      24.520   3.055  37.481  0.00  0.00     0.047 A 
ATOM      2  C2  INR d   1      24.715   3.999  36.504  0.00  0.00     0.043 A 
ATOM      3  C6  INR d   1      25.646   2.555  38.118  0.00  0.00    -0.056 A 
ATOM      4  N7  INR d   1      23.181   2.743  37.687  0.00  0.00    -0.351 N 
ATOM      5  C3  INR d   1      25.959   4.477  36.108  0.00  0.00    -0.067 A 
ATOM      6  C8  INR d   1      23.361   4.346  36.035  0.00  0.00     0.212 A 
ATOM      7  C4  INR d   1      27.078   3.964  36.760  0.00  0.00    -0.082 A 
ATOM      8  C5  INR d   1      26.921   3.001  37.765  0.00  0.00    -0.081 A 
ATOM      9  O10 INR d   1      23.055   5.183  35.118  0.00  0.00    -0.285 OA
ATOM     10  C9  INR d   1      22.448   3.494  36.840  0.00  0.00     0.101 A 
ATOM     11  C11 INR d   1      21.057   3.401  36.810  0.00  0.00     0.075 A 
ATOM     12  C12 INR d   1      20.265   2.499  37.688  0.00  0.00     0.259 A 
ATOM     13  C15 INR d   1      20.004   4.058  36.010  0.00  0.00     0.010 A 
ATOM     14  O13 INR d   1      20.754   1.705  38.586  0.00  0.00    -0.267 OA
ATOM     15  N14 INR d   1      18.950   2.601  37.451  0.00  0.00    -0.322 N 
ATOM     16  C16 INR d   1      18.826   3.516  36.474  0.00  0.00     0.046 A 
ATOM     17  C20 INR d   1      20.000   5.053  34.964  0.00  0.00    -0.046 A 
ATOM     18  C19 INR d   1      18.764   5.455  34.419  0.00  0.00     0.081 A 
ATOM     19  C18 INR d   1      17.569   4.889  34.897  0.00  0.00    -0.057 A 
ATOM     20  C17 INR d   1      17.576   3.931  35.912  0.00  0.00    -0.055 A 
ATOM     21  H1  INR d   1      25.535   1.810  38.898  0.00  0.00     0.086 H 
ATOM     22  H2  INR d   1      22.814   2.060  38.365  0.00  0.00     0.166 HD
ATOM     23  H3  INR d   1      26.054   5.219  35.324  0.00  0.00     0.085 H 
ATOM     24  H4  INR d   1      28.069   4.310  36.490  0.00  0.00     0.083 H 
ATOM     25  H5  INR d   1      27.792   2.601  38.270  0.00  0.00     0.083 H 
ATOM     26  H6  INR d   1      18.214   2.100  37.906  0.00  0.00     0.169 HD
ATOM     27  H7  INR d   1      20.928   5.482  34.605  0.00  0.00     0.087 H 
ATOM     28  H8  INR d   1      16.624   5.203  34.469  0.00  0.00     0.086 H 
ATOM     29  H9  INR d   1      16.646   3.506  36.271  0.00  0.00     0.087 H 
ENDROOT
BRANCH  18  30
ATOM     30  S21 INR d   1      18.713   6.559  33.237  0.00  0.00     0.137 S 
ATOM     31  O24 INR d   1      18.974   7.909  33.811  0.00  0.00    -0.591 OA
ATOM     32  O23 INR d   1      17.372   6.605  32.628  0.00  0.00    -0.591 OA
ATOM     33  O22 INR d   1      19.736   6.305  32.220  0.00  0.00    -0.591 OA
ENDBRANCH  18  30
TORSDOF 1
