REMARK  13 active torsions:
REMARK  status: ('A' for Active; 'I' for Inactive)
REMARK    1  A    between atoms: N9_3  and  C9_2 
REMARK    2  A    between atoms: C9_2  and  C11_29 
REMARK    3  A    between atoms: C9_2  and  C10_30 
REMARK    4  A    between atoms: C2_6  and  N2_22 
REMARK    5  A    between atoms: C6_7  and  N6_11 
REMARK    6  A    between atoms: N6_11  and  C1A_12 
REMARK    7  A    between atoms: C4A_15  and  CX_19 
REMARK    8  A    between atoms: N2_22  and  C12_23 
REMARK    9  A    between atoms: C12_23  and  C13_24 
REMARK   10  A    between atoms: C12_23  and  C15_27 
REMARK   11  A    between atoms: C13_24  and  C16_25 
REMARK   12  A    between atoms: C13_24  and  C14_26 
REMARK   13  A    between atoms: C15_27  and  O1_28 
ROOT
ATOM      1  N1  PVB d   1      25.276  -1.169  35.139  0.00  0.00    -0.043 NA
ATOM      2  N9  PVB d   1      23.403   0.499  38.380  0.00  0.00    -0.320 N 
ATOM      3  C4  PVB d   1      23.985   0.094  37.217  0.00  0.00     0.183 A 
ATOM      4  N3  PVB d   1      23.944   0.680  35.886  0.00  0.00    -0.042 NA
ATOM      5  C2  PVB d   1      24.631   0.042  34.892  0.00  0.00     0.726 A 
ATOM      6  C6  PVB d   1      25.330  -1.782  36.363  0.00  0.00     0.180 A 
ATOM      7  C5  PVB d   1      24.703  -1.168  37.467  0.00  0.00     0.151 A 
ATOM      8  N7  PVB d   1      24.506  -1.448  38.784  0.00  0.00    -0.236 NA
ATOM      9  C8  PVB d   1      23.747  -0.448  39.304  0.00  0.00     0.069 A 
ATOM     10  H2  PVB d   1      23.444  -0.405  40.349  0.00  0.00     0.143 H 
ENDROOT
BRANCH   5  11
ATOM     11  N2  PVB d   1      24.634   0.544  33.618  0.00  0.00    -0.215 N 
ATOM     12  H7  PVB d   1      24.160   1.427  33.381  0.00  0.00     0.178 HD
BRANCH  11  13
ATOM     13  C12 PVB d   1      25.347  -0.244  32.613  0.00  0.00     0.049 C 
ATOM     14  H8  PVB d   1      26.060  -0.811  33.230  0.00  0.00     0.077 H 
BRANCH  13  15
ATOM     15  C13 PVB d   1      26.292   0.561  31.697  0.00  0.00    -0.039 C 
ATOM     16  H9  PVB d   1      27.278   0.112  31.889  0.00  0.00     0.042 H 
BRANCH  15  17
ATOM     17  C16 PVB d   1      26.477   2.035  32.137  0.00  0.00    -0.071 C 
ATOM     18  H10 PVB d   1      27.160   2.543  31.440  0.00  0.00     0.028 H 
ATOM     19  H11 PVB d   1      26.900   2.064  33.152  0.00  0.00     0.028 H 
ATOM     20  H12 PVB d   1      25.502   2.545  32.131  0.00  0.00     0.028 H 
ENDBRANCH  15  17
BRANCH  15  21
ATOM     21  C14 PVB d   1      26.099   0.340  30.202  0.00  0.00    -0.071 C 
ATOM     22  H13 PVB d   1      25.978  -0.735  30.003  0.00  0.00     0.028 H 
ATOM     23  H14 PVB d   1      26.978   0.717  29.659  0.00  0.00     0.028 H 
ATOM     24  H15 PVB d   1      25.201   0.878  29.865  0.00  0.00     0.028 H 
ENDBRANCH  15  21
ENDBRANCH  13  15
BRANCH  13  25
ATOM     25  C15 PVB d   1      24.537  -1.374  31.951  0.00  0.00     0.036 C 
ATOM     26  H16 PVB d   1      24.599  -2.287  32.561  0.00  0.00     0.077 H 
ATOM     27  H17 PVB d   1      24.931  -1.578  30.945  0.00  0.00     0.077 H 
BRANCH  25  28
ATOM     28  O1  PVB d   1      23.204  -0.945  31.865  0.00  0.00    -0.399 OA
ATOM     29  H18 PVB d   1      22.679  -1.625  31.459  0.00  0.00     0.209 HD
ENDBRANCH  25  28
ENDBRANCH  13  25
ENDBRANCH  11  13
ENDBRANCH   5  11
BRANCH   6  30
ATOM     30  N6  PVB d   1      25.989  -2.974  36.570  0.00  0.00    -0.338 N 
ATOM     31  H3  PVB d   1      25.848  -3.450  37.472  0.00  0.00     0.167 HD
BRANCH  30  32
ATOM     32  C1A PVB d   1      26.816  -3.567  35.661  0.00  0.00     0.035 A 
ATOM     33  C2A PVB d   1      28.107  -3.971  36.058  0.00  0.00    -0.056 A 
ATOM     34  C3A PVB d   1      28.982  -4.532  35.139  0.00  0.00    -0.063 A 
ATOM     35  H4  PVB d   1      28.418  -3.842  37.088  0.00  0.00     0.086 H 
ATOM     36  C4A PVB d   1      28.578  -4.684  33.799  0.00  0.00     0.062 A 
ATOM     37  H5  PVB d   1      29.970  -4.851  35.451  0.00  0.00     0.085 H 
ATOM     38  C5A PVB d   1      27.224  -4.223  33.381  0.00  0.00     0.053 A 
ATOM     39 CL1  PVB d   1      26.741  -4.336  31.942  0.00  0.00    -0.083 Cl
ATOM     40  C6A PVB d   1      26.394  -3.688  34.353  0.00  0.00    -0.035 A 
ATOM     41  H6  PVB d   1      25.397  -3.359  34.081  0.00  0.00     0.089 H 
BRANCH  36  42
ATOM     42  CX  PVB d   1      29.510  -5.278  32.797  0.00  0.00     0.211 C 
ATOM     43  OX1 PVB d   1      30.135  -6.315  33.075  0.00  0.00    -0.644 OA
ATOM     44  OX2 PVB d   1      29.667  -4.735  31.693  0.00  0.00    -0.644 OA
ENDBRANCH  36  42
ENDBRANCH  30  32
ENDBRANCH   6  30
BRANCH   2  45
ATOM     45  C9  PVB d   1      22.647   1.733  38.714  0.00  0.00     0.012 C 
ATOM     46  H1  PVB d   1      22.573   1.813  39.809  0.00  0.00     0.072 H 
BRANCH  45  47
ATOM     47  C11 PVB d   1      23.469   2.882  38.159  0.00  0.00    -0.057 C 
ATOM     48  H19 PVB d   1      22.961   3.834  38.374  0.00  0.00     0.030 H 
ATOM     49  H20 PVB d   1      23.578   2.763  37.071  0.00  0.00     0.030 H 
ATOM     50  H21 PVB d   1      24.463   2.883  38.630  0.00  0.00     0.030 H 
ENDBRANCH  45  47
BRANCH  45  51
ATOM     51  C10 PVB d   1      21.242   1.835  38.135  0.00  0.00    -0.057 C 
ATOM     52  H22 PVB d   1      20.784   2.785  38.448  0.00  0.00     0.030 H 
ATOM     53  H23 PVB d   1      20.633   0.996  38.502  0.00  0.00     0.030 H 
ATOM     54  H24 PVB d   1      21.294   1.798  37.037  0.00  0.00     0.030 H 
ENDBRANCH  45  51
ENDBRANCH   2  45
TORSDOF 13
