REMARK  13 active torsions:
REMARK  status: ('A' for Active; 'I' for Inactive)
REMARK    1  A    between atoms: C1_1  and  N2_20 
REMARK    2  A    between atoms: N2_20  and  C4_7 
REMARK    3  A    between atoms: N3_22  and  C3_8 
REMARK    4  A    between atoms: C10_10  and  N3_22 
REMARK    5  A    between atoms: C8_12  and  C21_24 
REMARK    6  A    between atoms: O_23  and  C16_14 
REMARK    7  A    between atoms: C16_14  and  C17_28 
REMARK    8  A    between atoms: C13_16  and  O_23 
REMARK    9  A    between atoms: C17_28  and  C18_29 
REMARK   10  A    between atoms: C17_28  and  O1_33 
REMARK   11  A    between atoms: C18_29  and  N4_32 
REMARK   12  A    between atoms: N4_32  and  C19_30 
REMARK   13  A    between atoms: N4_32  and  C20_31 
ROOT
ATOM      1  C11 3FP d   1       9.563 -11.503  10.511  0.00  0.00    -0.055 A 
ATOM      2  C10 3FP d   1      10.172 -10.430  11.189  0.00  0.00     0.033 A 
ATOM      3  C12 3FP d   1       9.103 -11.375   9.197  0.00  0.00    -0.049 A 
ATOM      4  C14 3FP d   1       9.825  -9.079   9.240  0.00  0.00    -0.049 A 
ATOM      5  C13 3FP d   1       9.258 -10.148   8.542  0.00  0.00     0.069 A 
ATOM      6  C15 3FP d   1      10.289  -9.201  10.538  0.00  0.00    -0.055 A 
ATOM      7  H4  3FP d   1       9.448 -12.453  11.021  0.00  0.00     0.087 H 
ATOM      8  H6  3FP d   1       8.634 -12.213   8.694  0.00  0.00     0.087 H 
ATOM      9  H9  3FP d   1       9.905  -8.117   8.746  0.00  0.00     0.087 H 
ATOM     10  H10 3FP d   1      10.738  -8.353  11.043  0.00  0.00     0.087 H 
ENDROOT
BRANCH   2  11
ATOM     11  N3  3FP d   1      10.615 -10.595  12.524  0.00  0.00    -0.341 N 
ATOM     12  H13 3FP d   1      10.053 -11.234  13.104  0.00  0.00     0.167 HD
BRANCH  11  13
ATOM     13  C3  3FP d   1      11.720 -10.003  13.165  0.00  0.00     0.133 A 
ATOM     14  N1  3FP d   1      11.919 -10.324  14.439  0.00  0.00    -0.224 NA
ATOM     15  C   3FP d   1      12.925  -9.825  15.146  0.00  0.00     0.091 A 
ATOM     16  N   3FP d   1      13.798  -8.981  14.621  0.00  0.00    -0.224 NA
ATOM     17  H11 3FP d   1      13.035 -10.117  16.184  0.00  0.00     0.146 H 
ATOM     18  C1  3FP d   1      13.682  -8.583  13.331  0.00  0.00     0.133 A 
ATOM     19  C2  3FP d   1      12.623  -9.104  12.564  0.00  0.00     0.006 A 
ATOM     20  H1  3FP d   1      12.504  -8.818  11.525  0.00  0.00     0.095 H 
BRANCH  18  21
ATOM     21  N2  3FP d   1      14.634  -7.694  12.811  0.00  0.00    -0.338 N 
ATOM     22  H12 3FP d   1      15.518  -7.596  13.330  0.00  0.00     0.167 HD
BRANCH  21  23
ATOM     23  C4  3FP d   1      14.487  -6.926  11.646  0.00  0.00     0.073 A 
ATOM     24  C5  3FP d   1      13.409  -6.045  11.474  0.00  0.00     0.143 A 
ATOM     25  C6  3FP d   1      13.299  -5.297  10.303  0.00  0.00    -0.043 A 
ATOM     26  F1  3FP d   1      12.470  -5.931  12.444  0.00  0.00    -0.204 F 
ATOM     27  C7  3FP d   1      14.258  -5.409   9.302  0.00  0.00    -0.065 A 
ATOM     28  H3  3FP d   1      12.460  -4.623  10.172  0.00  0.00     0.088 H 
ATOM     29  C8  3FP d   1      15.340  -6.276   9.465  0.00  0.00     0.050 A 
ATOM     30  H2  3FP d   1      14.165  -4.823   8.395  0.00  0.00     0.084 H 
ATOM     31  C9  3FP d   1      15.447  -7.019  10.638  0.00  0.00    -0.040 A 
ATOM     32  H5  3FP d   1      16.293  -7.683  10.771  0.00  0.00     0.088 H 
BRANCH  29  33
ATOM     33  C21 3FP d   1      16.417  -6.415   8.387  0.00  0.00     0.417 C 
ATOM     34  F2  3FP d   1      16.770  -5.193   7.778  0.00  0.00    -0.166 F 
ATOM     35  F3  3FP d   1      17.584  -6.869   9.003  0.00  0.00    -0.166 F 
ATOM     36  F4  3FP d   1      16.026  -7.345   7.399  0.00  0.00    -0.166 F 
ENDBRANCH  29  33
ENDBRANCH  21  23
ENDBRANCH  18  21
ENDBRANCH  11  13
ENDBRANCH   2  11
BRANCH   5  37
ATOM     37  O   3FP d   1       8.797  -9.871   7.275  0.00  0.00    -0.349 OA
BRANCH  37  38
ATOM     38  C16 3FP d   1       9.286 -10.532   6.102  0.00  0.00     0.051 C 
ATOM     39  H7  3FP d   1       9.066 -11.609   6.146  0.00  0.00     0.079 H 
ATOM     40  H8  3FP d   1      10.371 -10.383   5.999  0.00  0.00     0.079 H 
BRANCH  38  41
ATOM     41  C17 3FP d   1       8.531  -9.869   4.918  0.00  0.00     0.080 C 
ATOM     42  H14 3FP d   1       9.288  -9.307   4.350  0.00  0.00     0.088 H 
BRANCH  41  43
ATOM     43  C18 3FP d   1       7.863 -10.847   3.923  0.00  0.00     0.108 C 
ATOM     44  H15 3FP d   1       8.659 -11.277   3.297  0.00  0.00     0.080 H 
ATOM     45  H16 3FP d   1       7.177 -10.261   3.293  0.00  0.00     0.080 H 
BRANCH  43  46
ATOM     46  N4  3FP d   1       7.089 -11.973   4.497  0.00  0.00    -0.076 N 
ATOM     47  H23 3FP d   1       7.628 -12.493   5.172  0.00  0.00     0.279 HD
BRANCH  46  48
ATOM     48  C19 3FP d   1       5.817 -11.490   5.057  0.00  0.00     0.066 C 
ATOM     49  H17 3FP d   1       5.256 -12.338   5.478  0.00  0.00     0.068 H 
ATOM     50  H18 3FP d   1       5.223 -11.016   4.262  0.00  0.00     0.068 H 
ATOM     51  H19 3FP d   1       6.021 -10.755   5.850  0.00  0.00     0.068 H 
ENDBRANCH  46  48
BRANCH  46  52
ATOM     52  C20 3FP d   1       6.669 -12.783   3.339  0.00  0.00     0.066 C 
ATOM     53  H20 3FP d   1       7.557 -13.198   2.840  0.00  0.00     0.068 H 
ATOM     54  H21 3FP d   1       6.113 -12.150   2.631  0.00  0.00     0.068 H 
ATOM     55  H22 3FP d   1       6.023 -13.605   3.681  0.00  0.00     0.068 H 
ENDBRANCH  46  52
ENDBRANCH  43  46
ENDBRANCH  41  43
BRANCH  41  56
ATOM     56  O1  3FP d   1       7.540  -8.923   5.370  0.00  0.00    -0.392 OA
ATOM     57  H24 3FP d   1       7.939  -8.316   5.982  0.00  0.00     0.210 HD
ENDBRANCH  41  56
ENDBRANCH  38  41
ENDBRANCH  37  38
ENDBRANCH   5  37
TORSDOF 13
