REMARK  1 active torsions:
REMARK  status: ('A' for Active; 'I' for Inactive)
REMARK    1  A    between atoms: C2_8  and  N2_9 
ROOT
ATOM      1  N9  GUN d   1     -17.360  87.973   0.764  0.00  0.00    -0.223 NA
ATOM      2  C8  GUN d   1     -18.304  88.595  -0.088  0.00  0.00     0.067 A 
ATOM      3  N7  GUN d   1     -17.724  89.331  -1.061  0.00  0.00    -0.343 N 
ATOM      4  C5  GUN d   1     -16.341  89.157  -0.795  0.00  0.00     0.149 A 
ATOM      5  C6  GUN d   1     -15.247  89.692  -1.492  0.00  0.00     0.290 A 
ATOM      6  O6  GUN d   1     -15.272  90.429  -2.480  0.00  0.00    -0.265 OA
ATOM      7  N1  GUN d   1     -14.033  89.303  -0.942  0.00  0.00    -0.154 N 
ATOM      8  C2  GUN d   1     -13.921  88.505   0.133  0.00  0.00     0.680 A 
ATOM      9  N3  GUN d   1     -14.937  88.007   0.778  0.00  0.00    -0.172 N 
ATOM     10  C4  GUN d   1     -16.115  88.358   0.278  0.00  0.00     0.176 A 
ATOM     11  H1  GUN d   1     -19.382  88.491   0.028  0.00  0.00     0.143 H 
ATOM     12  H2  GUN d   1     -18.173  89.880  -1.808  0.00  0.00     0.167 HD
ATOM     13  H3  GUN d   1     -13.193  89.636  -1.371  0.00  0.00     0.187 HD
ATOM     14  H6  GUN d   1     -14.835  87.396   1.601  0.00  0.00     0.186 HD
ENDROOT
BRANCH   8  15
ATOM     15  N2  GUN d   1     -12.691  88.219   0.545  0.00  0.00    -0.234 N 
ATOM     16  H4  GUN d   1     -12.551  87.611   1.365  0.00  0.00     0.174 HD
ATOM     17  H5  GUN d   1     -11.877  88.605   0.045  0.00  0.00     0.174 HD
ENDBRANCH   8  15
TORSDOF 1
