REMARK  13 active torsions:
REMARK  status: ('A' for Active; 'I' for Inactive)
REMARK    1  A    between atoms: N12_1  and  C13_2 
REMARK       I    between atoms: C11_17  and  N12_1 
REMARK    2  A    between atoms: C13_2  and  C30_3 
REMARK    3  A    between atoms: C13_2  and  C14_4 
REMARK    4  A    between atoms: C30_3  and  C21_8 
REMARK    5  A    between atoms: C14_4  and  O15_6 
REMARK    6  A    between atoms: O15_6  and  C16_7 
REMARK    7  A    between atoms: C25_12  and  C27_14 
REMARK    8  A    between atoms: C27_14  and  N28_15 
REMARK    9  A    between atoms: C10_18  and  C11_17 
REMARK   10  A    between atoms: N9_19  and  C10_18 
REMARK   11  A    between atoms: S8_28  and  N9_19 
REMARK   12  A    between atoms: C2_22  and  C1_21 
REMARK   13  A    between atoms: C5_25  and  S8_28 
ROOT
ATOM      1  C13 ANH d   1      46.127  23.944  53.298  0.00  0.00     0.100 C 
ATOM      2  H2  ANH d   1      45.839  23.559  54.287  0.00  0.00     0.088 H 
ENDROOT
BRANCH   1   3
ATOM      3  N12 ANH d   1      44.869  24.171  52.518  0.00  0.00    -0.346 N 
ATOM      4  C11 ANH d   1      43.632  23.863  52.960  0.00  0.00     0.236 C 
ATOM      5  O20 ANH d   1      43.435  23.206  53.982  0.00  0.00    -0.272 OA
ATOM      6  H1  ANH d   1      44.951  24.578  51.608  0.00  0.00     0.163 HD
BRANCH   4   7
ATOM      7  C10 ANH d   1      42.445  24.346  52.136  0.00  0.00     0.076 C 
ATOM      8  H16 ANH d   1      41.543  23.856  52.531  0.00  0.00     0.079 H 
ATOM      9  H17 ANH d   1      42.609  24.029  51.096  0.00  0.00     0.079 H 
BRANCH   7  10
ATOM     10  N9  ANH d   1      42.197  25.807  52.127  0.00  0.00    -0.307 N 
ATOM     11  H18 ANH d   1      42.130  26.287  51.252  0.00  0.00     0.172 HD
BRANCH  10  12
ATOM     12  S8  ANH d   1      42.023  26.688  53.576  0.00  0.00     0.259 S 
ATOM     13  O18 ANH d   1      43.431  26.571  54.347  0.00  0.00    -0.201 OA
ATOM     14  O19 ANH d   1      41.700  28.144  53.038  0.00  0.00    -0.201 OA
BRANCH  12  15
ATOM     15  C5  ANH d   1      40.661  26.131  54.525  0.00  0.00     0.079 A 
ATOM     16  C4  ANH d   1      40.771  25.011  55.427  0.00  0.00    -0.060 A 
ATOM     17  C3  ANH d   1      39.607  24.623  56.171  0.00  0.00    -0.076 A 
ATOM     18  H23 ANH d   1      41.708  24.477  55.540  0.00  0.00     0.085 H 
ATOM     19  C2  ANH d   1      38.367  25.341  56.011  0.00  0.00    -0.062 A 
ATOM     20  H22 ANH d   1      39.660  23.785  56.857  0.00  0.00     0.084 H 
ATOM     21  C7  ANH d   1      38.297  26.446  55.110  0.00  0.00    -0.076 A 
ATOM     22  C6  ANH d   1      39.433  26.843  54.369  0.00  0.00    -0.060 A 
ATOM     23  H25 ANH d   1      37.364  26.985  54.993  0.00  0.00     0.084 H 
ATOM     24  H24 ANH d   1      39.373  27.683  53.686  0.00  0.00     0.085 H 
BRANCH  19  25
ATOM     25  C1  ANH d   1      37.130  24.964  56.769  0.00  0.00    -0.051 C 
ATOM     26  H19 ANH d   1      37.345  24.101  57.416  0.00  0.00     0.033 H 
ATOM     27  H20 ANH d   1      36.331  24.701  56.060  0.00  0.00     0.033 H 
ATOM     28  H21 ANH d   1      36.806  25.814  57.388  0.00  0.00     0.033 H 
ENDBRANCH  19  25
ENDBRANCH  12  15
ENDBRANCH  10  12
ENDBRANCH   7  10
ENDBRANCH   4   7
ENDBRANCH   1   3
BRANCH   1  29
ATOM     29  C30 ANH d   1      46.949  22.870  52.558  0.00  0.00    -0.013 C 
ATOM     30  H3  ANH d   1      47.888  22.724  53.112  0.00  0.00     0.043 H 
ATOM     31  H4  ANH d   1      47.173  23.252  51.551  0.00  0.00     0.043 H 
BRANCH  29  32
ATOM     32  C21 ANH d   1      46.288  21.517  52.403  0.00  0.00    -0.055 A 
ATOM     33  C22 ANH d   1      45.426  21.277  51.295  0.00  0.00    -0.077 A 
ATOM     34  C23 ANH d   1      44.781  20.024  51.124  0.00  0.00    -0.082 A 
ATOM     35  H8  ANH d   1      45.260  22.065  50.569  0.00  0.00     0.084 H 
ATOM     36  C24 ANH d   1      45.000  18.995  52.071  0.00  0.00    -0.069 A 
ATOM     37  H9  ANH d   1      44.127  19.857  50.276  0.00  0.00     0.083 H 
ATOM     38  C25 ANH d   1      45.879  19.194  53.225  0.00  0.00     0.007 A 
ATOM     39  H10 ANH d   1      44.506  18.039  51.939  0.00  0.00     0.085 H 
ATOM     40  C26 ANH d   1      46.511  20.488  53.357  0.00  0.00    -0.063 A 
ATOM     41  H11 ANH d   1      47.167  20.676  54.199  0.00  0.00     0.085 H 
BRANCH  38  42
ATOM     42  C27 ANH d   1      46.095  18.185  54.155  0.00  0.00     0.102 C 
ATOM     43  N29 ANH d   1      45.634  16.946  54.041  0.00  0.00    -0.385 N 
ATOM     44  H14 ANH d   1      45.065  16.681  53.224  0.00  0.00     0.157 HD
ATOM     45  H15 ANH d   1      45.845  16.249  54.769  0.00  0.00     0.157 HD
BRANCH  42  46
ATOM     46  N28 ANH d   1      46.800  18.336  55.262  0.00  0.00    -0.385 N 
ATOM     47  H12 ANH d   1      46.920  17.543  55.908  0.00  0.00     0.157 HD
ATOM     48  H13 ANH d   1      47.230  19.247  55.479  0.00  0.00     0.157 HD
ENDBRANCH  42  46
ENDBRANCH  38  42
ENDBRANCH  29  32
ENDBRANCH   1  29
BRANCH   1  49
ATOM     49  C14 ANH d   1      47.048  25.209  53.533  0.00  0.00     0.281 C 
ATOM     50  O17 ANH d   1      47.505  25.831  52.543  0.00  0.00    -0.263 OA
BRANCH  49  51
ATOM     51  O15 ANH d   1      47.313  25.576  54.885  0.00  0.00    -0.325 OA
BRANCH  51  52
ATOM     52  C16 ANH d   1      46.788  24.864  56.063  0.00  0.00     0.013 C 
ATOM     53  H5  ANH d   1      47.146  25.357  56.979  0.00  0.00     0.067 H 
ATOM     54  H6  ANH d   1      47.137  23.821  56.047  0.00  0.00     0.067 H 
ATOM     55  H7  ANH d   1      45.688  24.883  56.043  0.00  0.00     0.067 H 
ENDBRANCH  51  52
ENDBRANCH  49  51
ENDBRANCH   1  49
TORSDOF 13
