REMARK  13 active torsions:
REMARK  status: ('A' for Active; 'I' for Inactive)
REMARK    1  A    between atoms: N12_1  and  C13_2 
REMARK       I    between atoms: C11_17  and  N12_1 
REMARK    2  A    between atoms: C13_2  and  C30_3 
REMARK    3  A    between atoms: C13_2  and  C14_4 
REMARK    4  A    between atoms: C30_3  and  C21_8 
REMARK    5  A    between atoms: C14_4  and  O15_6 
REMARK    6  A    between atoms: O15_6  and  C16_7 
REMARK    7  A    between atoms: C25_12  and  C27_14 
REMARK    8  A    between atoms: C27_14  and  N28_15 
REMARK    9  A    between atoms: C10_18  and  C11_17 
REMARK   10  A    between atoms: N9_19  and  C10_18 
REMARK   11  A    between atoms: S8_28  and  N9_19 
REMARK   12  A    between atoms: C2_22  and  C1_21 
REMARK   13  A    between atoms: C5_25  and  S8_28 
ROOT
ATOM      1  C13 ANH d   1      -3.464  18.217  18.492  0.00  0.00     0.100 C 
ATOM      2  H2  ANH d   1      -3.933  17.662  17.666  0.00  0.00     0.088 H 
ENDROOT
BRANCH   1   3
ATOM      3  N12 ANH d   1      -2.280  18.930  17.917  0.00  0.00    -0.346 N 
ATOM      4  C11 ANH d   1      -2.341  19.866  16.959  0.00  0.00     0.236 C 
ATOM      5  O20 ANH d   1      -3.359  20.109  16.322  0.00  0.00    -0.272 OA
ATOM      6  H1  ANH d   1      -1.377  18.691  18.274  0.00  0.00     0.163 HD
BRANCH   4   7
ATOM      7  C10 ANH d   1      -1.071  20.641  16.656  0.00  0.00     0.076 C 
ATOM      8  H16 ANH d   1      -0.218  19.961  16.794  0.00  0.00     0.079 H 
ATOM      9  H17 ANH d   1      -1.000  21.470  17.376  0.00  0.00     0.079 H 
BRANCH   7  10
ATOM     10  N9  ANH d   1      -0.982  21.218  15.279  0.00  0.00    -0.307 N 
ATOM     11  H18 ANH d   1      -0.951  20.613  14.483  0.00  0.00     0.172 HD
BRANCH  10  12
ATOM     12  S8  ANH d   1      -0.933  22.905  15.071  0.00  0.00     0.259 S 
ATOM     13  O18 ANH d   1      -0.563  23.163  13.534  0.00  0.00    -0.201 OA
ATOM     14  O19 ANH d   1      -2.384  23.340  15.484  0.00  0.00    -0.201 OA
BRANCH  12  15
ATOM     15  C5  ANH d   1       0.218  23.529  16.214  0.00  0.00     0.079 A 
ATOM     16  C4  ANH d   1       1.633  23.282  16.074  0.00  0.00    -0.060 A 
ATOM     17  C3  ANH d   1       2.514  23.819  17.073  0.00  0.00    -0.076 A 
ATOM     18  H23 ANH d   1       2.019  22.708  15.239  0.00  0.00     0.085 H 
ATOM     19  C2  ANH d   1       1.969  24.576  18.172  0.00  0.00    -0.062 A 
ATOM     20  H22 ANH d   1       3.583  23.656  17.001  0.00  0.00     0.084 H 
ATOM     21  C7  ANH d   1       0.570  24.796  18.267  0.00  0.00    -0.076 A 
ATOM     22  C6  ANH d   1      -0.307  24.281  17.299  0.00  0.00    -0.060 A 
ATOM     23  H25 ANH d   1       0.174  25.369  19.098  0.00  0.00     0.084 H 
ATOM     24  H24 ANH d   1      -1.374  24.455  17.379  0.00  0.00     0.085 H 
BRANCH  19  25
ATOM     25  C1  ANH d   1       2.823  25.151  19.242  0.00  0.00    -0.051 C 
ATOM     26  H19 ANH d   1       3.876  24.905  19.042  0.00  0.00     0.033 H 
ATOM     27  H20 ANH d   1       2.526  24.730  20.214  0.00  0.00     0.033 H 
ATOM     28  H21 ANH d   1       2.699  26.244  19.262  0.00  0.00     0.033 H 
ENDBRANCH  19  25
ENDBRANCH  12  15
ENDBRANCH  10  12
ENDBRANCH   7  10
ENDBRANCH   4   7
ENDBRANCH   1   3
BRANCH   1  29
ATOM     29  C30 ANH d   1      -2.971  17.208  19.528  0.00  0.00    -0.013 C 
ATOM     30  H3  ANH d   1      -3.853  16.808  20.049  0.00  0.00     0.043 H 
ATOM     31  H4  ANH d   1      -2.336  17.750  20.245  0.00  0.00     0.043 H 
BRANCH  29  32
ATOM     32  C21 ANH d   1      -2.167  16.022  19.002  0.00  0.00    -0.055 A 
ATOM     33  C22 ANH d   1      -1.087  15.536  19.779  0.00  0.00    -0.077 A 
ATOM     34  C23 ANH d   1      -0.306  14.431  19.335  0.00  0.00    -0.082 A 
ATOM     35  H8  ANH d   1      -0.852  16.012  20.724  0.00  0.00     0.084 H 
ATOM     36  C24 ANH d   1      -0.608  13.801  18.098  0.00  0.00    -0.069 A 
ATOM     37  H9  ANH d   1       0.518  14.071  19.940  0.00  0.00     0.083 H 
ATOM     38  C25 ANH d   1      -1.709  14.250  17.245  0.00  0.00     0.007 A 
ATOM     39  H10 ANH d   1      -0.004  12.961  17.776  0.00  0.00     0.085 H 
ATOM     40  C26 ANH d   1      -2.481  15.382  17.735  0.00  0.00    -0.063 A 
ATOM     41  H11 ANH d   1      -3.308  15.756  17.142  0.00  0.00     0.085 H 
BRANCH  38  42
ATOM     42  C27 ANH d   1      -1.992  13.613  16.022  0.00  0.00     0.102 C 
ATOM     43  N29 ANH d   1      -1.672  12.360  15.729  0.00  0.00    -0.385 N 
ATOM     44  H14 ANH d   1      -1.178  11.779  16.421  0.00  0.00     0.157 HD
ATOM     45  H15 ANH d   1      -1.918  11.967  14.809  0.00  0.00     0.157 HD
BRANCH  42  46
ATOM     46  N28 ANH d   1      -2.610  14.168  15.012  0.00  0.00    -0.385 N 
ATOM     47  H12 ANH d   1      -2.777  13.628  14.151  0.00  0.00     0.157 HD
ATOM     48  H13 ANH d   1      -2.930  15.145  15.078  0.00  0.00     0.157 HD
ENDBRANCH  42  46
ENDBRANCH  38  42
ENDBRANCH  29  32
ENDBRANCH   1  29
BRANCH   1  49
ATOM     49  C14 ANH d   1      -4.614  19.134  19.141  0.00  0.00     0.281 C 
ATOM     50  O17 ANH d   1      -5.799  18.931  18.776  0.00  0.00    -0.263 OA
BRANCH  49  51
ATOM     51  O15 ANH d   1      -4.263  20.156  20.110  0.00  0.00    -0.325 OA
BRANCH  51  52
ATOM     52  C16 ANH d   1      -2.909  20.478  20.610  0.00  0.00     0.013 C 
ATOM     53  H5  ANH d   1      -2.973  21.302  21.337  0.00  0.00     0.067 H 
ATOM     54  H6  ANH d   1      -2.269  20.781  19.768  0.00  0.00     0.067 H 
ATOM     55  H7  ANH d   1      -2.478  19.591  21.098  0.00  0.00     0.067 H 
ENDBRANCH  51  52
ENDBRANCH  49  51
ENDBRANCH   1  49
TORSDOF 13
