REMARK  2 active torsions:
REMARK  status: ('A' for Active; 'I' for Inactive)
REMARK    1  A    between atoms: C1_1  and  C_7 
REMARK    2  A    between atoms: C_7  and  N1_8 
ROOT
ATOM      1  C1  BEN d   1      -3.190   8.975  19.648  0.00  0.00     0.007 A 
ATOM      2  C2  BEN d   1      -1.828   8.735  19.229  0.00  0.00    -0.069 A 
ATOM      3  C3  BEN d   1      -1.240   7.433  19.366  0.00  0.00    -0.082 A 
ATOM      4  C4  BEN d   1      -2.007   6.354  19.925  0.00  0.00    -0.083 A 
ATOM      5  C5  BEN d   1      -3.353   6.579  20.343  0.00  0.00    -0.082 A 
ATOM      6  C6  BEN d   1      -3.945   7.883  20.207  0.00  0.00    -0.069 A 
ATOM      7  H1  BEN d   1      -1.245   9.546  18.807  0.00  0.00     0.085 H 
ATOM      8  H2  BEN d   1      -0.218   7.264  19.048  0.00  0.00     0.083 H 
ATOM      9  H3  BEN d   1      -1.564   5.370  20.029  0.00  0.00     0.083 H 
ATOM     10  H4  BEN d   1      -3.931   5.765  20.764  0.00  0.00     0.083 H 
ATOM     11  H5  BEN d   1      -4.968   8.045  20.528  0.00  0.00     0.085 H 
ENDROOT
BRANCH   1  12
ATOM     12  C   BEN d   1      -3.822  10.367  19.498  0.00  0.00     0.102 C 
ATOM     13  N2  BEN d   1      -3.055  11.403  19.220  0.00  0.00    -0.385 N 
ATOM     14  H8  BEN d   1      -2.038  11.277  19.112  0.00  0.00     0.157 HD
ATOM     15  H9  BEN d   1      -3.473  12.338  19.111  0.00  0.00     0.157 HD
BRANCH  12  16
ATOM     16  N1  BEN d   1      -5.122  10.510  19.639  0.00  0.00    -0.385 N 
ATOM     17  H6  BEN d   1      -5.551  11.441  19.540  0.00  0.00     0.157 HD
ATOM     18  H7  BEN d   1      -5.710   9.691  19.849  0.00  0.00     0.157 HD
ENDBRANCH  12  16
ENDBRANCH   1  12
TORSDOF 2
