REMARK  5 active torsions:
REMARK  status: ('A' for Active; 'I' for Inactive)
REMARK    1  A    between atoms: CZ7_1  and  NZ2_2 
REMARK    2  A    between atoms: CZ1_9  and  CC1_11 
REMARK       I    between atoms: CC1_11  and  NP2_13 
REMARK    3  A    between atoms: CP2_16  and  CC2_17 
REMARK       I    between atoms: CC2_17  and  NC2_19 
REMARK    4  A    between atoms: NP1_21  and  S1_22 
REMARK    5  A    between atoms: S1_22  and  CN1_25 
ROOT
ATOM      1  CC1 D76 d   1       5.150   4.203  21.587  0.00  0.00     0.280 C 
ATOM      2  OC1 D76 d   1       4.627   3.361  22.341  0.00  0.00    -0.265 OA
ATOM      3  NP2 D76 d   1       4.850   5.525  21.673  0.00  0.00    -0.330 N 
ATOM      4  CP3 D76 d   1       4.074   6.025  22.856  0.00  0.00     0.015 C 
ATOM      5  CP4 D76 d   1       5.021   6.852  23.736  0.00  0.00     0.020 C 
ATOM      6  CP2 D76 d   1       5.540   6.571  20.806  0.00  0.00     0.107 C 
ATOM      7  CP1 D76 d   1       6.465   7.404  21.734  0.00  0.00     0.033 C 
ATOM      8  NP1 D76 d   1       5.669   7.879  22.893  0.00  0.00    -0.303 N 
ATOM      9  H11 D76 d   1       3.681   5.173  23.430  0.00  0.00     0.067 H 
ATOM     10  H12 D76 d   1       3.239   6.654  22.515  0.00  0.00     0.067 H 
ATOM     11  H13 D76 d   1       5.787   6.196  24.175  0.00  0.00     0.067 H 
ATOM     12  H14 D76 d   1       4.450   7.339  24.540  0.00  0.00     0.067 H 
ATOM     13  H15 D76 d   1       6.165   6.036  20.076  0.00  0.00     0.090 H 
ATOM     14  H18 D76 d   1       6.865   8.267  21.181  0.00  0.00     0.069 H 
ATOM     15  H19 D76 d   1       7.297   6.777  22.088  0.00  0.00     0.069 H 
ENDROOT
BRANCH   1  16
ATOM     16  CZ1 D76 d   1       6.134   3.676  20.546  0.00  0.00     0.166 A 
ATOM     17  NZ1 D76 d   1       6.846   4.385  19.639  0.00  0.00    -0.239 NA
ATOM     18  CZ6 D76 d   1       7.595   3.513  18.895  0.00  0.00     0.052 A 
ATOM     19  CZ5 D76 d   1       8.546   3.903  17.765  0.00  0.00    -0.001 C 
ATOM     20  CZ2 D76 d   1       7.439   2.194  19.235  0.00  0.00     0.035 A 
ATOM     21  CZ4 D76 d   1       9.538   2.767  17.391  0.00  0.00     0.088 C 
ATOM     22  H9  D76 d   1       7.950   4.155  16.876  0.00  0.00     0.044 H 
ATOM     23  H10 D76 d   1       9.124   4.784  18.081  0.00  0.00     0.044 H 
ATOM     24  NZ2 D76 d   1       8.888   1.408  17.335  0.00  0.00    -0.070 N 
ATOM     25  H7  D76 d   1       9.969   2.990  16.404  0.00  0.00     0.076 H 
ATOM     26  H8  D76 d   1      10.340   2.741  18.144  0.00  0.00     0.076 H 
ATOM     27  CZ3 D76 d   1       8.150   1.011  18.578  0.00  0.00     0.114 C 
ATOM     28  H4  D76 d   1       8.182   1.491  16.620  0.00  0.00     0.279 HD
ATOM     29  H5  D76 d   1       8.868   0.588  19.296  0.00  0.00     0.084 H 
ATOM     30  H6  D76 d   1       7.401   0.249  18.316  0.00  0.00     0.084 H 
ATOM     31  SZ1 D76 d   1       6.341   1.978  20.522  0.00  0.00    -0.066 SA
BRANCH  24  32
ATOM     32  CZ7 D76 d   1       9.777   0.327  16.885  0.00  0.00     0.067 C 
ATOM     33  H1  D76 d   1       9.223  -0.623  16.875  0.00  0.00     0.068 H 
ATOM     34  H2  D76 d   1      10.632   0.245  17.572  0.00  0.00     0.068 H 
ATOM     35  H3  D76 d   1      10.141   0.550  15.871  0.00  0.00     0.068 H 
ENDBRANCH  24  32
ENDBRANCH   1  16
BRANCH   6  36
ATOM     36  CC2 D76 d   1       4.590   7.512  19.991  0.00  0.00     0.240 C 
ATOM     37  OC2 D76 d   1       4.930   8.603  19.521  0.00  0.00    -0.271 OA
ATOM     38  NC2 D76 d   1       3.339   7.160  19.783  0.00  0.00    -0.368 N 
ATOM     39  H16 D76 d   1       2.731   7.760  19.263  0.00  0.00     0.159 HD
ATOM     40  H17 D76 d   1       2.997   6.293  20.145  0.00  0.00     0.159 HD
ENDBRANCH   6  36
BRANCH   8  41
ATOM     41  S1  D76 d   1       6.131   9.363  23.596  0.00  0.00     0.261 S 
ATOM     42  O1  D76 d   1       5.334   9.638  24.939  0.00  0.00    -0.200 OA
ATOM     43  O2  D76 d   1       6.051  10.438  22.428  0.00  0.00    -0.200 OA
BRANCH  41  44
ATOM     44  CN1 D76 d   1       7.813   9.044  24.009  0.00  0.00     0.080 A 
ATOM     45  CN2 D76 d   1       8.815   9.495  23.152  0.00  0.00    -0.059 A 
ATOM     46  CN3 D76 d   1      10.150   9.217  23.484  0.00  0.00    -0.071 A 
ATOM     47  H20 D76 d   1       8.569  10.047  22.252  0.00  0.00     0.085 H 
ATOM     48  CN4 D76 d   1      10.469   8.491  24.649  0.00  0.00    -0.024 A 
ATOM     49  H21 D76 d   1      10.946   9.565  22.836  0.00  0.00     0.084 H 
ATOM     50  CN5 D76 d   1      11.797   8.207  24.981  0.00  0.00    -0.051 A 
ATOM     51  CN9 D76 d   1       9.407   7.994  25.520  0.00  0.00    -0.024 A 
ATOM     52  CN6 D76 d   1      12.107   7.483  26.137  0.00  0.00     0.034 A 
ATOM     53  H22 D76 d   1      12.596   8.552  24.335  0.00  0.00     0.087 H 
ATOM     54  CN7 D76 d   1      11.083   7.030  26.991  0.00  0.00    -0.061 A 
ATOM     55 CL1  D76 d   1      13.816   7.170  26.473  0.00  0.00    -0.084 Cl
ATOM     56  CN8 D76 d   1       9.742   7.287  26.679  0.00  0.00    -0.071 A 
ATOM     57  H25 D76 d   1      11.333   6.481  27.892  0.00  0.00     0.086 H 
ATOM     58  H24 D76 d   1       8.959   6.935  27.340  0.00  0.00     0.084 H 
ATOM     59  C10 D76 d   1       8.082   8.296  25.174  0.00  0.00    -0.050 A 
ATOM     60  H23 D76 d   1       7.266   7.955  25.801  0.00  0.00     0.087 H 
ENDBRANCH  41  44
ENDBRANCH   8  41
TORSDOF 5
