REMARK  1 active torsions:
REMARK  status: ('A' for Active; 'I' for Inactive)
REMARK    1  A    between atoms: C2_3  and  N2_4 
ROOT
ATOM      1  C4  AZG d   1      53.213  47.258  27.164  0.00  0.00     0.193 A 
ATOM      2  N3  AZG d   1      54.314  46.666  27.686  0.00  0.00    -0.171 N 
ATOM      3  C2  AZG d   1      55.417  46.996  27.011  0.00  0.00     0.680 A 
ATOM      4  N1  AZG d   1      55.450  47.823  25.923  0.00  0.00    -0.154 N 
ATOM      5  C6  AZG d   1      54.340  48.456  25.350  0.00  0.00     0.291 A 
ATOM      6  O6  AZG d   1      54.492  49.193  24.349  0.00  0.00    -0.265 OA
ATOM      7  C5  AZG d   1      53.126  48.113  26.058  0.00  0.00     0.163 A 
ATOM      8  N7  AZG d   1      51.787  48.519  25.834  0.00  0.00    -0.274 N 
ATOM      9  N8  AZG d   1      51.080  47.906  26.786  0.00  0.00     0.005 NA
ATOM     10  N9  AZG d   1      51.895  47.116  27.631  0.00  0.00    -0.139 NA
ATOM     11  H1  AZG d   1      54.301  46.039  28.503  0.00  0.00     0.186 HD
ATOM     12  H4  AZG d   1      56.341  47.990  25.501  0.00  0.00     0.187 HD
ATOM     13  H5  AZG d   1      51.436  49.149  25.098  0.00  0.00     0.184 HD
ENDROOT
BRANCH   3  14
ATOM     14  N2  AZG d   1      56.587  46.503  27.378  0.00  0.00    -0.234 N 
ATOM     15  H2  AZG d   1      57.439  46.757  26.858  0.00  0.00     0.174 HD
ATOM     16  H3  AZG d   1      56.647  45.865  28.184  0.00  0.00     0.174 HD
ENDBRANCH   3  14
TORSDOF 1
