REMARK  11 active torsions:
REMARK  status: ('A' for Active; 'I' for Inactive)
REMARK    1  A    between atoms: C5_2  and  N5_16 
REMARK    2  A    between atoms: C2_5  and  C1_7 
REMARK    3  A    between atoms: N4_10  and  C8_11 
REMARK    4  A    between atoms: C8_11  and  C11_12 
REMARK    5  A    between atoms: C8_11  and  C9_13 
REMARK    6  A    between atoms: C11_12  and  C12_14 
REMARK    7  A    between atoms: C9_13  and  C10_15 
REMARK    8  A    between atoms: C13_17  and  C18_22 
REMARK    9  A    between atoms: C13_17  and  C17_24 
REMARK   10  A    between atoms: C18_22  and  O18_23 
REMARK   11  A    between atoms: C17_24  and  N17_25 
ROOT
ATOM      1  C6  IBA d   1      33.914  -9.417  64.800  0.00  0.00    -0.054 A 
ATOM      2  C5  IBA d   1      32.621  -9.036  64.358  0.00  0.00     0.064 A 
ATOM      3  C4  IBA d   1      31.504  -9.877  64.632  0.00  0.00     0.056 A 
ATOM      4  C3  IBA d   1      31.722 -11.095  65.335  0.00  0.00    -0.039 A 
ATOM      5  C2  IBA d   1      33.013 -11.465  65.757  0.00  0.00     0.043 A 
ATOM      6  C7  IBA d   1      34.104 -10.617  65.491  0.00  0.00    -0.064 A 
ATOM      7  N4  IBA d   1      30.275  -9.481  64.195  0.00  0.00    -0.383 N 
ATOM      8  H1  IBA d   1      34.762  -8.772  64.600  0.00  0.00     0.087 H 
ATOM      9  H2  IBA d   1      30.883 -11.747  65.548  0.00  0.00     0.088 H 
ATOM     10  H3  IBA d   1      35.097 -10.896  65.824  0.00  0.00     0.085 H 
ATOM     11  H4  IBA d   1      30.212  -8.552  63.755  0.00  0.00     0.160 HD
ENDROOT
BRANCH   2  12
ATOM     12  N5  IBA d   1      32.479  -7.850  63.647  0.00  0.00    -0.302 N 
ATOM     13  C13 IBA d   1      33.024  -7.600  62.272  0.00  0.00     0.085 C 
ATOM     14  C14 IBA d   1      32.075  -6.467  61.789  0.00  0.00    -0.030 C 
ATOM     15  C15 IBA d   1      31.581  -5.725  63.036  0.00  0.00     0.012 C 
ATOM     16  H16 IBA d   1      31.222  -6.897  61.244  0.00  0.00     0.037 H 
ATOM     17  H17 IBA d   1      32.620  -5.775  61.130  0.00  0.00     0.037 H 
ATOM     18  C16 IBA d   1      31.764  -6.795  64.077  0.00  0.00     0.225 C 
ATOM     19  H18 IBA d   1      30.527  -5.426  62.941  0.00  0.00     0.047 H 
ATOM     20  H19 IBA d   1      32.195  -4.838  63.252  0.00  0.00     0.047 H 
ATOM     21  O13 IBA d   1      31.261  -6.690  65.202  0.00  0.00    -0.273 OA
BRANCH  13  22
ATOM     22  C18 IBA d   1      34.544  -7.148  62.272  0.00  0.00     0.042 C 
ATOM     23  H20 IBA d   1      34.757  -6.602  61.341  0.00  0.00     0.077 H 
ATOM     24  H21 IBA d   1      35.185  -8.040  62.329  0.00  0.00     0.077 H 
BRANCH  22  25
ATOM     25  O18 IBA d   1      34.824  -6.298  63.388  0.00  0.00    -0.398 OA
ATOM     26  H22 IBA d   1      34.275  -5.524  63.341  0.00  0.00     0.209 HD
ENDBRANCH  22  25
ENDBRANCH  13  22
BRANCH  13  27
ATOM     27  C17 IBA d   1      32.867  -8.825  61.317  0.00  0.00     0.105 C 
ATOM     28  H23 IBA d   1      33.503  -9.630  61.714  0.00  0.00     0.079 H 
ATOM     29  H24 IBA d   1      33.240  -8.516  60.329  0.00  0.00     0.079 H 
BRANCH  27  30
ATOM     30  N17 IBA d   1      31.534  -9.388  61.118  0.00  0.00    -0.077 N 
ATOM     31  H25 IBA d   1      31.590 -10.167  60.481  0.00  0.00     0.274 HD
ATOM     32  H26 IBA d   1      30.925  -8.683  60.733  0.00  0.00     0.274 HD
ATOM     33  H27 IBA d   1      31.167  -9.703  62.002  0.00  0.00     0.274 HD
ENDBRANCH  27  30
ENDBRANCH  13  27
ENDBRANCH   2  12
BRANCH   7  34
ATOM     34  C8  IBA d   1      29.032 -10.258  64.294  0.00  0.00     0.009 C 
ATOM     35  H5  IBA d   1      29.168 -11.076  65.016  0.00  0.00     0.072 H 
BRANCH  34  36
ATOM     36  C11 IBA d   1      28.716 -10.876  62.910  0.00  0.00    -0.050 C 
ATOM     37  H6  IBA d   1      29.619 -10.807  62.286  0.00  0.00     0.035 H 
ATOM     38  H7  IBA d   1      27.906 -10.293  62.448  0.00  0.00     0.035 H 
BRANCH  36  39
ATOM     39  C12 IBA d   1      28.279 -12.352  62.967  0.00  0.00    -0.075 C 
ATOM     40  H10 IBA d   1      28.074 -12.713  61.948  0.00  0.00     0.027 H 
ATOM     41  H11 IBA d   1      27.368 -12.441  63.578  0.00  0.00     0.027 H 
ATOM     42  H12 IBA d   1      29.082 -12.955  63.416  0.00  0.00     0.027 H 
ENDBRANCH  36  39
ENDBRANCH  34  36
BRANCH  34  43
ATOM     43  C9  IBA d   1      27.915  -9.317  64.821  0.00  0.00    -0.050 C 
ATOM     44  H8  IBA d   1      28.234  -8.929  65.799  0.00  0.00     0.035 H 
ATOM     45  H9  IBA d   1      27.000  -9.915  64.944  0.00  0.00     0.035 H 
BRANCH  43  46
ATOM     46  C10 IBA d   1      27.577  -8.114  63.922  0.00  0.00    -0.075 C 
ATOM     47  H13 IBA d   1      26.778  -7.520  64.390  0.00  0.00     0.027 H 
ATOM     48  H14 IBA d   1      27.239  -8.474  62.939  0.00  0.00     0.027 H 
ATOM     49  H15 IBA d   1      28.473  -7.488  63.795  0.00  0.00     0.027 H 
ENDBRANCH  43  46
ENDBRANCH  34  43
ENDBRANCH   7  34
BRANCH   5  50
ATOM     50  C1  IBA d   1      33.204 -12.741  66.450  0.00  0.00     0.209 C 
ATOM     51  O21 IBA d   1      32.321 -13.714  66.144  0.00  0.00    -0.644 OA
ATOM     52  O20 IBA d   1      34.101 -12.909  67.195  0.00  0.00    -0.644 OA
ENDBRANCH   5  50
TORSDOF 11
