REMARK  10 active torsions:
REMARK  status: ('A' for Active; 'I' for Inactive)
REMARK    1  A    between atoms: C75_3  and  O95_4 
REMARK    2  A    between atoms: O95_4  and  C97_5 
REMARK    3  A    between atoms: C72_8  and  O92_9 
REMARK    4  A    between atoms: C71_10  and  C61_11 
REMARK    5  A    between atoms: C61_11  and  C54_13 
REMARK    6  A    between atoms: C51_18  and  C42_19 
REMARK    7  A    between atoms: C42_19  and  O41_20 
REMARK    8  A    between atoms: O41_20  and  C37_21 
REMARK    9  A    between atoms: C31_27  and  N23_28 
REMARK       I    between atoms: N23_28  and  C21_29 
REMARK   10  A    between atoms: C21_29  and  C14_31 
ROOT
ATOM      1  C37 I05 d   1      10.481   9.631   3.364  0.00  0.00     0.060 C 
ATOM      2  C36 I05 d   1      11.512   9.152   4.361  0.00  0.00    -0.037 C 
ATOM      3  C35 I05 d   1      12.682   8.387   3.770  0.00  0.00    -0.040 C 
ATOM      4  C34 I05 d   1      12.373   6.923   3.602  0.00  0.00     0.082 C 
ATOM      5  N33 I05 d   1      11.248   6.747   2.722  0.00  0.00    -0.073 N 
ATOM      6  C32 I05 d   1       9.962   7.079   3.288  0.00  0.00     0.102 C 
ATOM      7  C31 I05 d   1       9.522   8.509   2.942  0.00  0.00     0.060 C 
ATOM      8  H13 I05 d   1       9.896  10.443   3.821  0.00  0.00     0.086 H 
ATOM      9  H14 I05 d   1      11.006   8.494   5.083  0.00  0.00     0.036 H 
ATOM     10  H15 I05 d   1      11.912  10.032   4.885  0.00  0.00     0.036 H 
ATOM     11  H16 I05 d   1      13.549   8.492   4.439  0.00  0.00     0.035 H 
ATOM     12  H17 I05 d   1      12.924   8.814   2.786  0.00  0.00     0.035 H 
ATOM     13  H18 I05 d   1      12.137   6.487   4.584  0.00  0.00     0.075 H 
ATOM     14  H19 I05 d   1      13.250   6.414   3.176  0.00  0.00     0.075 H 
ATOM     15  H20 I05 d   1      11.223   5.780   2.439  0.00  0.00     0.277 HD
ATOM     16  H21 I05 d   1      11.392   7.331   1.913  0.00  0.00     0.277 HD
ATOM     17  H22 I05 d   1      10.022   6.983   4.382  0.00  0.00     0.079 H 
ATOM     18  H23 I05 d   1       9.212   6.375   2.899  0.00  0.00     0.079 H 
ATOM     19  H24 I05 d   1       9.455   8.562   1.845  0.00  0.00     0.079 H 
ENDROOT
BRANCH   1  20
ATOM     20  O41 I05 d   1      11.154  10.124   2.215  0.00  0.00    -0.379 OA
BRANCH  20  21
ATOM     21  C42 I05 d   1      11.744  11.402   2.316  0.00  0.00     0.044 C 
ATOM     22  H11 I05 d   1      10.958  12.145   2.518  0.00  0.00     0.081 H 
ATOM     23  H12 I05 d   1      12.467  11.399   3.145  0.00  0.00     0.081 H 
BRANCH  21  24
ATOM     24  C51 I05 d   1      12.468  11.782   1.027  0.00  0.00    -0.035 A 
ATOM     25  C56 I05 d   1      12.831  10.832   0.081  0.00  0.00    -0.074 A 
ATOM     26  C55 I05 d   1      13.501  11.189  -1.102  0.00  0.00    -0.069 A 
ATOM     27  H8  I05 d   1      12.592   9.790   0.259  0.00  0.00     0.084 H 
ATOM     28  C54 I05 d   1      13.803  12.501  -1.347  0.00  0.00     0.015 A 
ATOM     29  H7  I05 d   1      13.778  10.425  -1.820  0.00  0.00     0.085 H 
ATOM     30  C53 I05 d   1      13.468  13.467  -0.418  0.00  0.00    -0.069 A 
ATOM     31  C52 I05 d   1      12.801  13.111   0.752  0.00  0.00    -0.074 A 
ATOM     32  H9  I05 d   1      13.725  14.504  -0.600  0.00  0.00     0.085 H 
ATOM     33  H10 I05 d   1      12.534  13.882   1.465  0.00  0.00     0.084 H 
BRANCH  28  34
ATOM     34  C61 I05 d   1      14.543  12.890  -2.559  0.00  0.00     0.198 C 
ATOM     35  O62 I05 d   1      15.252  13.879  -2.484  0.00  0.00    -0.286 OA
BRANCH  34  36
ATOM     36  C71 I05 d   1      14.596  12.143  -3.854  0.00  0.00     0.089 A 
ATOM     37  C76 I05 d   1      15.853  11.729  -4.169  0.00  0.00     0.166 A 
ATOM     38  F96 I05 d   1      16.824  11.977  -3.302  0.00  0.00    -0.202 F 
ATOM     39  C75 I05 d   1      16.150  11.057  -5.314  0.00  0.00     0.107 A 
ATOM     40  C74 I05 d   1      15.136  10.791  -6.230  0.00  0.00    -0.045 A 
ATOM     41  C73 I05 d   1      13.839  11.211  -5.947  0.00  0.00    -0.047 A 
ATOM     42  H4  I05 d   1      15.353  10.264  -7.152  0.00  0.00     0.088 H 
ATOM     43  C72 I05 d   1      13.557  11.893  -4.748  0.00  0.00     0.083 A 
ATOM     44  H5  I05 d   1      13.042  11.012  -6.654  0.00  0.00     0.087 H 
BRANCH  39  45
ATOM     45  O95 I05 d   1      17.469  10.710  -5.462  0.00  0.00    -0.353 OA
BRANCH  45  46
ATOM     46  C97 I05 d   1      18.056  10.645  -6.756  0.00  0.00     0.011 C 
ATOM     47  H1  I05 d   1      19.112  10.352  -6.665  0.00  0.00     0.066 H 
ATOM     48  H2  I05 d   1      17.989  11.631  -7.239  0.00  0.00     0.066 H 
ATOM     49  H3  I05 d   1      17.520   9.902  -7.365  0.00  0.00     0.066 H 
ENDBRANCH  45  46
ENDBRANCH  39  45
BRANCH  43  50
ATOM     50  O92 I05 d   1      12.311  12.292  -4.470  0.00  0.00    -0.360 OA
ATOM     51  H6  I05 d   1      12.013  12.890  -5.145  0.00  0.00     0.217 HD
ENDBRANCH  43  50
ENDBRANCH  34  36
ENDBRANCH  28  34
ENDBRANCH  21  24
ENDBRANCH  20  21
ENDBRANCH   1  20
BRANCH   7  52
ATOM     52  N23 I05 d   1       8.178   8.721   3.478  0.00  0.00    -0.348 N 
ATOM     53  C21 I05 d   1       7.159   8.987   2.659  0.00  0.00     0.252 C 
ATOM     54  O22 I05 d   1       7.367   9.161   1.462  0.00  0.00    -0.268 OA
ATOM     55  H25 I05 d   1       8.022   8.666   4.464  0.00  0.00     0.163 HD
BRANCH  53  56
ATOM     56  C14 I05 d   1       5.740   9.083   3.180  0.00  0.00     0.034 A 
ATOM     57  C13 I05 d   1       4.672   9.263   2.301  0.00  0.00    -0.051 A 
ATOM     58  C12 I05 d   1       3.377   9.333   2.779  0.00  0.00     0.003 A 
ATOM     59  H26 I05 d   1       4.859   9.348   1.237  0.00  0.00     0.087 H 
ATOM     60  N11 I05 d   1       3.144   9.217   4.074  0.00  0.00    -0.273 NA
ATOM     61  H27 I05 d   1       2.553   9.483   2.091  0.00  0.00     0.114 H 
ATOM     62  C16 I05 d   1       4.120   9.044   4.954  0.00  0.00     0.003 A 
ATOM     63  C15 I05 d   1       5.444   8.978   4.536  0.00  0.00    -0.051 A 
ATOM     64  H28 I05 d   1       3.884   8.953   6.008  0.00  0.00     0.114 H 
ATOM     65  H29 I05 d   1       6.240   8.846   5.260  0.00  0.00     0.087 H 
ENDBRANCH  53  56
ENDBRANCH   7  52
TORSDOF 10
