REMARK  7 active torsions:
REMARK  status: ('A' for Active; 'I' for Inactive)
REMARK    1  A    between atoms: C7_7  and  C1_1 
REMARK    2  A    between atoms: C8_8  and  C7_7 
REMARK    3  A    between atoms: N_11  and  C8_8 
REMARK    4  A    between atoms: C8_8  and  B_15 
REMARK    5  A    between atoms: C_10  and  C9_9 
REMARK       I    between atoms: C_10  and  N_11 
REMARK    6  A    between atoms: B_15  and  O2B_13 
REMARK    7  A    between atoms: B_15  and  O3B_14 
ROOT
ATOM      1  C8  V36 d   1      27.744   1.822  38.348  0.00  0.00     0.049 C 
ATOM      2  H7  V36 d   1      27.387   0.930  38.883  0.00  0.00     0.065 H 
ENDROOT
BRANCH   1   3
ATOM      3  C7  V36 d   1      26.856   2.997  38.722  0.00  0.00    -0.025 C 
ATOM      4  H5  V36 d   1      27.168   3.858  38.113  0.00  0.00     0.042 H 
ATOM      5  H6  V36 d   1      25.820   2.726  38.469  0.00  0.00     0.042 H 
BRANCH   3   6
ATOM      6  C1  V36 d   1      26.876   3.429  40.169  0.00  0.00    -0.057 A 
ATOM      7  C2  V36 d   1      27.020   2.505  41.206  0.00  0.00    -0.075 A 
ATOM      8  C3  V36 d   1      26.861   2.888  42.544  0.00  0.00    -0.061 A 
ATOM      9  H1  V36 d   1      27.259   1.474  40.972  0.00  0.00     0.084 H 
ATOM     10  C4  V36 d   1      26.556   4.202  42.851  0.00  0.00     0.034 A 
ATOM     11  H2  V36 d   1      26.977   2.157  43.336  0.00  0.00     0.086 H 
ATOM     12  C5  V36 d   1      26.430   5.138  41.834  0.00  0.00    -0.061 A 
ATOM     13 CL4  V36 d   1      26.236   4.828  44.497  0.00  0.00    -0.084 Cl
ATOM     14  C6  V36 d   1      26.595   4.752  40.509  0.00  0.00    -0.075 A 
ATOM     15  H3  V36 d   1      26.203   6.171  42.073  0.00  0.00     0.086 H 
ATOM     16  H4  V36 d   1      26.503   5.494  39.724  0.00  0.00     0.084 H 
ENDBRANCH   3   6
ENDBRANCH   1   3
BRANCH   1  17
ATOM     17  N   V36 d   1      29.079   2.121  38.807  0.00  0.00    -0.360 N 
ATOM     18  C   V36 d   1      30.057   1.229  38.901  0.00  0.00     0.213 C 
ATOM     19  O   V36 d   1      29.821   0.049  39.174  0.00  0.00    -0.274 OA
ATOM     20  H11 V36 d   1      29.281   3.064  39.072  0.00  0.00     0.162 HD
BRANCH  18  21
ATOM     21  C9  V36 d   1      31.468   1.638  38.525  0.00  0.00    -0.003 C 
ATOM     22  H8  V36 d   1      32.146   0.783  38.661  0.00  0.00     0.040 H 
ATOM     23  H9  V36 d   1      31.792   2.470  39.168  0.00  0.00     0.040 H 
ATOM     24  H10 V36 d   1      31.489   1.958  37.473  0.00  0.00     0.040 H 
ENDBRANCH  18  21
ENDBRANCH   1  17
BRANCH   1  25
ATOM     25  B   V36 d   1      27.676   1.489  36.720  0.00  0.00     0.515 B 
BRANCH  25  26
ATOM     26  O2B V36 d   1      26.477   0.707  36.659  0.00  0.00    -0.436 OA
ATOM     27  H12 V36 d   1      26.446   0.240  35.832  0.00  0.00     0.184 HD
ENDBRANCH  25  26
BRANCH  25  28
ATOM     28  O3B V36 d   1      28.858   0.652  36.617  0.00  0.00    -0.436 OA
ATOM     29  H13 V36 d   1      28.843   0.185  35.790  0.00  0.00     0.184 HD
ENDBRANCH  25  28
ENDBRANCH   1  25
TORSDOF 7
