REMARK WARNING: 32 MAX_TORS EXCEEDED!!!
REMARK  39 active torsions:
REMARK  status: ('A' for Active; 'I' for Inactive)
REMARK    1  A    between atoms: C1_1  and  C4_4 
REMARK    2  A    between atoms: C4_4  and  C2_2 
REMARK    3  A    between atoms: C4_4  and  C3_3 
REMARK    4  A    between atoms: C4_4  and  S5_5 
REMARK    5  A    between atoms: S5_5  and  C8_8 
REMARK    6  A    between atoms: C8_8  and  C9_9 
REMARK    7  A    between atoms: C9_9  and  C10_10 
REMARK    8  A    between atoms: C9_9  and  C21_21 
REMARK    9  A    between atoms: C10_10  and  C11_11 
REMARK       I    between atoms: C21_21  and  N23_23 
REMARK   10  A    between atoms: N23_23  and  C24_24 
REMARK   11  A    between atoms: C24_24  and  C25_25 
REMARK   12  A    between atoms: C24_24  and  C28_28 
REMARK   13  A    between atoms: C25_25  and  C26_26 
REMARK   14  A    between atoms: C25_25  and  C27_27 
REMARK       I    between atoms: C28_28  and  N30_30 
REMARK   15  A    between atoms: N30_30  and  C31_31 
REMARK   16  A    between atoms: C31_31  and  C32_32 
REMARK   17  A    between atoms: C31_31  and  C39_39 
REMARK   18  A    between atoms: C32_32  and  C33_33 
REMARK   19  A    between atoms: C39_39  and  O40_40 
REMARK   20  A    between atoms: C39_39  and  C41_41 
REMARK   21  A    between atoms: C41_41  and  O42_42 
REMARK   22  A    between atoms: C41_41  and  C43_43 
REMARK   23  A    between atoms: C43_43  and  C44_44 
REMARK   24  A    between atoms: C43_43  and  N51_51 
REMARK   25  A    between atoms: C44_44  and  C45_45 
REMARK       I    between atoms: N51_51  and  C52_52 
REMARK   26  A    between atoms: C52_52  and  C54_54 
REMARK   27  A    between atoms: C54_54  and  C55_55 
REMARK   28  A    between atoms: C54_54  and  N58_58 
REMARK   29  A    between atoms: C55_55  and  C56_56 
REMARK   30  A    between atoms: C55_55  and  C57_57 
REMARK       I    between atoms: N58_58  and  C59_59 
REMARK   31  A    between atoms: C59_59  and  C61_61 
REMARK   32  A    between atoms: C61_61  and  C62_62 
REMARK   33  A    between atoms: C61_61  and  C73_73 
REMARK   34  A    between atoms: C62_62  and  C63_63 
REMARK   35  A    between atoms: C73_73  and  S74_74 
REMARK   36  A    between atoms: S74_74  and  C77_77 
REMARK   37  A    between atoms: C77_77  and  C78_78 
REMARK   38  A    between atoms: C77_77  and  C79_79 
REMARK   39  A    between atoms: C77_77  and  C80_80 
ROOT
ATOM      1  C39 BAY d   1     -10.781  17.084  27.585  0.00  0.00     0.082 C 
ATOM      2  H40 BAY d   1     -10.731  16.978  26.491  0.00  0.00     0.090 H 
ENDROOT
BRANCH   1   3
ATOM      3  C31 BAY d   1     -10.667  15.677  28.252  0.00  0.00     0.043 C 
ATOM      4  H32 BAY d   1      -9.708  15.165  28.082  0.00  0.00     0.077 H 
BRANCH   3   5
ATOM      5  N30 BAY d   1     -10.901  15.841  29.686  0.00  0.00    -0.352 N 
ATOM      6  C28 BAY d   1     -10.242  15.244  30.702  0.00  0.00     0.241 C 
ATOM      7  O29 BAY d   1      -9.339  14.450  30.518  0.00  0.00    -0.271 OA
ATOM      8  H31 BAY d   1     -11.635  16.469  29.945  0.00  0.00     0.163 HD
BRANCH   6   9
ATOM      9  C24 BAY d   1     -10.646  15.574  32.155  0.00  0.00     0.092 C 
ATOM     10  H23 BAY d   1     -11.137  16.556  32.225  0.00  0.00     0.088 H 
BRANCH   9  11
ATOM     11  N23 BAY d   1     -11.533  14.487  32.693  0.00  0.00    -0.347 N 
ATOM     12  C21 BAY d   1     -12.558  14.804  33.521  0.00  0.00     0.223 C 
ATOM     13  O22 BAY d   1     -12.738  15.977  33.805  0.00  0.00    -0.273 OA
ATOM     14  H22 BAY d   1     -11.368  13.534  32.441  0.00  0.00     0.163 HD
BRANCH  12  15
ATOM     15  C9  BAY d   1     -13.601  13.931  34.213  0.00  0.00     0.040 C 
ATOM     16  H12 BAY d   1     -14.003  14.616  34.974  0.00  0.00     0.056 H 
BRANCH  15  17
ATOM     17  C8  BAY d   1     -13.213  12.685  35.093  0.00  0.00     0.041 C 
ATOM     18  H10 BAY d   1     -14.067  12.444  35.743  0.00  0.00     0.057 H 
ATOM     19  H11 BAY d   1     -13.014  11.838  34.421  0.00  0.00     0.057 H 
BRANCH  17  20
ATOM     20  S5  BAY d   1     -11.752  12.934  36.142  0.00  0.00     0.152 S 
ATOM     21  O6  BAY d   1     -11.241  14.295  36.110  0.00  0.00    -0.227 OA
ATOM     22  O7  BAY d   1     -10.837  11.859  35.887  0.00  0.00    -0.227 OA
BRANCH  20  23
ATOM     23  C4  BAY d   1     -12.826  12.534  37.544  0.00  0.00     0.053 C 
BRANCH  23  24
ATOM     24  C1  BAY d   1     -14.312  12.987  37.337  0.00  0.00    -0.057 C 
ATOM     25  H1  BAY d   1     -14.905  12.714  38.222  0.00  0.00     0.029 H 
ATOM     26  H2  BAY d   1     -14.727  12.488  36.449  0.00  0.00     0.029 H 
ATOM     27  H3  BAY d   1     -14.347  14.077  37.194  0.00  0.00     0.029 H 
ENDBRANCH  23  24
BRANCH  23  28
ATOM     28  C2  BAY d   1     -12.855  10.988  37.845  0.00  0.00    -0.057 C 
ATOM     29  H4  BAY d   1     -13.518  10.793  38.701  0.00  0.00     0.029 H 
ATOM     30  H5  BAY d   1     -11.838  10.642  38.082  0.00  0.00     0.029 H 
ATOM     31  H6  BAY d   1     -13.229  10.449  36.962  0.00  0.00     0.029 H 
ENDBRANCH  23  28
BRANCH  23  32
ATOM     32  C3  BAY d   1     -12.235  13.168  38.829  0.00  0.00    -0.057 C 
ATOM     33  H7  BAY d   1     -12.882  12.930  39.686  0.00  0.00     0.029 H 
ATOM     34  H8  BAY d   1     -12.177  14.259  38.706  0.00  0.00     0.029 H 
ATOM     35  H9  BAY d   1     -11.227  12.765  39.007  0.00  0.00     0.029 H 
ENDBRANCH  23  32
ENDBRANCH  20  23
ENDBRANCH  17  20
ENDBRANCH  15  17
BRANCH  15  36
ATOM     36  C10 BAY d   1     -14.828  13.680  33.250  0.00  0.00    -0.028 C 
ATOM     37  H13 BAY d   1     -14.725  14.320  32.361  0.00  0.00     0.041 H 
ATOM     38  H14 BAY d   1     -15.758  13.935  33.779  0.00  0.00     0.041 H 
BRANCH  36  39
ATOM     39  C11 BAY d   1     -14.891  12.156  32.790  0.00  0.00    -0.046 A 
ATOM     40  C12 BAY d   1     -13.658  11.513  32.715  0.00  0.00    -0.076 A 
ATOM     41  C13 BAY d   1     -13.390  10.147  32.338  0.00  0.00    -0.082 A 
ATOM     42  H15 BAY d   1     -12.793  12.113  32.972  0.00  0.00     0.084 H 
ATOM     43  C14 BAY d   1     -14.601   9.461  32.022  0.00  0.00    -0.072 A 
ATOM     44  H16 BAY d   1     -12.402   9.702  32.300  0.00  0.00     0.083 H 
ATOM     45  C15 BAY d   1     -15.899  10.077  32.083  0.00  0.00    -0.025 A 
ATOM     46  H17 BAY d   1     -14.539   8.422  31.720  0.00  0.00     0.084 H 
ATOM     47  C16 BAY d   1     -17.069   9.375  31.769  0.00  0.00    -0.072 A 
ATOM     48  C20 BAY d   1     -16.078  11.509  32.487  0.00  0.00    -0.020 A 
ATOM     49  C17 BAY d   1     -18.478   9.855  31.781  0.00  0.00    -0.082 A 
ATOM     50  H18 BAY d   1     -16.930   8.340  31.477  0.00  0.00     0.084 H 
ATOM     51  C18 BAY d   1     -18.639  11.213  32.158  0.00  0.00    -0.082 A 
ATOM     52  H19 BAY d   1     -19.315   9.217  31.522  0.00  0.00     0.083 H 
ATOM     53  C19 BAY d   1     -17.455  11.948  32.478  0.00  0.00    -0.072 A 
ATOM     54  H20 BAY d   1     -19.619  11.674  32.202  0.00  0.00     0.083 H 
ATOM     55  H21 BAY d   1     -17.613  12.984  32.754  0.00  0.00     0.084 H 
ENDBRANCH  36  39
ENDBRANCH  15  36
ENDBRANCH  12  15
ENDBRANCH   9  11
BRANCH   9  56
ATOM     56  C25 BAY d   1      -9.302  15.526  32.969  0.00  0.00    -0.033 C 
ATOM     57  H24 BAY d   1      -8.882  14.511  33.030  0.00  0.00     0.042 H 
BRANCH  56  58
ATOM     58  C26 BAY d   1      -9.391  16.313  34.283  0.00  0.00    -0.071 C 
ATOM     59  H25 BAY d   1      -8.430  16.250  34.814  0.00  0.00     0.028 H 
ATOM     60  H26 BAY d   1     -10.187  15.887  34.912  0.00  0.00     0.028 H 
ATOM     61  H27 BAY d   1      -9.620  17.366  34.065  0.00  0.00     0.028 H 
ENDBRANCH  56  58
BRANCH  56  62
ATOM     62  C27 BAY d   1      -8.381  16.652  32.446  0.00  0.00    -0.071 C 
ATOM     63  H28 BAY d   1      -8.072  16.424  31.415  0.00  0.00     0.028 H 
ATOM     64  H29 BAY d   1      -7.491  16.726  33.088  0.00  0.00     0.028 H 
ATOM     65  H30 BAY d   1      -8.925  17.608  32.462  0.00  0.00     0.028 H 
ENDBRANCH  56  62
ENDBRANCH   9  56
ENDBRANCH   6   9
ENDBRANCH   3   5
BRANCH   3  66
ATOM     66  C32 BAY d   1     -11.824  15.066  27.425  0.00  0.00    -0.020 C 
ATOM     67  H33 BAY d   1     -11.398  14.393  26.667  0.00  0.00     0.043 H 
ATOM     68  H34 BAY d   1     -12.370  15.881  26.927  0.00  0.00     0.043 H 
BRANCH  66  69
ATOM     69  C33 BAY d   1     -12.807  14.274  28.286  0.00  0.00    -0.056 A 
ATOM     70  C34 BAY d   1     -12.457  12.855  28.443  0.00  0.00    -0.077 A 
ATOM     71  C35 BAY d   1     -13.377  12.139  29.231  0.00  0.00    -0.082 A 
ATOM     72  H35 BAY d   1     -11.578  12.405  27.996  0.00  0.00     0.084 H 
ATOM     73  C36 BAY d   1     -14.463  12.769  29.778  0.00  0.00    -0.083 A 
ATOM     74  H36 BAY d   1     -13.225  11.080  29.407  0.00  0.00     0.083 H 
ATOM     75  C37 BAY d   1     -14.855  14.142  29.673  0.00  0.00    -0.082 A 
ATOM     76  H37 BAY d   1     -15.116  12.141  30.373  0.00  0.00     0.083 H 
ATOM     77  C38 BAY d   1     -13.954  14.886  28.886  0.00  0.00    -0.077 A 
ATOM     78  H38 BAY d   1     -15.739  14.559  30.142  0.00  0.00     0.083 H 
ATOM     79  H39 BAY d   1     -14.133  15.944  28.732  0.00  0.00     0.084 H 
ENDBRANCH  66  69
ENDBRANCH   3  66
ENDBRANCH   1   3
BRANCH   1  80
ATOM     80  O40 BAY d   1     -12.061  17.588  27.978  0.00  0.00    -0.391 OA
ATOM     81  H41 BAY d   1     -12.191  18.450  27.600  0.00  0.00     0.210 HD
ENDBRANCH   1  80
BRANCH   1  82
ATOM     82  C41 BAY d   1      -9.676  18.069  28.040  0.00  0.00     0.082 C 
ATOM     83  H42 BAY d   1      -9.467  17.918  29.110  0.00  0.00     0.090 H 
BRANCH  82  84
ATOM     84  O42 BAY d   1     -10.259  19.343  27.822  0.00  0.00    -0.391 OA
ATOM     85  H43 BAY d   1      -9.643  20.020  28.077  0.00  0.00     0.210 HD
ENDBRANCH  82  84
BRANCH  82  86
ATOM     86  C43 BAY d   1      -8.349  17.957  27.271  0.00  0.00     0.043 C 
ATOM     87  H44 BAY d   1      -8.008  16.977  27.637  0.00  0.00     0.077 H 
BRANCH  86  88
ATOM     88  C44 BAY d   1      -7.224  18.786  27.812  0.00  0.00    -0.020 C 
ATOM     89  H45 BAY d   1      -7.427  18.975  28.877  0.00  0.00     0.043 H 
ATOM     90  H46 BAY d   1      -7.216  19.741  27.265  0.00  0.00     0.043 H 
BRANCH  88  91
ATOM     91  C45 BAY d   1      -5.817  18.170  27.703  0.00  0.00    -0.056 A 
ATOM     92  C46 BAY d   1      -5.281  17.231  28.584  0.00  0.00    -0.077 A 
ATOM     93  C47 BAY d   1      -3.956  16.774  28.368  0.00  0.00    -0.082 A 
ATOM     94  H47 BAY d   1      -5.865  16.858  29.417  0.00  0.00     0.084 H 
ATOM     95  C48 BAY d   1      -3.191  17.239  27.285  0.00  0.00    -0.083 A 
ATOM     96  H48 BAY d   1      -3.525  16.052  29.052  0.00  0.00     0.083 H 
ATOM     97  C49 BAY d   1      -3.732  18.181  26.400  0.00  0.00    -0.082 A 
ATOM     98  H49 BAY d   1      -2.183  16.869  27.134  0.00  0.00     0.083 H 
ATOM     99  C50 BAY d   1      -5.038  18.637  26.622  0.00  0.00    -0.077 A 
ATOM    100  H50 BAY d   1      -3.152  18.549  25.561  0.00  0.00     0.083 H 
ATOM    101  H51 BAY d   1      -5.462  19.369  25.945  0.00  0.00     0.084 H 
ENDBRANCH  88  91
ENDBRANCH  86  88
BRANCH  86 102
ATOM    102  N51 BAY d   1      -8.475  17.621  25.886  0.00  0.00    -0.352 N 
ATOM    103  C52 BAY d   1      -8.141  16.385  25.389  0.00  0.00     0.241 C 
ATOM    104  O53 BAY d   1      -7.659  15.538  26.157  0.00  0.00    -0.271 OA
ATOM    105  H52 BAY d   1      -8.820  18.315  25.254  0.00  0.00     0.163 HD
BRANCH 103 106
ATOM    106  C54 BAY d   1      -8.318  16.080  23.941  0.00  0.00     0.092 C 
ATOM    107  H53 BAY d   1      -8.809  17.051  23.782  0.00  0.00     0.088 H 
BRANCH 106 108
ATOM    108  C55 BAY d   1      -9.480  15.424  23.238  0.00  0.00    -0.033 C 
ATOM    109  H54 BAY d   1      -9.316  14.344  23.364  0.00  0.00     0.042 H 
BRANCH 108 110
ATOM    110  C56 BAY d   1     -10.832  15.726  23.935  0.00  0.00    -0.071 C 
ATOM    111  H55 BAY d   1     -11.646  15.228  23.388  0.00  0.00     0.028 H 
ATOM    112  H56 BAY d   1     -11.006  16.812  23.942  0.00  0.00     0.028 H 
ATOM    113  H57 BAY d   1     -10.803  15.352  24.969  0.00  0.00     0.028 H 
ENDBRANCH 108 110
BRANCH 108 114
ATOM    114  C57 BAY d   1      -9.546  15.642  21.714  0.00  0.00    -0.071 C 
ATOM    115  H58 BAY d   1      -8.566  15.415  21.268  0.00  0.00     0.028 H 
ATOM    116  H59 BAY d   1      -9.811  16.689  21.504  0.00  0.00     0.028 H 
ATOM    117  H60 BAY d   1     -10.308  14.977  21.281  0.00  0.00     0.028 H 
ENDBRANCH 108 114
ENDBRANCH 106 108
BRANCH 106 118
ATOM    118  N58 BAY d   1      -7.166  16.479  23.236  0.00  0.00    -0.347 N 
ATOM    119  C59 BAY d   1      -7.122  17.558  22.398  0.00  0.00     0.223 C 
ATOM    120  O60 BAY d   1      -8.027  18.317  22.163  0.00  0.00    -0.273 OA
ATOM    121  H61 BAY d   1      -6.331  15.941  23.355  0.00  0.00     0.163 HD
BRANCH 119 122
ATOM    122  C61 BAY d   1      -5.710  17.693  21.871  0.00  0.00     0.040 C 
ATOM    123  H62 BAY d   1      -5.292  16.676  21.911  0.00  0.00     0.056 H 
BRANCH 122 124
ATOM    124  C62 BAY d   1      -5.182  18.526  23.097  0.00  0.00    -0.028 C 
ATOM    125  H63 BAY d   1      -5.149  17.823  23.942  0.00  0.00     0.041 H 
ATOM    126  H64 BAY d   1      -5.947  19.293  23.288  0.00  0.00     0.041 H 
BRANCH 124 127
ATOM    127  C63 BAY d   1      -3.825  19.274  23.121  0.00  0.00    -0.046 A 
ATOM    128  C64 BAY d   1      -4.052  20.651  23.341  0.00  0.00    -0.076 A 
ATOM    129  C65 BAY d   1      -2.962  21.524  23.407  0.00  0.00    -0.082 A 
ATOM    130  H65 BAY d   1      -5.062  21.027  23.457  0.00  0.00     0.084 H 
ATOM    131  C66 BAY d   1      -1.646  21.058  23.264  0.00  0.00    -0.072 A 
ATOM    132  H66 BAY d   1      -3.137  22.581  23.572  0.00  0.00     0.083 H 
ATOM    133  C67 BAY d   1      -1.417  19.680  23.043  0.00  0.00    -0.025 A 
ATOM    134  H67 BAY d   1      -0.812  21.748  23.322  0.00  0.00     0.084 H 
ATOM    135  C68 BAY d   1      -0.083  19.250  22.904  0.00  0.00    -0.072 A 
ATOM    136  C72 BAY d   1      -2.514  18.776  22.965  0.00  0.00    -0.020 A 
ATOM    137  C69 BAY d   1       0.204  17.894  22.689  0.00  0.00    -0.082 A 
ATOM    138  H68 BAY d   1       0.725  19.970  22.963  0.00  0.00     0.084 H 
ATOM    139  C70 BAY d   1      -0.859  16.987  22.618  0.00  0.00    -0.082 A 
ATOM    140  H69 BAY d   1       1.228  17.556  22.580  0.00  0.00     0.083 H 
ATOM    141  C71 BAY d   1      -2.180  17.417  22.753  0.00  0.00    -0.072 A 
ATOM    142  H70 BAY d   1      -0.654  15.935  22.456  0.00  0.00     0.083 H 
ATOM    143  H71 BAY d   1      -2.977  16.685  22.693  0.00  0.00     0.084 H 
ENDBRANCH 124 127
ENDBRANCH 122 124
BRANCH 122 144
ATOM    144  C73 BAY d   1      -5.154  18.218  20.547  0.00  0.00     0.041 C 
ATOM    145  H72 BAY d   1      -4.142  18.616  20.712  0.00  0.00     0.057 H 
ATOM    146  H73 BAY d   1      -5.807  19.020  20.173  0.00  0.00     0.057 H 
BRANCH 144 147
ATOM    147  S74 BAY d   1      -5.077  16.871  19.300  0.00  0.00     0.152 S 
ATOM    148  O75 BAY d   1      -4.084  15.911  19.827  0.00  0.00    -0.227 OA
ATOM    149  O76 BAY d   1      -6.435  16.364  19.146  0.00  0.00    -0.227 OA
BRANCH 147 150
ATOM    150  C77 BAY d   1      -4.196  17.672  17.870  0.00  0.00     0.053 C 
BRANCH 150 151
ATOM    151  C78 BAY d   1      -3.606  16.414  17.067  0.00  0.00    -0.057 C 
ATOM    152  H74 BAY d   1      -3.054  16.769  16.184  0.00  0.00     0.029 H 
ATOM    153  H75 BAY d   1      -4.433  15.764  16.746  0.00  0.00     0.029 H 
ATOM    154  H76 BAY d   1      -2.926  15.848  17.721  0.00  0.00     0.029 H 
ENDBRANCH 150 151
BRANCH 150 155
ATOM    155  C79 BAY d   1      -5.281  18.026  16.797  0.00  0.00    -0.057 C 
ATOM    156  H77 BAY d   1      -4.799  18.504  15.931  0.00  0.00     0.029 H 
ATOM    157  H78 BAY d   1      -6.017  18.717  17.234  0.00  0.00     0.029 H 
ATOM    158  H79 BAY d   1      -5.789  17.106  16.472  0.00  0.00     0.029 H 
ENDBRANCH 150 155
BRANCH 150 159
ATOM    159  C80 BAY d   1      -3.742  19.133  18.266  0.00  0.00    -0.057 C 
ATOM    160  H80 BAY d   1      -3.223  19.599  17.416  0.00  0.00     0.029 H 
ATOM    161  H81 BAY d   1      -3.062  19.084  19.129  0.00  0.00     0.029 H 
ATOM    162  H82 BAY d   1      -4.626  19.733  18.529  0.00  0.00     0.029 H 
ENDBRANCH 150 159
ENDBRANCH 147 150
ENDBRANCH 144 147
ENDBRANCH 122 144
ENDBRANCH 119 122
ENDBRANCH 106 118
ENDBRANCH 103 106
ENDBRANCH  86 102
ENDBRANCH  82  86
ENDBRANCH   1  82
TORSDOF 39
