REMARK WARNING: 32 MAX_TORS EXCEEDED!!!
REMARK  39 active torsions:
REMARK  status: ('A' for Active; 'I' for Inactive)
REMARK    1  A    between atoms: C1_1  and  C4_4 
REMARK    2  A    between atoms: C4_4  and  C2_2 
REMARK    3  A    between atoms: C4_4  and  C3_3 
REMARK    4  A    between atoms: C4_4  and  S5_5 
REMARK    5  A    between atoms: S5_5  and  C8_8 
REMARK    6  A    between atoms: C8_8  and  C9_9 
REMARK    7  A    between atoms: C9_9  and  C10_10 
REMARK    8  A    between atoms: C9_9  and  C21_21 
REMARK    9  A    between atoms: C10_10  and  C11_11 
REMARK       I    between atoms: C21_21  and  N23_23 
REMARK   10  A    between atoms: N23_23  and  C24_24 
REMARK   11  A    between atoms: C24_24  and  C25_25 
REMARK   12  A    between atoms: C24_24  and  C28_28 
REMARK   13  A    between atoms: C25_25  and  C26_26 
REMARK   14  A    between atoms: C25_25  and  C27_27 
REMARK       I    between atoms: C28_28  and  N30_30 
REMARK   15  A    between atoms: N30_30  and  C31_31 
REMARK   16  A    between atoms: C31_31  and  C32_32 
REMARK   17  A    between atoms: C31_31  and  C39_39 
REMARK   18  A    between atoms: C32_32  and  C33_33 
REMARK   19  A    between atoms: C39_39  and  O40_40 
REMARK   20  A    between atoms: C39_39  and  C41_41 
REMARK   21  A    between atoms: C41_41  and  O42_42 
REMARK   22  A    between atoms: C41_41  and  C43_43 
REMARK   23  A    between atoms: C43_43  and  C44_44 
REMARK   24  A    between atoms: C43_43  and  N51_51 
REMARK   25  A    between atoms: C44_44  and  C45_45 
REMARK       I    between atoms: N51_51  and  C52_52 
REMARK   26  A    between atoms: C52_52  and  C54_54 
REMARK   27  A    between atoms: C54_54  and  C55_55 
REMARK   28  A    between atoms: C54_54  and  N58_58 
REMARK   29  A    between atoms: C55_55  and  C56_56 
REMARK   30  A    between atoms: C55_55  and  C57_57 
REMARK       I    between atoms: N58_58  and  C59_59 
REMARK   31  A    between atoms: C59_59  and  C61_61 
REMARK   32  A    between atoms: C61_61  and  C62_62 
REMARK   33  A    between atoms: C61_61  and  C73_73 
REMARK   34  A    between atoms: C62_62  and  C63_63 
REMARK   35  A    between atoms: C73_73  and  S74_74 
REMARK   36  A    between atoms: S74_74  and  C77_77 
REMARK   37  A    between atoms: C77_77  and  C78_78 
REMARK   38  A    between atoms: C77_77  and  C79_79 
REMARK   39  A    between atoms: C77_77  and  C80_80 
ROOT
ATOM      1  C39 BAY d   1      13.374  23.754   3.712  0.00  0.00     0.082 C 
ATOM      2  H40 BAY d   1      13.891  23.003   3.097  0.00  0.00     0.090 H 
ENDROOT
BRANCH   1   3
ATOM      3  C31 BAY d   1      11.973  23.154   4.124  0.00  0.00     0.043 C 
ATOM      4  H32 BAY d   1      12.051  22.283   4.791  0.00  0.00     0.077 H 
BRANCH   3   5
ATOM      5  N30 BAY d   1      11.202  24.304   4.768  0.00  0.00    -0.352 N 
ATOM      6  C28 BAY d   1      10.714  24.125   6.007  0.00  0.00     0.241 C 
ATOM      7  O29 BAY d   1      10.865  23.074   6.623  0.00  0.00    -0.271 OA
ATOM      8  H31 BAY d   1      11.064  25.166   4.281  0.00  0.00     0.163 HD
BRANCH   6   9
ATOM      9  C24 BAY d   1       9.949  25.348   6.570  0.00  0.00     0.092 C 
ATOM     10  H23 BAY d   1      10.447  26.253   6.191  0.00  0.00     0.088 H 
BRANCH   9  11
ATOM     11  N23 BAY d   1       8.625  25.316   5.964  0.00  0.00    -0.347 N 
ATOM     12  C21 BAY d   1       8.154  26.389   5.333  0.00  0.00     0.223 C 
ATOM     13  O22 BAY d   1       8.807  27.434   5.242  0.00  0.00    -0.273 OA
ATOM     14  H22 BAY d   1       8.069  24.487   6.022  0.00  0.00     0.163 HD
BRANCH  12  15
ATOM     15  C9  BAY d   1       6.744  26.281   4.703  0.00  0.00     0.040 C 
ATOM     16  H12 BAY d   1       6.384  25.242   4.711  0.00  0.00     0.056 H 
BRANCH  15  17
ATOM     17  C8  BAY d   1       5.771  27.211   5.411  0.00  0.00     0.041 C 
ATOM     18  H10 BAY d   1       6.374  28.040   5.810  0.00  0.00     0.057 H 
ATOM     19  H11 BAY d   1       5.090  27.592   4.635  0.00  0.00     0.057 H 
BRANCH  17  20
ATOM     20  S5  BAY d   1       4.713  26.644   6.783  0.00  0.00     0.152 S 
ATOM     21  O6  BAY d   1       5.677  26.840   7.809  0.00  0.00    -0.227 OA
ATOM     22  O7  BAY d   1       4.000  25.535   6.748  0.00  0.00    -0.227 OA
BRANCH  20  23
ATOM     23  C4  BAY d   1       3.859  28.214   7.049  0.00  0.00     0.053 C 
BRANCH  23  24
ATOM     24  C1  BAY d   1       4.572  29.419   7.558  0.00  0.00    -0.057 C 
ATOM     25  H1  BAY d   1       3.863  30.256   7.643  0.00  0.00     0.029 H 
ATOM     26  H2  BAY d   1       5.378  29.691   6.860  0.00  0.00     0.029 H 
ATOM     27  H3  BAY d   1       5.002  29.200   8.547  0.00  0.00     0.029 H 
ENDBRANCH  23  24
BRANCH  23  28
ATOM     28  C2  BAY d   1       3.322  28.655   5.729  0.00  0.00    -0.057 C 
ATOM     29  H4  BAY d   1       2.793  29.612   5.850  0.00  0.00     0.029 H 
ATOM     30  H5  BAY d   1       2.625  27.896   5.345  0.00  0.00     0.029 H 
ATOM     31  H6  BAY d   1       4.153  28.782   5.019  0.00  0.00     0.029 H 
ENDBRANCH  23  28
BRANCH  23  32
ATOM     32  C3  BAY d   1       2.650  28.042   7.901  0.00  0.00    -0.057 C 
ATOM     33  H7  BAY d   1       2.158  29.016   8.040  0.00  0.00     0.029 H 
ATOM     34  H8  BAY d   1       2.946  27.637   8.880  0.00  0.00     0.029 H 
ATOM     35  H9  BAY d   1       1.953  27.346   7.412  0.00  0.00     0.029 H 
ENDBRANCH  23  32
ENDBRANCH  20  23
ENDBRANCH  17  20
ENDBRANCH  15  17
BRANCH  15  36
ATOM     36  C10 BAY d   1       6.869  26.858   3.247  0.00  0.00    -0.028 C 
ATOM     37  H13 BAY d   1       7.878  26.668   2.851  0.00  0.00     0.041 H 
ATOM     38  H14 BAY d   1       6.675  27.941   3.252  0.00  0.00     0.041 H 
BRANCH  36  39
ATOM     39  C11 BAY d   1       5.803  26.127   2.369  0.00  0.00    -0.046 A 
ATOM     40  C12 BAY d   1       4.715  25.535   3.041  0.00  0.00    -0.076 A 
ATOM     41  C13 BAY d   1       3.739  24.873   2.278  0.00  0.00    -0.082 A 
ATOM     42  H15 BAY d   1       4.633  25.589   4.121  0.00  0.00     0.084 H 
ATOM     43  C14 BAY d   1       3.871  24.817   0.871  0.00  0.00    -0.072 A 
ATOM     44  H16 BAY d   1       2.889  24.408   2.765  0.00  0.00     0.083 H 
ATOM     45  C15 BAY d   1       4.958  25.409   0.209  0.00  0.00    -0.025 A 
ATOM     46  H17 BAY d   1       3.114  24.304   0.289  0.00  0.00     0.084 H 
ATOM     47  C16 BAY d   1       5.084  25.345  -1.202  0.00  0.00    -0.072 A 
ATOM     48  C20 BAY d   1       5.959  26.088   0.967  0.00  0.00    -0.020 A 
ATOM     49  C17 BAY d   1       6.191  25.949  -1.865  0.00  0.00    -0.082 A 
ATOM     50  H18 BAY d   1       4.328  24.830  -1.784  0.00  0.00     0.084 H 
ATOM     51  C18 BAY d   1       7.171  26.618  -1.117  0.00  0.00    -0.082 A 
ATOM     52  H19 BAY d   1       6.276  25.892  -2.944  0.00  0.00     0.083 H 
ATOM     53  C19 BAY d   1       7.068  26.695   0.308  0.00  0.00    -0.072 A 
ATOM     54  H20 BAY d   1       8.012  27.080  -1.622  0.00  0.00     0.083 H 
ATOM     55  H21 BAY d   1       7.828  27.212   0.883  0.00  0.00     0.084 H 
ENDBRANCH  36  39
ENDBRANCH  15  36
ENDBRANCH  12  15
ENDBRANCH   9  11
BRANCH   9  56
ATOM     56  C25 BAY d   1      10.024  25.455   8.094  0.00  0.00    -0.033 C 
ATOM     57  H24 BAY d   1       9.661  24.482   8.456  0.00  0.00     0.042 H 
BRANCH  56  58
ATOM     58  C26 BAY d   1       9.163  26.476   8.835  0.00  0.00    -0.071 C 
ATOM     59  H25 BAY d   1       9.355  26.402   9.916  0.00  0.00     0.028 H 
ATOM     60  H26 BAY d   1       8.100  26.272   8.637  0.00  0.00     0.028 H 
ATOM     61  H27 BAY d   1       9.414  27.489   8.487  0.00  0.00     0.028 H 
ENDBRANCH  56  58
BRANCH  56  62
ATOM     62  C27 BAY d   1      11.502  25.556   8.531  0.00  0.00    -0.071 C 
ATOM     63  H28 BAY d   1      12.098  24.811   7.983  0.00  0.00     0.028 H 
ATOM     64  H29 BAY d   1      11.579  25.364   9.611  0.00  0.00     0.028 H 
ATOM     65  H30 BAY d   1      11.882  26.564   8.310  0.00  0.00     0.028 H 
ENDBRANCH  56  62
ENDBRANCH   9  56
ENDBRANCH   6   9
ENDBRANCH   3   5
BRANCH   3  66
ATOM     66  C32 BAY d   1      11.334  22.810   2.780  0.00  0.00    -0.020 C 
ATOM     67  H33 BAY d   1      12.082  22.266   2.184  0.00  0.00     0.043 H 
ATOM     68  H34 BAY d   1      11.083  23.756   2.278  0.00  0.00     0.043 H 
BRANCH  66  69
ATOM     69  C33 BAY d   1      10.085  21.970   2.821  0.00  0.00    -0.056 A 
ATOM     70  C34 BAY d   1      10.136  20.584   2.644  0.00  0.00    -0.077 A 
ATOM     71  C35 BAY d   1       8.920  19.819   2.695  0.00  0.00    -0.082 A 
ATOM     72  H35 BAY d   1      11.085  20.090   2.470  0.00  0.00     0.084 H 
ATOM     73  C36 BAY d   1       7.682  20.467   2.920  0.00  0.00    -0.083 A 
ATOM     74  H36 BAY d   1       8.951  18.744   2.561  0.00  0.00     0.083 H 
ATOM     75  C37 BAY d   1       7.639  21.870   3.098  0.00  0.00    -0.082 A 
ATOM     76  H37 BAY d   1       6.766  19.888   2.956  0.00  0.00     0.083 H 
ATOM     77  C38 BAY d   1       8.827  22.611   3.050  0.00  0.00    -0.077 A 
ATOM     78  H38 BAY d   1       6.692  22.369   3.271  0.00  0.00     0.083 H 
ATOM     79  H39 BAY d   1       8.792  23.686   3.188  0.00  0.00     0.084 H 
ENDBRANCH  66  69
ENDBRANCH   3  66
ENDBRANCH   1   3
BRANCH   1  80
ATOM     80  O40 BAY d   1      13.026  24.882   2.858  0.00  0.00    -0.391 OA
ATOM     81  H41 BAY d   1      13.820  25.309   2.560  0.00  0.00     0.210 HD
ENDBRANCH   1  80
BRANCH   1  82
ATOM     82  C41 BAY d   1      14.359  24.102   4.865  0.00  0.00     0.082 C 
ATOM     83  H42 BAY d   1      13.815  24.889   5.408  0.00  0.00     0.090 H 
BRANCH  82  84
ATOM     84  O42 BAY d   1      15.558  24.713   4.423  0.00  0.00    -0.391 OA
ATOM     85  H43 BAY d   1      15.352  25.523   3.972  0.00  0.00     0.210 HD
ENDBRANCH  82  84
BRANCH  82  86
ATOM     86  C43 BAY d   1      14.736  23.095   5.973  0.00  0.00     0.043 C 
ATOM     87  H44 BAY d   1      13.808  22.614   6.316  0.00  0.00     0.077 H 
BRANCH  86  88
ATOM     88  C44 BAY d   1      15.421  23.736   7.213  0.00  0.00    -0.020 C 
ATOM     89  H45 BAY d   1      14.740  24.494   7.627  0.00  0.00     0.043 H 
ATOM     90  H46 BAY d   1      16.350  24.221   6.879  0.00  0.00     0.043 H 
BRANCH  88  91
ATOM     91  C45 BAY d   1      15.769  22.760   8.319  0.00  0.00    -0.056 A 
ATOM     92  C46 BAY d   1      14.875  22.363   9.329  0.00  0.00    -0.077 A 
ATOM     93  C47 BAY d   1      15.300  21.431  10.324  0.00  0.00    -0.082 A 
ATOM     94  H47 BAY d   1      13.868  22.763   9.352  0.00  0.00     0.084 H 
ATOM     95  C48 BAY d   1      16.609  20.922  10.279  0.00  0.00    -0.083 A 
ATOM     96  H48 BAY d   1      14.619  21.119  11.107  0.00  0.00     0.083 H 
ATOM     97  C49 BAY d   1      17.509  21.322   9.268  0.00  0.00    -0.082 A 
ATOM     98  H49 BAY d   1      16.932  20.212  11.032  0.00  0.00     0.083 H 
ATOM     99  C50 BAY d   1      17.080  22.247   8.280  0.00  0.00    -0.077 A 
ATOM    100  H50 BAY d   1      18.518  20.927   9.246  0.00  0.00     0.083 H 
ATOM    101  H51 BAY d   1      17.761  22.558   7.496  0.00  0.00     0.084 H 
ENDBRANCH  88  91
ENDBRANCH  86  88
BRANCH  86 102
ATOM    102  N51 BAY d   1      15.625  22.059   5.413  0.00  0.00    -0.352 N 
ATOM    103  C52 BAY d   1      15.216  20.813   5.134  0.00  0.00     0.241 C 
ATOM    104  O53 BAY d   1      14.098  20.285   5.268  0.00  0.00    -0.271 OA
ATOM    105  H52 BAY d   1      16.579  22.298   5.233  0.00  0.00     0.163 HD
BRANCH 103 106
ATOM    106  C54 BAY d   1      16.303  19.888   4.555  0.00  0.00     0.092 C 
ATOM    107  H53 BAY d   1      17.046  20.463   3.982  0.00  0.00     0.088 H 
BRANCH 106 108
ATOM    108  C55 BAY d   1      15.607  18.816   3.644  0.00  0.00    -0.033 C 
ATOM    109  H54 BAY d   1      14.950  18.251   4.322  0.00  0.00     0.042 H 
BRANCH 108 110
ATOM    110  C56 BAY d   1      14.689  19.499   2.641  0.00  0.00    -0.071 C 
ATOM    111  H55 BAY d   1      14.207  18.739   2.008  0.00  0.00     0.028 H 
ATOM    112  H56 BAY d   1      15.278  20.181   2.010  0.00  0.00     0.028 H 
ATOM    113  H57 BAY d   1      13.918  20.070   3.179  0.00  0.00     0.028 H 
ENDBRANCH 108 110
BRANCH 108 114
ATOM    114  C57 BAY d   1      16.483  17.757   2.992  0.00  0.00    -0.071 C 
ATOM    115  H58 BAY d   1      17.126  17.293   3.754  0.00  0.00     0.028 H 
ATOM    116  H59 BAY d   1      17.110  18.225   2.219  0.00  0.00     0.028 H 
ATOM    117  H60 BAY d   1      15.846  16.987   2.532  0.00  0.00     0.028 H 
ENDBRANCH 108 114
ENDBRANCH 106 108
BRANCH 106 118
ATOM    118  N58 BAY d   1      16.944  19.184   5.711  0.00  0.00    -0.347 N 
ATOM    119  C59 BAY d   1      18.298  19.012   5.693  0.00  0.00     0.223 C 
ATOM    120  O60 BAY d   1      19.017  19.426   4.770  0.00  0.00    -0.273 OA
ATOM    121  H61 BAY d   1      16.394  18.849   6.476  0.00  0.00     0.163 HD
BRANCH 119 122
ATOM    122  C61 BAY d   1      18.846  18.292   6.906  0.00  0.00     0.040 C 
ATOM    123  H62 BAY d   1      18.035  17.751   7.415  0.00  0.00     0.056 H 
BRANCH 122 124
ATOM    124  C62 BAY d   1      19.442  19.416   7.788  0.00  0.00    -0.028 C 
ATOM    125  H63 BAY d   1      18.714  20.237   7.866  0.00  0.00     0.041 H 
ATOM    126  H64 BAY d   1      20.366  19.788   7.322  0.00  0.00     0.041 H 
BRANCH 124 127
ATOM    127  C63 BAY d   1      19.760  18.900   9.178  0.00  0.00    -0.046 A 
ATOM    128  C64 BAY d   1      21.033  19.181   9.749  0.00  0.00    -0.076 A 
ATOM    129  C65 BAY d   1      21.324  18.703  11.045  0.00  0.00    -0.082 A 
ATOM    130  H65 BAY d   1      21.769  19.754   9.197  0.00  0.00     0.084 H 
ATOM    131  C66 BAY d   1      20.380  17.959  11.765  0.00  0.00    -0.072 A 
ATOM    132  H66 BAY d   1      22.290  18.914  11.489  0.00  0.00     0.083 H 
ATOM    133  C67 BAY d   1      19.127  17.673  11.218  0.00  0.00    -0.025 A 
ATOM    134  H67 BAY d   1      20.625  17.601  12.758  0.00  0.00     0.084 H 
ATOM    135  C68 BAY d   1      18.188  16.922  11.965  0.00  0.00    -0.072 A 
ATOM    136  C72 BAY d   1      18.817  18.155   9.903  0.00  0.00    -0.020 A 
ATOM    137  C69 BAY d   1      16.927  16.651  11.383  0.00  0.00    -0.082 A 
ATOM    138  H68 BAY d   1      18.429  16.563  12.959  0.00  0.00     0.084 H 
ATOM    139  C70 BAY d   1      16.606  17.119  10.091  0.00  0.00    -0.082 A 
ATOM    140  H69 BAY d   1      16.196  16.075  11.938  0.00  0.00     0.083 H 
ATOM    141  C71 BAY d   1      17.550  17.878   9.335  0.00  0.00    -0.072 A 
ATOM    142  H70 BAY d   1      15.632  16.900   9.668  0.00  0.00     0.083 H 
ATOM    143  H71 BAY d   1      17.301  18.236   8.343  0.00  0.00     0.084 H 
ENDBRANCH 124 127
ENDBRANCH 122 124
BRANCH 122 144
ATOM    144  C73 BAY d   1      20.042  17.328   6.647  0.00  0.00     0.041 C 
ATOM    145  H72 BAY d   1      20.519  17.074   7.605  0.00  0.00     0.057 H 
ATOM    146  H73 BAY d   1      20.774  17.824   5.993  0.00  0.00     0.057 H 
BRANCH 144 147
ATOM    147  S74 BAY d   1      19.451  15.799   5.843  0.00  0.00     0.152 S 
ATOM    148  O75 BAY d   1      17.990  15.281   6.377  0.00  0.00    -0.227 OA
ATOM    149  O76 BAY d   1      19.263  15.715   4.290  0.00  0.00    -0.227 OA
BRANCH 147 150
ATOM    150  C77 BAY d   1      20.651  14.603   6.396  0.00  0.00     0.053 C 
BRANCH 150 151
ATOM    151  C78 BAY d   1      22.062  15.072   6.575  0.00  0.00    -0.057 C 
ATOM    152  H74 BAY d   1      22.686  14.233   6.917  0.00  0.00     0.029 H 
ATOM    153  H75 BAY d   1      22.088  15.878   7.323  0.00  0.00     0.029 H 
ATOM    154  H76 BAY d   1      22.448  15.449   5.616  0.00  0.00     0.029 H 
ENDBRANCH 150 151
BRANCH 150 155
ATOM    155  C79 BAY d   1      20.648  14.037   7.883  0.00  0.00    -0.057 C 
ATOM    156  H77 BAY d   1      21.471  13.316   8.003  0.00  0.00     0.029 H 
ATOM    157  H78 BAY d   1      19.689  13.536   8.083  0.00  0.00     0.029 H 
ATOM    158  H79 BAY d   1      20.782  14.867   8.592  0.00  0.00     0.029 H 
ENDBRANCH 150 155
BRANCH 150 159
ATOM    159  C80 BAY d   1      20.382  13.120   5.936  0.00  0.00    -0.057 C 
ATOM    160  H80 BAY d   1      21.175  12.465   6.327  0.00  0.00     0.029 H 
ATOM    161  H81 BAY d   1      20.376  13.072   4.837  0.00  0.00     0.029 H 
ATOM    162  H82 BAY d   1      19.407  12.787   6.323  0.00  0.00     0.029 H 
ENDBRANCH 150 159
ENDBRANCH 147 150
ENDBRANCH 144 147
ENDBRANCH 122 144
ENDBRANCH 119 122
ENDBRANCH 106 118
ENDBRANCH 103 106
ENDBRANCH  86 102
ENDBRANCH  82  86
ENDBRANCH   1  82
TORSDOF 39
