REMARK  2 active torsions:
REMARK  status: ('A' for Active; 'I' for Inactive)
REMARK    1  A    between atoms: C3_3  and  N1_7 
REMARK       I    between atoms: N1_7  and  C7_8 
REMARK       I    between atoms: C7_8  and  N2_10 
REMARK    2  A    between atoms: N2_10  and  C8_11 
ROOT
ATOM      1  C1  CIU d   1      13.579  10.623 142.813  0.00  0.00    -0.063 C 
ATOM      2  C2  CIU d   1      14.088  10.879 141.356  0.00  0.00    -0.046 C 
ATOM      3  C3  CIU d   1      15.202  11.970 141.325  0.00  0.00     0.014 C 
ATOM      4  C4  CIU d   1      14.683  13.309 141.941  0.00  0.00    -0.046 C 
ATOM      5  C5  CIU d   1      14.211  13.092 143.417  0.00  0.00    -0.063 C 
ATOM      6  C6  CIU d   1      13.124  11.958 143.516  0.00  0.00    -0.065 C 
ATOM      7  H1  CIU d   1      14.392  10.171 143.400  0.00  0.00     0.033 H 
ATOM      8  H2  CIU d   1      12.725   9.931 142.775  0.00  0.00     0.033 H 
ATOM      9  H3  CIU d   1      13.243  11.213 140.735  0.00  0.00     0.035 H 
ATOM     10  H4  CIU d   1      14.494   9.941 140.949  0.00  0.00     0.035 H 
ATOM     11  H5  CIU d   1      16.061  11.621 141.917  0.00  0.00     0.072 H 
ATOM     12  H6  CIU d   1      13.838  13.678 141.342  0.00  0.00     0.035 H 
ATOM     13  H7  CIU d   1      15.494  14.052 141.927  0.00  0.00     0.035 H 
ATOM     14  H8  CIU d   1      13.783  14.031 143.797  0.00  0.00     0.033 H 
ATOM     15  H9  CIU d   1      15.079  12.810 144.031  0.00  0.00     0.033 H 
ATOM     16  H10 CIU d   1      12.928  11.749 144.578  0.00  0.00     0.033 H 
ATOM     17  H11 CIU d   1      12.200  12.312 143.036  0.00  0.00     0.033 H 
ENDROOT
BRANCH   3  18
ATOM     18  N1  CIU d   1      15.632  12.175 139.928  0.00  0.00    -0.338 N 
ATOM     19  C7  CIU d   1      16.457  11.376 139.254  0.00  0.00     0.321 C 
ATOM     20  O2  CIU d   1      16.609  10.271 139.765  0.00  0.00    -0.247 OA
ATOM     21  N2  CIU d   1      17.077  11.704 138.131  0.00  0.00    -0.309 N 
ATOM     22  H13 CIU d   1      16.881  12.627 137.799  0.00  0.00     0.170 HD
ATOM     23  H12 CIU d   1      15.275  12.978 139.450  0.00  0.00     0.164 HD
BRANCH  21  24
ATOM     24  C8  CIU d   1      17.978  10.955 137.319  0.00  0.00     0.036 A 
ATOM     25  C9  CIU d   1      18.326   9.636 137.651  0.00  0.00    -0.056 A 
ATOM     26  C10 CIU d   1      19.273   8.859 136.790  0.00  0.00    -0.065 A 
ATOM     27  H14 CIU d   1      17.906   9.176 138.538  0.00  0.00     0.087 H 
ATOM     28  C11 CIU d   1      19.788   9.464 135.659  0.00  0.00     0.006 A 
ATOM     29  H15 CIU d   1      19.549   7.843 137.048  0.00  0.00     0.085 H 
ATOM     30  C12 CIU d   1      19.435  10.804 135.318  0.00  0.00    -0.065 A 
ATOM     31  I4  CIU d   1      21.107   8.339 134.477  0.00  0.00    -0.045 I 
ATOM     32  C13 CIU d   1      18.525  11.545 136.146  0.00  0.00    -0.056 A 
ATOM     33  H16 CIU d   1      19.855  11.264 134.431  0.00  0.00     0.085 H 
ATOM     34  H17 CIU d   1      18.254  12.559 135.876  0.00  0.00     0.087 H 
ENDBRANCH  21  24
ENDBRANCH   3  18
TORSDOF 2
