REMARK  30 active torsions:
REMARK  status: ('A' for Active; 'I' for Inactive)
REMARK    1  A    between atoms: N_1  and  CA_2 
REMARK    2  A    between atoms: CA_2  and  C_3 
REMARK    3  A    between atoms: CA_2  and  CB_5 
REMARK       I    between atoms: C_3  and  N_13 
REMARK    4  A    between atoms: CB_5  and  CG_6 
REMARK    5  A    between atoms: CZ_11  and  OH_12 
REMARK    6  A    between atoms: N_13  and  CA_14 
REMARK    7  A    between atoms: CA_14  and  C_15 
REMARK    8  A    between atoms: CA_14  and  CB_17 
REMARK       I    between atoms: C_15  and  N_21 
REMARK    9  A    between atoms: CB_17  and  CG_18 
REMARK   10  A    between atoms: CG_18  and  CD1_19 
REMARK   11  A    between atoms: CG_18  and  CD2_20 
REMARK   12  A    between atoms: N_21  and  CA_22 
REMARK   13  A    between atoms: CA_22  and  C_23 
REMARK   14  A    between atoms: CA_22  and  CB_25 
REMARK       I    between atoms: C_23  and  N_28 
REMARK   15  A    between atoms: CB_25  and  CG1_26 
REMARK   16  A    between atoms: CB_25  and  CG2_27 
REMARK   17  A    between atoms: N_28  and  CA_29 
REMARK   18  A    between atoms: CA_29  and  C_30 
REMARK   19  A    between atoms: CA_29  and  CB_32 
REMARK       I    between atoms: C_30  and  N_35 
REMARK   20  A    between atoms: CB_32  and  OG1_33 
REMARK   21  A    between atoms: CB_32  and  CG2_34 
REMARK   22  A    between atoms: N_35  and  CA_36 
REMARK   23  A    between atoms: CA_36  and  C_37 
REMARK   24  A    between atoms: CA_36  and  CB_39 
REMARK       I    between atoms: C_37  and  N_41 
REMARK   25  A    between atoms: CB_39  and  OG_40 
REMARK   26  A    between atoms: N_41  and  CA_42 
REMARK   27  A    between atoms: CA_42  and  C_43 
REMARK   28  A    between atoms: CA_42  and  CB_45 
REMARK   29  A    between atoms: CB_45  and  CG1_46 
REMARK   30  A    between atoms: CB_45  and  CG2_47 
ROOT
ATOM      1  CA  VAL d   1       4.713  -0.403  13.074  0.00  0.00     0.092 C 
ATOM      2  H24 VAL d   1       4.244  -0.555  12.091  0.00  0.00     0.088 H 
ENDROOT
BRANCH   1   3
ATOM      3  N   VAL d   1       5.863  -1.250  12.992  0.00  0.00    -0.346 N 
ATOM      4  C   LEU d   1       7.101  -1.075  13.487  0.00  0.00     0.241 C 
ATOM      5  O   LEU d   1       7.467  -0.007  13.976  0.00  0.00    -0.271 OA
ATOM      6  H23 VAL d   1       5.725  -2.103  12.489  0.00  0.00     0.163 HD
BRANCH   4   7
ATOM      7  CA  LEU d   1       8.019  -2.245  13.395  0.00  0.00     0.089 C 
ATOM      8  H13 LEU d   1       8.163  -2.428  12.320  0.00  0.00     0.087 H 
BRANCH   7   9
ATOM      9  N   LEU d   1       9.328  -2.024  13.926  0.00  0.00    -0.346 N 
ATOM     10  C   TYR d   1       9.659  -1.713  15.192  0.00  0.00     0.249 C 
ATOM     11  O   TYR d   1       8.838  -1.716  16.109  0.00  0.00    -0.271 OA
ATOM     12  H12 LEU d   1      10.087  -2.111  13.280  0.00  0.00     0.163 HD
BRANCH  10  13
ATOM     13  CA  TYR d   1      11.082  -1.343  15.428  0.00  0.00     0.179 C 
ATOM     14  H4  TYR d   1      11.237  -1.216  16.510  0.00  0.00     0.099 H 
BRANCH  13  15
ATOM     15  N   TYR d   1      11.942  -2.383  14.953  0.00  0.00    -0.066 N 
ATOM     16  H1  TYR d   1      12.903  -2.125  15.116  0.00  0.00     0.275 HD
ATOM     17  H2  TYR d   1      11.793  -2.517  13.965  0.00  0.00     0.275 HD
ATOM     18  H3  TYR d   1      11.736  -3.239  15.443  0.00  0.00     0.275 HD
ENDBRANCH  13  15
BRANCH  13  19
ATOM     19  CB  TYR d   1      11.440  -0.025  14.720  0.00  0.00    -0.006 C 
ATOM     20  H5  TYR d   1      10.762   0.113  13.865  0.00  0.00     0.043 H 
ATOM     21  H6  TYR d   1      12.477  -0.087  14.359  0.00  0.00     0.043 H 
BRANCH  19  22
ATOM     22  CG  TYR d   1      11.317   1.154  15.624  0.00  0.00    -0.056 A 
ATOM     23  CD1 TYR d   1      10.135   1.846  15.738  0.00  0.00    -0.074 A 
ATOM     24  CE1 TYR d   1      10.058   2.968  16.530  0.00  0.00    -0.051 A 
ATOM     25  H7  TYR d   1       9.258   1.505  15.200  0.00  0.00     0.084 H 
ATOM     26  CZ  TYR d   1      11.171   3.408  17.205  0.00  0.00     0.065 A 
ATOM     27  H9  TYR d   1       9.120   3.504  16.622  0.00  0.00     0.087 H 
ATOM     28  CE2 TYR d   1      12.352   2.710  17.111  0.00  0.00    -0.051 A 
ATOM     29  CD2 TYR d   1      12.420   1.586  16.322  0.00  0.00    -0.074 A 
ATOM     30  H10 TYR d   1      13.226   3.045  17.657  0.00  0.00     0.087 H 
ATOM     31  H8  TYR d   1      13.351   1.036  16.250  0.00  0.00     0.084 H 
BRANCH  26  32
ATOM     32  OH  TYR d   1      11.117   4.583  17.984  0.00  0.00    -0.361 OA
ATOM     33  H11 TYR d   1      10.240   4.945  17.948  0.00  0.00     0.217 HD
ENDBRANCH  26  32
ENDBRANCH  19  22
ENDBRANCH  13  19
ENDBRANCH  10  13
ENDBRANCH   7   9
BRANCH   7  34
ATOM     34  CB  LEU d   1       7.370  -3.517  13.965  0.00  0.00    -0.035 C 
ATOM     35  H14 LEU d   1       6.773  -3.216  14.838  0.00  0.00     0.037 H 
ATOM     36  H15 LEU d   1       8.184  -4.182  14.289  0.00  0.00     0.037 H 
BRANCH  34  37
ATOM     37  CG  LEU d   1       6.451  -4.335  13.043  0.00  0.00    -0.059 C 
ATOM     38  H16 LEU d   1       5.668  -3.684  12.626  0.00  0.00     0.038 H 
BRANCH  37  39
ATOM     39  CD1 LEU d   1       7.247  -4.973  11.892  0.00  0.00    -0.073 C 
ATOM     40  H17 LEU d   1       6.565  -5.551  11.251  0.00  0.00     0.028 H 
ATOM     41  H18 LEU d   1       8.016  -5.642  12.305  0.00  0.00     0.028 H 
ATOM     42  H19 LEU d   1       7.729  -4.183  11.297  0.00  0.00     0.028 H 
ENDBRANCH  37  39
BRANCH  37  43
ATOM     43  CD2 LEU d   1       5.815  -5.438  13.906  0.00  0.00    -0.073 C 
ATOM     44  H20 LEU d   1       5.247  -4.978  14.728  0.00  0.00     0.028 H 
ATOM     45  H21 LEU d   1       6.606  -6.080  14.321  0.00  0.00     0.028 H 
ATOM     46  H22 LEU d   1       5.138  -6.044  13.286  0.00  0.00     0.028 H 
ENDBRANCH  37  43
ENDBRANCH  34  37
ENDBRANCH   7  34
ENDBRANCH   4   7
ENDBRANCH   1   3
BRANCH   1  47
ATOM     47  C   VAL d   1       4.961   1.067  13.085  0.00  0.00     0.241 C 
ATOM     48  O   VAL d   1       5.143   1.728  14.106  0.00  0.00    -0.271 OA
ATOM     49  N   THR d   1       4.988   1.610  11.855  0.00  0.00    -0.344 N 
ATOM     50  H32 THR d   1       4.720   1.031  11.085  0.00  0.00     0.163 HD
BRANCH  49  51
ATOM     51  CA  THR d   1       5.373   2.956  11.570  0.00  0.00     0.113 C 
ATOM     52  H33 THR d   1       5.551   3.518  12.498  0.00  0.00     0.091 H 
BRANCH  51  53
ATOM     53  C   THR d   1       4.188   3.464  10.822  0.00  0.00     0.243 C 
ATOM     54  O   THR d   1       3.812   2.872   9.813  0.00  0.00    -0.271 OA
ATOM     55  N   SER d   1       3.568   4.541  11.336  0.00  0.00    -0.344 N 
ATOM     56  H39 SER d   1       3.842   4.844  12.249  0.00  0.00     0.163 HD
BRANCH  55  57
ATOM     57  CA  SER d   1       2.543   5.284  10.668  0.00  0.00     0.109 C 
ATOM     58  H40 SER d   1       1.828   4.563  10.245  0.00  0.00     0.090 H 
BRANCH  57  59
ATOM     59  C   SER d   1       3.136   6.064   9.545  0.00  0.00     0.243 C 
ATOM     60  O   SER d   1       4.056   6.861   9.727  0.00  0.00    -0.271 OA
ATOM     61  N   VAL d   1       2.655   5.813   8.315  0.00  0.00    -0.344 N 
ATOM     62  H44 VAL d   1       1.906   5.155   8.231  0.00  0.00     0.163 HD
BRANCH  61  63
ATOM     63  CA  VAL d   1       3.145   6.426   7.119  0.00  0.00     0.099 C 
ATOM     64  H45 VAL d   1       3.415   7.466   7.353  0.00  0.00     0.090 H 
BRANCH  63  65
ATOM     65  C   VAL d   1       1.920   6.465   6.218  0.00  0.00     0.197 C 
ATOM     66  O   VAL d   1       0.873   5.828   6.511  0.00  0.00    -0.646 OA
ATOM     67  OXT VAL d   1       1.975   7.271   5.251  0.00  0.00    -0.646 OA
ENDBRANCH  63  65
BRANCH  63  68
ATOM     68  CB  VAL d   1       4.396   5.806   6.572  0.00  0.00    -0.032 C 
ATOM     69  H46 VAL d   1       5.215   6.454   6.918  0.00  0.00     0.042 H 
BRANCH  68  70
ATOM     70  CG1 VAL d   1       4.698   4.403   7.125  0.00  0.00    -0.071 C 
ATOM     71  H47 VAL d   1       5.627   4.024   6.675  0.00  0.00     0.028 H 
ATOM     72  H48 VAL d   1       3.868   3.725   6.879  0.00  0.00     0.028 H 
ATOM     73  H49 VAL d   1       4.816   4.457   8.217  0.00  0.00     0.028 H 
ENDBRANCH  68  70
BRANCH  68  74
ATOM     74  CG2 VAL d   1       4.484   5.793   5.036  0.00  0.00    -0.071 C 
ATOM     75  H50 VAL d   1       4.267   6.799   4.648  0.00  0.00     0.028 H 
ATOM     76  H51 VAL d   1       3.751   5.079   4.633  0.00  0.00     0.028 H 
ATOM     77  H52 VAL d   1       5.497   5.492   4.729  0.00  0.00     0.028 H 
ENDBRANCH  68  74
ENDBRANCH  63  68
ENDBRANCH  61  63
ENDBRANCH  57  59
BRANCH  57  78
ATOM     78  CB  SER d   1       1.763   6.210  11.615  0.00  0.00     0.044 C 
ATOM     79  H41 SER d   1       1.275   5.593  12.384  0.00  0.00     0.077 H 
ATOM     80  H42 SER d   1       0.997   6.742  11.031  0.00  0.00     0.077 H 
BRANCH  78  81
ATOM     81  OG  SER d   1       2.584   7.171  12.263  0.00  0.00    -0.398 OA
ATOM     82  H43 SER d   1       3.005   7.718  11.610  0.00  0.00     0.209 HD
ENDBRANCH  78  81
ENDBRANCH  57  78
ENDBRANCH  55  57
ENDBRANCH  51  53
BRANCH  51  83
ATOM     83  CB  THR d   1       6.568   3.070  10.670  0.00  0.00     0.060 C 
ATOM     84  H34 THR d   1       6.310   2.638   9.692  0.00  0.00     0.086 H 
BRANCH  83  85
ATOM     85  OG1 THR d   1       7.680   2.376  11.214  0.00  0.00    -0.393 OA
ATOM     86  H35 THR d   1       7.460   1.457  11.315  0.00  0.00     0.210 HD
ENDBRANCH  83  85
BRANCH  83  87
ATOM     87  CG2 THR d   1       7.000   4.534  10.479  0.00  0.00    -0.050 C 
ATOM     88  H36 THR d   1       7.876   4.574   9.815  0.00  0.00     0.031 H 
ATOM     89  H37 THR d   1       7.259   4.970  11.455  0.00  0.00     0.031 H 
ATOM     90  H38 THR d   1       6.173   5.105  10.030  0.00  0.00     0.031 H 
ENDBRANCH  83  87
ENDBRANCH  51  83
ENDBRANCH  49  51
ENDBRANCH   1  47
BRANCH   1  91
ATOM     91  CB  VAL d   1       3.641  -0.857  14.021  0.00  0.00    -0.033 C 
ATOM     92  H25 VAL d   1       2.878  -0.068  14.100  0.00  0.00     0.042 H 
BRANCH  91  93
ATOM     93  CG1 VAL d   1       2.996  -2.115  13.417  0.00  0.00    -0.071 C 
ATOM     94  H26 VAL d   1       2.202  -2.478  14.087  0.00  0.00     0.028 H 
ATOM     95  H27 VAL d   1       3.760  -2.897  13.297  0.00  0.00     0.028 H 
ATOM     96  H28 VAL d   1       2.564  -1.870  12.435  0.00  0.00     0.028 H 
ENDBRANCH  91  93
BRANCH  91  97
ATOM     97  CG2 VAL d   1       4.198  -1.122  15.430  0.00  0.00    -0.071 C 
ATOM     98  H29 VAL d   1       4.649  -0.200  15.825  0.00  0.00     0.028 H 
ATOM     99  H30 VAL d   1       4.962  -1.912  15.380  0.00  0.00     0.028 H 
ATOM    100  H31 VAL d   1       3.381  -1.444  16.093  0.00  0.00     0.028 H 
ENDBRANCH  91  97
ENDBRANCH   1  91
TORSDOF 30
