REMARK  15 active torsions:
REMARK  status: ('A' for Active; 'I' for Inactive)
REMARK    1  A    between atoms: O2_1  and  C3_2 
REMARK    2  A    between atoms: C3_2  and  C4_3 
REMARK    3  A    between atoms: C4_3  and  N5_4 
REMARK    4  A    between atoms: C4_3  and  C22_21 
REMARK       I    between atoms: N5_4  and  C6_5 
REMARK    5  A    between atoms: C6_5  and  C7_6 
REMARK    6  A    between atoms: C7_6  and  N8_7 
REMARK    7  A    between atoms: C7_6  and  C19_18 
REMARK    8  A    between atoms: N8_7  and  S9_8 
REMARK    9  A    between atoms: S9_8  and  C10_9 
REMARK   10  A    between atoms: C10_9  and  C11_10 
REMARK   11  A    between atoms: C19_18  and  O20_19 
REMARK       I    between atoms: C22_21  and  N24_23 
REMARK   12  A    between atoms: N24_23  and  C25_24 
REMARK   13  A    between atoms: C25_24  and  C26_25 
REMARK   14  A    between atoms: C29_28  and  C32_31 
REMARK   15  A    between atoms: C32_31  and  N33_32 
ROOT
ATOM      1  C4  7IN d   1      28.939  10.514  31.067  0.00  0.00     0.109 C 
ATOM      2  H4  7IN d   1      29.017   9.825  31.921  0.00  0.00     0.090 H 
ENDROOT
BRANCH   1   3
ATOM      3  C3  7IN d   1      27.695  11.414  31.216  0.00  0.00     0.044 C 
ATOM      4  H2  7IN d   1      27.250  11.127  32.180  0.00  0.00     0.077 H 
ATOM      5  H3  7IN d   1      28.091  12.438  31.285  0.00  0.00     0.077 H 
BRANCH   3   6
ATOM      6  O2  7IN d   1      26.620  11.501  30.333  0.00  0.00    -0.398 OA
ATOM      7  H1  7IN d   1      26.933  11.782  29.481  0.00  0.00     0.209 HD
ENDBRANCH   3   6
ENDBRANCH   1   3
BRANCH   1   8
ATOM      8  N5  7IN d   1      30.086  11.400  31.050  0.00  0.00    -0.344 N 
ATOM      9  C6  7IN d   1      31.406  10.917  30.929  0.00  0.00     0.243 C 
ATOM     10  O21 7IN d   1      31.674   9.732  30.835  0.00  0.00    -0.271 OA
ATOM     11  H5  7IN d   1      29.937  12.386  31.127  0.00  0.00     0.163 HD
BRANCH   9  12
ATOM     12  C7  7IN d   1      32.515  11.967  30.909  0.00  0.00     0.116 C 
ATOM     13  H6  7IN d   1      32.020  12.937  30.750  0.00  0.00     0.091 H 
BRANCH  12  14
ATOM     14  N8  7IN d   1      33.505  11.789  29.886  0.00  0.00    -0.303 N 
ATOM     15  H7  7IN d   1      34.377  11.422  30.211  0.00  0.00     0.173 HD
BRANCH  14  16
ATOM     16  S9  7IN d   1      33.449  12.088  28.259  0.00  0.00     0.231 S 
ATOM     17  O17 7IN d   1      33.163  13.488  28.153  0.00  0.00    -0.206 OA
ATOM     18  O18 7IN d   1      34.817  11.692  27.840  0.00  0.00    -0.206 OA
BRANCH  16  19
ATOM     19  C10 7IN d   1      32.099  11.139  27.520  0.00  0.00     0.070 C 
ATOM     20  H8  7IN d   1      31.137  11.490  27.921  0.00  0.00     0.066 H 
ATOM     21  H9  7IN d   1      32.226  10.071  27.753  0.00  0.00     0.066 H 
BRANCH  19  22
ATOM     22  C11 7IN d   1      32.131  11.343  26.008  0.00  0.00    -0.043 A 
ATOM     23  C12 7IN d   1      31.826  12.611  25.370  0.00  0.00    -0.076 A 
ATOM     24  C13 7IN d   1      31.881  12.734  23.927  0.00  0.00    -0.082 A 
ATOM     25  H10 7IN d   1      31.556  13.469  25.975  0.00  0.00     0.084 H 
ATOM     26  C14 7IN d   1      32.240  11.582  23.141  0.00  0.00    -0.083 A 
ATOM     27  H11 7IN d   1      31.655  13.679  23.447  0.00  0.00     0.083 H 
ATOM     28  C15 7IN d   1      32.541  10.324  23.770  0.00  0.00    -0.082 A 
ATOM     29  H12 7IN d   1      32.284  11.664  22.061  0.00  0.00     0.083 H 
ATOM     30  C16 7IN d   1      32.487  10.203  25.203  0.00  0.00    -0.076 A 
ATOM     31  H13 7IN d   1      32.809   9.466  23.164  0.00  0.00     0.083 H 
ATOM     32  H14 7IN d   1      32.714   9.255  25.676  0.00  0.00     0.084 H 
ENDBRANCH  19  22
ENDBRANCH  16  19
ENDBRANCH  14  16
ENDBRANCH  12  14
BRANCH  12  33
ATOM     33  C19 7IN d   1      33.341  12.046  32.197  0.00  0.00     0.044 C 
ATOM     34  H15 7IN d   1      34.036  12.897  32.145  0.00  0.00     0.077 H 
ATOM     35  H16 7IN d   1      33.911  11.115  32.335  0.00  0.00     0.077 H 
BRANCH  33  36
ATOM     36  O20 7IN d   1      32.444  12.223  33.266  0.00  0.00    -0.398 OA
ATOM     37  H17 7IN d   1      32.930  12.275  34.081  0.00  0.00     0.209 HD
ENDBRANCH  33  36
ENDBRANCH  12  33
ENDBRANCH   9  12
ENDBRANCH   1   8
BRANCH   1  38
ATOM     38  C22 7IN d   1      28.814   9.706  29.782  0.00  0.00     0.242 C 
ATOM     39  O23 7IN d   1      28.994  10.247  28.711  0.00  0.00    -0.271 OA
ATOM     40  N24 7IN d   1      28.513   8.362  29.966  0.00  0.00    -0.355 N 
ATOM     41  H18 7IN d   1      28.385   8.012  30.894  0.00  0.00     0.162 HD
BRANCH  40  42
ATOM     42  C25 7IN d   1      28.380   7.457  28.845  0.00  0.00     0.019 C 
ATOM     43  H19 7IN d   1      28.072   8.043  27.967  0.00  0.00     0.071 H 
ATOM     44  H20 7IN d   1      27.598   6.723  29.089  0.00  0.00     0.071 H 
BRANCH  42  45
ATOM     45  C26 7IN d   1      29.651   6.694  28.484  0.00  0.00    -0.040 A 
ATOM     46  C27 7IN d   1      29.726   5.293  28.787  0.00  0.00    -0.074 A 
ATOM     47  C28 7IN d   1      30.893   4.533  28.471  0.00  0.00    -0.069 A 
ATOM     48  H21 7IN d   1      28.884   4.804  29.263  0.00  0.00     0.084 H 
ATOM     49  C29 7IN d   1      32.057   5.144  27.831  0.00  0.00     0.007 A 
ATOM     50  H22 7IN d   1      30.916   3.476  28.712  0.00  0.00     0.085 H 
ATOM     51  C30 7IN d   1      32.006   6.563  27.514  0.00  0.00    -0.069 A 
ATOM     52  C31 7IN d   1      30.810   7.317  27.842  0.00  0.00    -0.074 A 
ATOM     53  H23 7IN d   1      32.850   7.051  27.039  0.00  0.00     0.085 H 
ATOM     54  H24 7IN d   1      30.774   8.374  27.604  0.00  0.00     0.084 H 
BRANCH  49  55
ATOM     55  C32 7IN d   1      33.190   4.332  27.545  0.00  0.00     0.102 C 
ATOM     56  N34 7IN d   1      34.330   4.758  26.966  0.00  0.00    -0.385 N 
ATOM     57  H27 7IN d   1      34.431   5.746  26.692  0.00  0.00     0.157 HD
ATOM     58  H28 7IN d   1      35.101   4.096  26.798  0.00  0.00     0.157 HD
BRANCH  55  59
ATOM     59  N33 7IN d   1      33.199   3.017  27.850  0.00  0.00    -0.385 N 
ATOM     60  H25 7IN d   1      34.028   2.444  27.636  0.00  0.00     0.157 HD
ATOM     61  H26 7IN d   1      32.377   2.586  28.297  0.00  0.00     0.157 HD
ENDBRANCH  55  59
ENDBRANCH  49  55
ENDBRANCH  42  45
ENDBRANCH  40  42
ENDBRANCH   1  38
TORSDOF 15
