REMARK  12 active torsions:
REMARK  status: ('A' for Active; 'I' for Inactive)
REMARK    1  A    between atoms: C10_1  and  C9_2 
REMARK    2  A    between atoms: C9_2  and  C8_3 
REMARK    3  A    between atoms: C8_3  and  C11_4 
REMARK    4  A    between atoms: C7_10  and  C1_11 
REMARK    5  A    between atoms: C7_10  and  C17_18 
REMARK    6  A    between atoms: C4_14  and  O4_15 
REMARK    7  A    between atoms: C20_21  and  O20_22 
REMARK    8  A    between atoms: O20_22  and  C23_23 
REMARK    9  A    between atoms: C23_23  and  C24_24 
REMARK   10  A    between atoms: C24_24  and  N24_25 
REMARK   11  A    between atoms: N24_25  and  C25_26 
REMARK   12  A    between atoms: N24_25  and  C26_27 
ROOT
ATOM      1  C8  OHT d   1     -17.943  56.049 -11.434  0.00  0.00    -0.036 C 
ATOM      2  C7  OHT d   1     -17.849  57.409 -11.120  0.00  0.00    -0.009 C 
ENDROOT
BRANCH   2   3
ATOM      3  C1  OHT d   1     -18.954  58.237 -10.447  0.00  0.00    -0.024 A 
ATOM      4  C2  OHT d   1     -19.437  59.480 -11.036  0.00  0.00    -0.070 A 
ATOM      5  C3  OHT d   1     -20.443  60.243 -10.396  0.00  0.00    -0.050 A 
ATOM      6  H11 OHT d   1     -19.021  59.824 -11.976  0.00  0.00     0.085 H 
ATOM      7  C4  OHT d   1     -20.985  59.782  -9.162  0.00  0.00     0.065 A 
ATOM      8  H12 OHT d   1     -20.797  61.167 -10.839  0.00  0.00     0.087 H 
ATOM      9  C5  OHT d   1     -20.527  58.567  -8.566  0.00  0.00    -0.050 A 
ATOM     10  C6  OHT d   1     -19.525  57.820  -9.212  0.00  0.00    -0.070 A 
ATOM     11  H14 OHT d   1     -20.947  58.225  -7.627  0.00  0.00     0.087 H 
ATOM     12  H15 OHT d   1     -19.178  56.900  -8.756  0.00  0.00     0.085 H 
BRANCH   7  13
ATOM     13  O4  OHT d   1     -21.950  60.533  -8.568  0.00  0.00    -0.361 OA
ATOM     14  H13 OHT d   1     -21.605  61.398  -8.379  0.00  0.00     0.217 HD
ENDBRANCH   7  13
ENDBRANCH   2   3
BRANCH   2  15
ATOM     15  C17 OHT d   1     -16.658  58.241 -11.407  0.00  0.00    -0.024 A 
ATOM     16  C18 OHT d   1     -16.190  58.463 -12.722  0.00  0.00    -0.070 A 
ATOM     17  C19 OHT d   1     -15.089  59.256 -12.992  0.00  0.00    -0.050 A 
ATOM     18  H16 OHT d   1     -16.712  57.995 -13.549  0.00  0.00     0.085 H 
ATOM     19  C20 OHT d   1     -14.399  59.872 -11.933  0.00  0.00     0.068 A 
ATOM     20  H17 OHT d   1     -14.760  59.402 -14.015  0.00  0.00     0.087 H 
ATOM     21  C21 OHT d   1     -14.843  59.664 -10.596  0.00  0.00    -0.050 A 
ATOM     22  C22 OHT d   1     -15.939  58.867 -10.353  0.00  0.00    -0.070 A 
ATOM     23  H29 OHT d   1     -14.319  60.133  -9.771  0.00  0.00     0.087 H 
ATOM     24  H30 OHT d   1     -16.262  58.713  -9.330  0.00  0.00     0.085 H 
BRANCH  19  25
ATOM     25  O20 OHT d   1     -13.301  60.684 -12.138  0.00  0.00    -0.350 OA
BRANCH  25  26
ATOM     26  C23 OHT d   1     -12.621  61.325 -11.049  0.00  0.00     0.049 C 
ATOM     27  H18 OHT d   1     -12.506  60.624 -10.209  0.00  0.00     0.077 H 
ATOM     28  H19 OHT d   1     -13.187  62.207 -10.716  0.00  0.00     0.077 H 
BRANCH  26  29
ATOM     29  C24 OHT d   1     -11.272  61.741 -11.564  0.00  0.00     0.102 C 
ATOM     30  H20 OHT d   1     -10.905  60.961 -12.247  0.00  0.00     0.079 H 
ATOM     31  H21 OHT d   1     -10.586  61.832 -10.709  0.00  0.00     0.079 H 
BRANCH  29  32
ATOM     32  N24 OHT d   1     -11.286  62.985 -12.266  0.00  0.00    -0.077 N 
ATOM     33  H22 OHT d   1     -12.220  63.363 -12.242  0.00  0.00     0.279 HD
BRANCH  32  34
ATOM     34  C25 OHT d   1     -10.362  63.947 -11.652  0.00  0.00     0.066 C 
ATOM     35  H23 OHT d   1     -10.393  64.894 -12.211  0.00  0.00     0.068 H 
ATOM     36  H24 OHT d   1      -9.340  63.541 -11.676  0.00  0.00     0.068 H 
ATOM     37  H25 OHT d   1     -10.661  64.128 -10.609  0.00  0.00     0.068 H 
ENDBRANCH  32  34
BRANCH  32  38
ATOM     38  C26 OHT d   1     -10.883  62.768 -13.662  0.00  0.00     0.066 C 
ATOM     39  H26 OHT d   1     -11.568  62.048 -14.134  0.00  0.00     0.068 H 
ATOM     40  H27 OHT d   1      -9.858  62.371 -13.690  0.00  0.00     0.068 H 
ATOM     41  H28 OHT d   1     -10.921  63.722 -14.207  0.00  0.00     0.068 H 
ENDBRANCH  32  38
ENDBRANCH  29  32
ENDBRANCH  26  29
ENDBRANCH  25  26
ENDBRANCH  19  25
ENDBRANCH   2  15
BRANCH   1  42
ATOM     42  C9  OHT d   1     -19.229  55.259 -11.308  0.00  0.00    -0.043 C 
ATOM     43  H4  OHT d   1     -20.071  55.965 -11.257  0.00  0.00     0.039 H 
ATOM     44  H5  OHT d   1     -19.338  54.621 -12.197  0.00  0.00     0.039 H 
BRANCH  42  45
ATOM     45  C10 OHT d   1     -19.258  54.385 -10.082  0.00  0.00    -0.073 C 
ATOM     46  H1  OHT d   1     -20.212  53.838 -10.044  0.00  0.00     0.028 H 
ATOM     47  H2  OHT d   1     -19.158  55.011  -9.183  0.00  0.00     0.028 H 
ATOM     48  H3  OHT d   1     -18.425  53.667 -10.123  0.00  0.00     0.028 H 
ENDBRANCH  42  45
ENDBRANCH   1  42
BRANCH   1  49
ATOM     49  C11 OHT d   1     -16.807  55.199 -11.948  0.00  0.00    -0.029 A 
ATOM     50  C16 OHT d   1     -15.797  54.700 -11.056  0.00  0.00    -0.072 A 
ATOM     51  C15 OHT d   1     -14.738  53.897 -11.538  0.00  0.00    -0.082 A 
ATOM     52  H6  OHT d   1     -15.848  54.942 -10.001  0.00  0.00     0.084 H 
ATOM     53  C14 OHT d   1     -14.649  53.570 -12.894  0.00  0.00    -0.083 A 
ATOM     54  H7  OHT d   1     -13.986  53.531 -10.848  0.00  0.00     0.083 H 
ATOM     55  C13 OHT d   1     -15.618  54.042 -13.780  0.00  0.00    -0.082 A 
ATOM     56  H8  OHT d   1     -13.833  52.954 -13.255  0.00  0.00     0.083 H 
ATOM     57  C12 OHT d   1     -16.687  54.850 -13.309  0.00  0.00    -0.072 A 
ATOM     58  H9  OHT d   1     -15.555  53.791 -14.833  0.00  0.00     0.083 H 
ATOM     59  H10 OHT d   1     -17.429  55.207 -14.014  0.00  0.00     0.084 H 
ENDBRANCH   1  49
TORSDOF 12
