REMARK  11 active torsions:
REMARK  status: ('A' for Active; 'I' for Inactive)
REMARK    1  A    between atoms: O3B_8  and  PG_1 
REMARK    2  A    between atoms: PB_5  and  O3B_8 
REMARK    3  A    between atoms: O3A_12  and  PB_5 
REMARK    4  A    between atoms: PA_9  and  O3A_12 
REMARK    5  A    between atoms: PA_9  and  O5_13 
REMARK    6  A    between atoms: O5_13  and  C5_14 
REMARK    7  A    between atoms: C5_14  and  C4_15 
REMARK    8  A    between atoms: C3_17  and  O3_18 
REMARK    9  A    between atoms: C2_19  and  O2_20 
REMARK   10  A    between atoms: C1_21  and  N9_22 
REMARK   11  A    between atoms: C6_26  and  N6_27 
ROOT
ATOM      1  C4  ATP d   1       6.144   3.776  24.491  0.00  0.00     0.089 C 
ATOM      2  O4  ATP d   1       6.398   4.933  25.327  0.00  0.00    -0.353 OA
ATOM      3  C3  ATP d   1       4.649   3.763  24.300  0.00  0.00     0.091 C 
ATOM      4  C2  ATP d   1       4.116   4.794  25.271  0.00  0.00     0.105 C 
ATOM      5  C1  ATP d   1       5.298   5.075  26.216  0.00  0.00     0.139 C 
ATOM      6  H3  ATP d   1       6.471   2.845  24.977  0.00  0.00     0.090 H 
ATOM      7  H4  ATP d   1       4.389   4.055  23.272  0.00  0.00     0.091 H 
ATOM      8  H6  ATP d   1       3.810   5.700  24.727  0.00  0.00     0.093 H 
ATOM      9  H8  ATP d   1       5.339   4.343  27.036  0.00  0.00     0.122 H 
ENDROOT
BRANCH   1  10
ATOM     10  C5  ATP d   1       6.916   3.986  23.233  0.00  0.00     0.058 C 
ATOM     11  H1  ATP d   1       6.663   3.196  22.511  0.00  0.00     0.079 H 
ATOM     12  H2  ATP d   1       6.662   4.967  22.806  0.00  0.00     0.079 H 
BRANCH  10  13
ATOM     13  O5  ATP d   1       8.325   3.939  23.521  0.00  0.00    -0.287 OA
BRANCH  13  14
ATOM     14  PA  ATP d   1       9.324   3.638  22.494  0.00  0.00     0.417 P 
ATOM     15  O1A ATP d   1      10.637   3.652  23.150  0.00  0.00    -0.624 OA
ATOM     16  O2A ATP d   1       9.117   4.486  21.339  0.00  0.00    -0.624 OA
BRANCH  14  17
ATOM     17  O3A ATP d   1       8.918   2.159  22.205  0.00  0.00    -0.180 OA
BRANCH  17  18
ATOM     18  PB  ATP d   1       9.394   0.897  21.210  0.00  0.00     0.428 P 
ATOM     19  O1B ATP d   1      10.833   0.780  21.373  0.00  0.00    -0.624 OA
ATOM     20  O2B ATP d   1       8.857   0.983  19.893  0.00  0.00    -0.624 OA
BRANCH  18  21
ATOM     21  O3B ATP d   1       8.719  -0.317  21.983  0.00  0.00    -0.173 OA
BRANCH  21  22
ATOM     22  PG  ATP d   1       8.829  -0.740  23.519  0.00  0.00     0.431 P 
ATOM     23  O1G ATP d   1      10.284  -0.601  23.823  0.00  0.00    -0.616 OA
ATOM     24  O2G ATP d   1       8.337  -2.130  23.444  0.00  0.00    -0.616 OA
ATOM     25  O3G ATP d   1       7.970   0.225  24.274  0.00  0.00    -0.616 OA
ENDBRANCH  21  22
ENDBRANCH  18  21
ENDBRANCH  17  18
ENDBRANCH  14  17
ENDBRANCH  13  14
ENDBRANCH  10  13
ENDBRANCH   1  10
BRANCH   3  26
ATOM     26  O3  ATP d   1       4.156   2.435  24.544  0.00  0.00    -0.390 OA
ATOM     27  H5  ATP d   1       3.214   2.421  24.425  0.00  0.00     0.210 HD
ENDBRANCH   3  26
BRANCH   5  28
ATOM     28  N9  ATP d   1       5.258   6.456  26.780  0.00  0.00    -0.294 N 
ATOM     29  C8  ATP d   1       5.037   7.649  26.128  0.00  0.00     0.071 A 
ATOM     30  N7  ATP d   1       5.047   8.700  26.880  0.00  0.00    -0.236 NA
ATOM     31  H9  ATP d   1       4.866   7.703  25.054  0.00  0.00     0.144 H 
ATOM     32  C5  ATP d   1       5.297   8.172  28.132  0.00  0.00     0.149 A 
ATOM     33  C6  ATP d   1       5.431   8.770  29.417  0.00  0.00     0.155 A 
ATOM     34  C4  ATP d   1       5.431   6.797  28.088  0.00  0.00     0.167 A 
ATOM     35  N1  ATP d   1       5.681   7.969  30.491  0.00  0.00    -0.222 NA
ATOM     36  C2  ATP d   1       5.794   6.644  30.318  0.00  0.00     0.091 A 
ATOM     37  N3  ATP d   1       5.684   5.951  29.163  0.00  0.00    -0.222 NA
ATOM     38  H12 ATP d   1       5.997   6.061  31.209  0.00  0.00     0.146 H 
BRANCH  33  39
ATOM     39  N6  ATP d   1       5.313  10.086  29.570  0.00  0.00    -0.382 N 
ATOM     40  H10 ATP d   1       5.412  10.507  30.505  0.00  0.00     0.157 HD
ATOM     41  H11 ATP d   1       5.123  10.684  28.753  0.00  0.00     0.157 HD
ENDBRANCH  33  39
ENDBRANCH   5  28
BRANCH   4  42
ATOM     42  O2  ATP d   1       3.038   4.338  26.078  0.00  0.00    -0.388 OA
ATOM     43  H7  ATP d   1       2.313   4.081  25.520  0.00  0.00     0.210 HD
ENDBRANCH   4  42
TORSDOF 11
