REMARK  11 active torsions:
REMARK  status: ('A' for Active; 'I' for Inactive)
REMARK    1  A    between atoms: O3B_8  and  PG_1 
REMARK    2  A    between atoms: PB_5  and  O3B_8 
REMARK    3  A    between atoms: O3A_12  and  PB_5 
REMARK    4  A    between atoms: PA_9  and  O3A_12 
REMARK    5  A    between atoms: PA_9  and  O5_13 
REMARK    6  A    between atoms: O5_13  and  C5_14 
REMARK    7  A    between atoms: C5_14  and  C4_15 
REMARK    8  A    between atoms: C3_17  and  O3_18 
REMARK    9  A    between atoms: C2_19  and  O2_20 
REMARK   10  A    between atoms: C1_21  and  N9_22 
REMARK   11  A    between atoms: C6_26  and  N6_27 
ROOT
ATOM      1  C4  ATP d   1       8.546   3.937   0.905  0.00  0.00     0.089 C 
ATOM      2  O4  ATP d   1       8.346   5.136   0.128  0.00  0.00    -0.353 OA
ATOM      3  C3  ATP d   1      10.037   3.837   1.096  0.00  0.00     0.091 C 
ATOM      4  C2  ATP d   1      10.610   4.849   0.120  0.00  0.00     0.105 C 
ATOM      5  C1  ATP d   1       9.417   5.224  -0.790  0.00  0.00     0.139 C 
ATOM      6  H3  ATP d   1       8.184   3.049   0.367  0.00  0.00     0.090 H 
ATOM      7  H4  ATP d   1      10.317   4.104   2.126  0.00  0.00     0.091 H 
ATOM      8  H6  ATP d   1      10.999   5.723   0.662  0.00  0.00     0.093 H 
ATOM      9  H8  ATP d   1       9.311   4.507  -1.618  0.00  0.00     0.122 H 
ENDROOT
BRANCH   1  10
ATOM     10  C5  ATP d   1       7.758   4.105   2.167  0.00  0.00     0.058 C 
ATOM     11  H1  ATP d   1       7.908   3.230   2.816  0.00  0.00     0.079 H 
ATOM     12  H2  ATP d   1       8.090   5.012   2.693  0.00  0.00     0.079 H 
BRANCH  10  13
ATOM     13  O5  ATP d   1       6.369   4.224   1.830  0.00  0.00    -0.287 OA
BRANCH  13  14
ATOM     14  PA  ATP d   1       5.232   3.447   2.572  0.00  0.00     0.417 P 
ATOM     15  O1A ATP d   1       5.437   2.014   2.328  0.00  0.00    -0.624 OA
ATOM     16  O2A ATP d   1       3.918   4.050   2.216  0.00  0.00    -0.624 OA
BRANCH  14  17
ATOM     17  O3A ATP d   1       5.643   3.744   4.082  0.00  0.00    -0.180 OA
BRANCH  17  18
ATOM     18  PB  ATP d   1       5.613   4.956   5.064  0.00  0.00     0.428 P 
ATOM     19  O1B ATP d   1       6.801   5.798   4.704  0.00  0.00    -0.624 OA
ATOM     20  O2B ATP d   1       4.295   5.610   5.144  0.00  0.00    -0.624 OA
BRANCH  18  21
ATOM     21  O3B ATP d   1       5.942   4.206   6.496  0.00  0.00    -0.173 OA
BRANCH  21  22
ATOM     22  PG  ATP d   1       7.283   4.183   7.401  0.00  0.00     0.431 P 
ATOM     23  O1G ATP d   1       8.339   4.684   6.498  0.00  0.00    -0.616 OA
ATOM     24  O2G ATP d   1       7.364   2.746   7.712  0.00  0.00    -0.616 OA
ATOM     25  O3G ATP d   1       7.021   5.098   8.566  0.00  0.00    -0.616 OA
ENDBRANCH  21  22
ENDBRANCH  18  21
ENDBRANCH  17  18
ENDBRANCH  14  17
ENDBRANCH  13  14
ENDBRANCH  10  13
ENDBRANCH   1  10
BRANCH   3  26
ATOM     26  O3  ATP d   1      10.468   2.494   0.826  0.00  0.00    -0.390 OA
ATOM     27  H5  ATP d   1      11.408   2.434   0.947  0.00  0.00     0.210 HD
ENDBRANCH   3  26
BRANCH   5  28
ATOM     28  N9  ATP d   1       9.483   6.613  -1.341  0.00  0.00    -0.294 N 
ATOM     29  C8  ATP d   1       9.688   7.804  -0.682  0.00  0.00     0.071 A 
ATOM     30  N7  ATP d   1       9.697   8.862  -1.442  0.00  0.00    -0.236 NA
ATOM     31  H9  ATP d   1       9.832   7.858   0.396  0.00  0.00     0.144 H 
ATOM     32  C5  ATP d   1       9.483   8.327  -2.706  0.00  0.00     0.149 A 
ATOM     33  C6  ATP d   1       9.377   8.915  -3.999  0.00  0.00     0.155 A 
ATOM     34  C4  ATP d   1       9.344   6.953  -2.658  0.00  0.00     0.167 A 
ATOM     35  N1  ATP d   1       9.155   8.110  -5.075  0.00  0.00    -0.222 NA
ATOM     36  C2  ATP d   1       9.040   6.787  -4.898  0.00  0.00     0.091 A 
ATOM     37  N3  ATP d   1       9.120   6.101  -3.733  0.00  0.00    -0.222 NA
ATOM     38  H12 ATP d   1       8.862   6.198  -5.790  0.00  0.00     0.146 H 
BRANCH  33  39
ATOM     39  N6  ATP d   1       9.493  10.225  -4.167  0.00  0.00    -0.382 N 
ATOM     40  H10 ATP d   1       9.414  10.632  -5.110  0.00  0.00     0.157 HD
ATOM     41  H11 ATP d   1       9.663  10.835  -3.355  0.00  0.00     0.157 HD
ENDBRANCH  33  39
ENDBRANCH   5  28
BRANCH   4  42
ATOM     42  O2  ATP d   1      11.616   4.322  -0.724  0.00  0.00    -0.388 OA
ATOM     43  H7  ATP d   1      12.336   4.001  -0.194  0.00  0.00     0.210 HD
ENDBRANCH   4  42
TORSDOF 11
