REMARK  3 active torsions:
REMARK  status: ('A' for Active; 'I' for Inactive)
REMARK    1  A    between atoms: C1_1  and  C2_2 
REMARK    2  A    between atoms: C6_6  and  C8_8 
REMARK    3  A    between atoms: C13_12  and  C14_13 
ROOT
ATOM      1  C8  460 d   1      14.639  66.615   6.095  0.00  0.00     0.119 A 
ATOM      2  N9  460 d   1      14.419  66.546   7.436  0.00  0.00    -0.172 NA
ATOM      3  N10 460 d   1      15.184  67.517   7.972  0.00  0.00    -0.288 N 
ATOM      4  C12 460 d   1      15.896  68.218   7.037  0.00  0.00     0.010 A 
ATOM      5  C13 460 d   1      15.582  67.678   5.796  0.00  0.00     0.042 A 
ATOM      6  H7  460 d   1      15.228  67.712   8.982  0.00  0.00     0.188 HD
ATOM      7  H8  460 d   1      16.580  69.043   7.229  0.00  0.00     0.115 H 
ENDROOT
BRANCH   5   8
ATOM      8  C14 460 d   1      16.165  68.185   4.540  0.00  0.00     0.071 A 
ATOM      9  C15 460 d   1      15.393  68.392   3.368  0.00  0.00    -0.052 A 
ATOM     10  C16 460 d   1      16.042  68.887   2.208  0.00  0.00    -0.051 A 
ATOM     11  H9  460 d   1      14.331  68.177   3.359  0.00  0.00     0.087 H 
ATOM     12  C17 460 d   1      17.417  69.172   2.204  0.00  0.00     0.085 A 
ATOM     13  H10 460 d   1      15.464  69.049   1.305  0.00  0.00     0.087 H 
ATOM     14  N18 460 d   1      18.032  69.655   1.071  0.00  0.00    -0.259 NA
ATOM     15  C22 460 d   1      18.118  68.931   3.444  0.00  0.00     0.086 A 
ATOM     16  C19 460 d   1      19.392  69.915   1.136  0.00  0.00     0.003 A 
ATOM     17  C20 460 d   1      20.162  69.710   2.295  0.00  0.00    -0.064 A 
ATOM     18  H11 460 d   1      19.887  70.295   0.249  0.00  0.00     0.114 H 
ATOM     19  C21 460 d   1      19.498  69.212   3.451  0.00  0.00    -0.051 A 
ATOM     20  H12 460 d   1      21.225  69.924   2.307  0.00  0.00     0.085 H 
ATOM     21  H13 460 d   1      20.068  69.045   4.358  0.00  0.00     0.087 H 
ATOM     22  N23 460 d   1      17.511  68.451   4.576  0.00  0.00    -0.246 NA
ENDBRANCH   5   8
BRANCH   1  23
ATOM     23  C6  460 d   1      13.944  65.680   5.186  0.00  0.00     0.088 A 
ATOM     24  C5  460 d   1      14.602  65.026   4.107  0.00  0.00    -0.053 A 
ATOM     25  C4  460 d   1      13.840  64.145   3.293  0.00  0.00    -0.079 A 
ATOM     26  H6  460 d   1      15.655  65.195   3.912  0.00  0.00     0.087 H 
ATOM     27  C3  460 d   1      12.463  63.931   3.564  0.00  0.00    -0.059 A 
ATOM     28  H5  460 d   1      14.312  63.634   2.462  0.00  0.00     0.083 H 
ATOM     29  C2  460 d   1      11.883  64.615   4.653  0.00  0.00     0.031 A 
ATOM     30  H4  460 d   1      11.873  63.260   2.950  0.00  0.00     0.086 H 
ATOM     31  N7  460 d   1      12.602  65.475   5.450  0.00  0.00    -0.252 NA
BRANCH  29  32
ATOM     32  C1  460 d   1      10.435  64.424   4.982  0.00  0.00    -0.035 C 
ATOM     33  H1  460 d   1       9.987  63.716   4.269  0.00  0.00     0.035 H 
ATOM     34  H2  460 d   1       9.913  65.390   4.916  0.00  0.00     0.035 H 
ATOM     35  H3  460 d   1      10.340  64.025   6.003  0.00  0.00     0.035 H 
ENDBRANCH  29  32
ENDBRANCH   1  23
TORSDOF 3
