REMARK  8 active torsions:
REMARK  status: ('A' for Active; 'I' for Inactive)
REMARK    1  A    between atoms: O3_14  and  P1_1 
REMARK    2  A    between atoms: O5_9  and  P2_5 
REMARK    3  A    between atoms: C5_10  and  O5_9 
REMARK    4  A    between atoms: C4_11  and  C5_10 
REMARK    5  A    between atoms: C3_13  and  O3_14 
REMARK    6  A    between atoms: C2_15  and  O2_16 
REMARK    7  A    between atoms: C1_17  and  N9_18 
REMARK    8  A    between atoms: C6_22  and  N6_23 
ROOT
ATOM      1  C4  A3P d   1      20.457  88.402  26.514  0.00  0.00     0.090 C 
ATOM      2  O4  A3P d   1      20.464  89.818  26.763  0.00  0.00    -0.353 OA
ATOM      3  C3  A3P d   1      19.521  87.850  27.576  0.00  0.00     0.107 C 
ATOM      4  C2  A3P d   1      19.773  88.774  28.772  0.00  0.00     0.106 C 
ATOM      5  C1  A3P d   1      20.472  89.997  28.151  0.00  0.00     0.140 C 
ATOM      6  H3  A3P d   1      21.462  87.983  26.671  0.00  0.00     0.090 H 
ATOM      7  H4  A3P d   1      18.467  87.876  27.262  0.00  0.00     0.092 H 
ATOM      8  H5  A3P d   1      18.831  89.052  29.268  0.00  0.00     0.093 H 
ATOM      9  H7  A3P d   1      21.511  90.012  28.512  0.00  0.00     0.122 H 
ENDROOT
BRANCH   5  10
ATOM     10  N9  A3P d   1      19.877  91.301  28.457  0.00  0.00    -0.294 N 
ATOM     11  C8  A3P d   1      20.572  92.470  28.647  0.00  0.00     0.071 A 
ATOM     12  N7  A3P d   1      19.814  93.501  28.946  0.00  0.00    -0.236 NA
ATOM     13  H8  A3P d   1      21.655  92.537  28.558  0.00  0.00     0.144 H 
ATOM     14  C5  A3P d   1      18.537  92.975  28.951  0.00  0.00     0.149 A 
ATOM     15  C6  A3P d   1      17.299  93.553  29.231  0.00  0.00     0.155 A 
ATOM     16  C4  A3P d   1      18.555  91.626  28.636  0.00  0.00     0.167 A 
ATOM     17  N1  A3P d   1      16.191  92.781  29.099  0.00  0.00    -0.222 NA
ATOM     18  C2  A3P d   1      16.356  91.496  28.764  0.00  0.00     0.091 A 
ATOM     19  N3  A3P d   1      17.491  90.814  28.545  0.00  0.00    -0.222 NA
ATOM     20  H11 A3P d   1      15.442  90.924  28.654  0.00  0.00     0.146 H 
BRANCH  15  21
ATOM     21  N6  A3P d   1      17.169  94.813  29.647  0.00  0.00    -0.382 N 
ATOM     22  H9  A3P d   1      16.233  95.197  29.842  0.00  0.00     0.157 HD
ATOM     23  H10 A3P d   1      18.004  95.402  29.774  0.00  0.00     0.157 HD
ENDBRANCH  15  21
ENDBRANCH   5  10
BRANCH   4  24
ATOM     24  O2  A3P d   1      20.644  88.173  29.686  0.00  0.00    -0.388 OA
ATOM     25  H6  A3P d   1      20.262  87.362  29.999  0.00  0.00     0.210 HD
ENDBRANCH   4  24
BRANCH   1  26
ATOM     26  C5  A3P d   1      20.068  88.138  25.092  0.00  0.00     0.059 C 
ATOM     27  H1  A3P d   1      19.869  87.064  24.964  0.00  0.00     0.079 H 
ATOM     28  H2  A3P d   1      19.160  88.710  24.853  0.00  0.00     0.079 H 
BRANCH  26  29
ATOM     29  O5  A3P d   1      21.126  88.533  24.200  0.00  0.00    -0.280 OA
BRANCH  29  30
ATOM     30  P2  A3P d   1      20.818  88.669  22.597  0.00  0.00     0.422 P 
ATOM     31  O4P A3P d   1      22.135  89.137  21.997  0.00  0.00    -0.617 OA
ATOM     32  O5P A3P d   1      19.736  89.724  22.447  0.00  0.00    -0.617 OA
ATOM     33  O6P A3P d   1      20.350  87.301  22.114  0.00  0.00    -0.617 OA
ENDBRANCH  29  30
ENDBRANCH  26  29
ENDBRANCH   1  26
BRANCH   3  34
ATOM     34  O3  A3P d   1      19.930  86.522  27.841  0.00  0.00    -0.272 OA
BRANCH  34  35
ATOM     35  P1  A3P d   1      18.985  85.514  28.673  0.00  0.00     0.422 P 
ATOM     36  O1P A3P d   1      19.000  86.060  30.097  0.00  0.00    -0.617 OA
ATOM     37  O2P A3P d   1      19.697  84.174  28.608  0.00  0.00    -0.617 OA
ATOM     38  O3P A3P d   1      17.624  85.417  28.021  0.00  0.00    -0.617 OA
ENDBRANCH  34  35
ENDBRANCH   3  34
TORSDOF 8
