REMARK  3 active torsions:
REMARK  status: ('A' for Active; 'I' for Inactive)
REMARK    1  A    between atoms: C10_12  and  C9_11 
REMARK    2  A    between atoms: C12_14  and  N2_15 
REMARK    3  A    between atoms: C14_17  and  C15_18 
ROOT
ATOM      1  C1  HUP d   1       1.096  69.169  60.667  0.00  0.00     0.245 A 
ATOM      2  O1  HUP d   1       0.591  69.547  59.581  0.00  0.00    -0.268 OA
ATOM      3  N1  HUP d   1       2.430  68.847  60.736  0.00  0.00    -0.327 N 
ATOM      4  C2  HUP d   1       0.355  69.016  61.885  0.00  0.00    -0.017 A 
ATOM      5  C3  HUP d   1       0.971  68.614  63.025  0.00  0.00    -0.067 A 
ATOM      6  C4  HUP d   1       2.368  68.333  63.088  0.00  0.00     0.005 A 
ATOM      7  C5  HUP d   1       3.088  68.437  61.898  0.00  0.00     0.022 A 
ATOM      8  C6  HUP d   1       4.559  68.236  61.794  0.00  0.00    -0.016 C 
ATOM      9  C7  HUP d   1       5.125  67.577  63.086  0.00  0.00    -0.008 C 
ATOM     10  C8  HUP d   1       4.811  66.098  63.181  0.00  0.00    -0.093 C 
ATOM     11  C10 HUP d   1       5.072  69.351  64.850  0.00  0.00    -0.101 C 
ATOM     12  C11 HUP d   1       4.540  68.311  64.266  0.00  0.00    -0.036 C 
ATOM     13  C12 HUP d   1       3.081  67.971  64.435  0.00  0.00     0.179 C 
ATOM     14  C13 HUP d   1       2.941  66.485  64.741  0.00  0.00    -0.006 C 
ATOM     15  C14 HUP d   1       3.819  65.604  63.929  0.00  0.00    -0.084 C 
ATOM     16  H1  HUP d   1       2.968  68.911  59.895  0.00  0.00     0.169 HD
ATOM     17  H2  HUP d   1      -0.714  69.225  61.895  0.00  0.00     0.092 H 
ATOM     18  H3  HUP d   1       0.374  68.501  63.929  0.00  0.00     0.084 H 
ATOM     19  H4  HUP d   1       5.046  69.211  61.645  0.00  0.00     0.043 H 
ATOM     20  H5  HUP d   1       4.773  67.584  60.934  0.00  0.00     0.043 H 
ATOM     21  H6  HUP d   1       6.218  67.696  63.092  0.00  0.00     0.053 H 
ATOM     22  H7  HUP d   1       5.425  65.402  62.611  0.00  0.00     0.078 H 
ATOM     23  H11 HUP d   1       4.419  69.935  65.497  0.00  0.00     0.076 H 
ATOM     24  H15 HUP d   1       1.897  66.193  64.557  0.00  0.00     0.044 H 
ATOM     25  H16 HUP d   1       3.184  66.328  65.802  0.00  0.00     0.044 H 
ENDROOT
BRANCH  13  26
ATOM     26  N2  HUP d   1       2.461  68.705  65.557  0.00  0.00    -0.062 N 
ATOM     27  H12 HUP d   1       1.490  68.447  65.631  0.00  0.00     0.276 HD
ATOM     28  H13 HUP d   1       2.533  69.697  65.391  0.00  0.00     0.276 HD
ATOM     29  H14 HUP d   1       2.937  68.473  66.415  0.00  0.00     0.276 HD
ENDBRANCH  13  26
BRANCH  11  30
ATOM     30  C9  HUP d   1       6.478  69.819  64.722  0.00  0.00    -0.059 C 
ATOM     31  H8  HUP d   1       6.621  70.721  65.335  0.00  0.00     0.032 H 
ATOM     32  H9  HUP d   1       6.692  70.054  63.669  0.00  0.00     0.032 H 
ATOM     33  H10 HUP d   1       7.160  69.029  65.067  0.00  0.00     0.032 H 
ENDBRANCH  11  30
BRANCH  15  34
ATOM     34  C15 HUP d   1       3.555  64.125  64.106  0.00  0.00    -0.055 C 
ATOM     35  H17 HUP d   1       4.246  63.551  63.471  0.00  0.00     0.033 H 
ATOM     36  H18 HUP d   1       2.518  63.900  63.816  0.00  0.00     0.033 H 
ATOM     37  H19 HUP d   1       3.709  63.849  65.159  0.00  0.00     0.033 H 
ENDBRANCH  15  34
TORSDOF 3
