REMARK WARNING: 32 MAX_TORS EXCEEDED!!!
REMARK  46 active torsions:
REMARK  status: ('A' for Active; 'I' for Inactive)
REMARK    1  A    between atoms: N_1  and  CA_2 
REMARK    2  A    between atoms: CA_2  and  C_3 
REMARK    3  A    between atoms: CA_2  and  CB_5 
REMARK       I    between atoms: C_3  and  N_9 
REMARK    4  A    between atoms: CB_5  and  CG_6 
REMARK    5  A    between atoms: N_9  and  CA_10 
REMARK    6  A    between atoms: CA_10  and  C_11 
REMARK    7  A    between atoms: CA_10  and  CB_13 
REMARK       I    between atoms: C_11  and  N_20 
REMARK    8  A    between atoms: CB_13  and  CG_14 
REMARK    9  A    between atoms: N_20  and  CA_21 
REMARK   10  A    between atoms: CA_21  and  C_22 
REMARK   11  A    between atoms: CA_21  and  CB_24 
REMARK       I    between atoms: C_22  and  N_29 
REMARK   12  A    between atoms: CB_24  and  CG_25 
REMARK   13  A    between atoms: CG_25  and  CD_26 
REMARK   14  A    between atoms: N_29  and  CA_30 
REMARK   15  A    between atoms: CA_30  and  C_31 
REMARK   16  A    between atoms: CA_30  and  CB_33 
REMARK       I    between atoms: C_31  and  N_38 
REMARK   17  A    between atoms: CB_33  and  CG_34 
REMARK   18  A    between atoms: CG_34  and  CD_35 
REMARK   19  A    between atoms: N_38  and  CA_39 
REMARK   20  A    between atoms: CA_39  and  C_40 
REMARK   21  A    between atoms: CA_39  and  CB_42 
REMARK       I    between atoms: C_40  and  N_46 
REMARK   22  A    between atoms: CB_42  and  CG1_43 
REMARK   23  A    between atoms: CB_42  and  CG2_44 
REMARK   24  A    between atoms: CG1_43  and  CD1_45 
REMARK   25  A    between atoms: CA_47  and  C_48 
REMARK       I    between atoms: C_48  and  N_53 
REMARK   26  A    between atoms: N_53  and  CA_54 
REMARK   27  A    between atoms: CA_54  and  C_55 
REMARK   28  A    between atoms: CA_54  and  CB_57 
REMARK       I    between atoms: C_55  and  N_62 
REMARK   29  A    between atoms: CB_57  and  CG_58 
REMARK   30  A    between atoms: CG_58  and  CD_59 
REMARK   31  A    between atoms: N_62  and  CA_63 
REMARK   32  A    between atoms: CA_63  and  C_64 
REMARK   33  A    between atoms: CA_63  and  CB_66 
REMARK       I    between atoms: C_64  and  N_71 
REMARK   34  A    between atoms: CB_66  and  CG_67 
REMARK   35  A    between atoms: CG_67  and  CD_68 
REMARK   36  A    between atoms: N_71  and  CA_72 
REMARK   37  A    between atoms: CA_72  and  C_73 
REMARK   38  A    between atoms: CA_72  and  CB_75 
REMARK       I    between atoms: C_73  and  N_83 
REMARK   39  A    between atoms: CB_75  and  CG_76 
REMARK   40  A    between atoms: CZ_81  and  OH_82 
REMARK   41  A    between atoms: N_83  and  CA_84 
REMARK   42  A    between atoms: CA_84  and  C_85 
REMARK   43  A    between atoms: CA_84  and  CB_87 
REMARK   44  A    between atoms: CB_87  and  CG_88 
REMARK   45  A    between atoms: CG_88  and  CD1_89 
REMARK   46  A    between atoms: CG_88  and  CD2_90 
ROOT
ATOM      1  C   ILE d   1      10.979  -1.732  -4.678  0.00  0.00     0.243 C 
ATOM      2  O   ILE d   1      11.694  -2.517  -5.295  0.00  0.00    -0.271 OA
ATOM      3  N   PRO d   1      10.791  -0.486  -5.070  0.00  0.00    -0.337 N 
ATOM      4  CA  PRO d   1      11.402   0.090  -6.246  0.00  0.00     0.091 C 
ATOM      5  CB  PRO d   1      11.122   1.586  -6.118  0.00  0.00    -0.036 C 
ATOM      6  CG  PRO d   1       9.818   1.620  -5.378  0.00  0.00    -0.048 C 
ATOM      7  CD  PRO d   1       9.931   0.506  -4.359  0.00  0.00    -0.001 C 
ATOM      8  H39 PRO d   1      10.924  -0.311  -7.152  0.00  0.00     0.087 H 
ATOM      9  H40 PRO d   1      11.028   2.057  -7.107  0.00  0.00     0.036 H 
ATOM     10  H41 PRO d   1      11.915   2.090  -5.546  0.00  0.00     0.036 H 
ATOM     11  H42 PRO d   1       8.977   1.436  -6.063  0.00  0.00     0.035 H 
ATOM     12  H43 PRO d   1       9.679   2.591  -4.879  0.00  0.00     0.035 H 
ATOM     13  H44 PRO d   1      10.410   0.859  -3.434  0.00  0.00     0.064 H 
ATOM     14  H45 PRO d   1       8.944   0.081  -4.122  0.00  0.00     0.064 H 
ENDROOT
BRANCH   1  15
ATOM     15  CA  ILE d   1      10.281  -2.218  -3.412  0.00  0.00     0.092 C 
ATOM     16  H29 ILE d   1       9.308  -1.715  -3.309  0.00  0.00     0.088 H 
BRANCH  15  17
ATOM     17  N   ILE d   1      10.079  -3.650  -3.558  0.00  0.00    -0.346 N 
ATOM     18  C   GLU d   1       8.924  -4.210  -3.831  0.00  0.00     0.241 C 
ATOM     19  O   GLU d   1       7.879  -3.562  -3.944  0.00  0.00    -0.271 OA
ATOM     20  H28 ILE d   1      10.872  -4.248  -3.443  0.00  0.00     0.163 HD
BRANCH  18  21
ATOM     21  CA  GLU d   1       8.913  -5.717  -4.022  0.00  0.00     0.090 C 
ATOM     22  H23 GLU d   1       9.706  -6.163  -3.403  0.00  0.00     0.087 H 
BRANCH  21  23
ATOM     23  N   GLU d   1       7.621  -6.255  -3.608  0.00  0.00    -0.346 N 
ATOM     24  C   GLU d   1       7.228  -6.183  -2.349  0.00  0.00     0.241 C 
ATOM     25  O   GLU d   1       7.937  -5.755  -1.438  0.00  0.00    -0.271 OA
ATOM     26  H22 GLU d   1       7.025  -6.684  -4.287  0.00  0.00     0.163 HD
BRANCH  24  27
ATOM     27  CA  GLU d   1       5.879  -6.785  -2.007  0.00  0.00     0.090 C 
ATOM     28  H17 GLU d   1       5.628  -7.559  -2.748  0.00  0.00     0.087 H 
BRANCH  27  29
ATOM     29  N   GLU d   1       6.086  -7.391  -0.685  0.00  0.00    -0.346 N 
ATOM     30  C   PHE d   1       6.943  -8.410  -0.592  0.00  0.00     0.241 C 
ATOM     31  O   PHE d   1       7.437  -9.020  -1.527  0.00  0.00    -0.271 OA
ATOM     32  H16 GLU d   1       5.600  -7.051   0.120  0.00  0.00     0.163 HD
BRANCH  30  33
ATOM     33  CA  PHE d   1       7.080  -8.886   0.863  0.00  0.00     0.093 C 
ATOM     34  H8  PHE d   1       6.558  -8.151   1.493  0.00  0.00     0.088 H 
BRANCH  33  35
ATOM     35  N   PHE d   1       6.328 -10.064   0.980  0.00  0.00    -0.346 N 
ATOM     36  C   ASP d   1       6.489 -11.348   0.992  0.00  0.00     0.249 C 
ATOM     37  O   ASP d   1       7.633 -11.802   0.964  0.00  0.00    -0.271 OA
ATOM     38  H7  PHE d   1       5.359  -9.841   1.089  0.00  0.00     0.163 HD
BRANCH  36  39
ATOM     39  CA  ASP d   1       5.193 -12.146   1.091  0.00  0.00     0.185 C 
ATOM     40  H4  ASP d   1       5.002 -12.607   0.111  0.00  0.00     0.100 H 
BRANCH  39  41
ATOM     41  N   ASP d   1       5.357 -13.239   2.096  0.00  0.00    -0.066 N 
ATOM     42  H1  ASP d   1       4.500 -13.767   2.162  0.00  0.00     0.275 HD
ATOM     43  H2  ASP d   1       5.575 -12.839   2.995  0.00  0.00     0.275 HD
ATOM     44  H3  ASP d   1       6.106 -13.849   1.810  0.00  0.00     0.275 HD
ENDBRANCH  39  41
BRANCH  39  45
ATOM     45  CB  ASP d   1       3.999 -11.260   1.425  0.00  0.00     0.050 C 
ATOM     46  H5  ASP d   1       4.197 -10.801   2.405  0.00  0.00     0.052 H 
ATOM     47  H6  ASP d   1       3.118 -11.914   1.498  0.00  0.00     0.052 H 
BRANCH  45  48
ATOM     48  CG  ASP d   1       3.649 -10.142   0.469  0.00  0.00     0.175 C 
ATOM     49  OD1 ASP d   1       4.264 -10.065  -0.619  0.00  0.00    -0.648 OA
ATOM     50  OD2 ASP d   1       2.778  -9.311   0.802  0.00  0.00    -0.648 OA
ENDBRANCH  45  48
ENDBRANCH  39  45
ENDBRANCH  36  39
ENDBRANCH  33  35
BRANCH  33  51
ATOM     51  CB  PHE d   1       8.525  -8.821   1.332  0.00  0.00    -0.014 C 
ATOM     52  H9  PHE d   1       8.986  -7.886   0.980  0.00  0.00     0.043 H 
ATOM     53  H10 PHE d   1       9.083  -9.679   0.929  0.00  0.00     0.043 H 
BRANCH  51  54
ATOM     54  CG  PHE d   1       8.554  -8.862   2.840  0.00  0.00    -0.056 A 
ATOM     55  CD1 PHE d   1       8.104  -7.785   3.590  0.00  0.00    -0.077 A 
ATOM     56  CE1 PHE d   1       8.120  -7.845   4.967  0.00  0.00    -0.082 A 
ATOM     57  H11 PHE d   1       7.739  -6.894   3.092  0.00  0.00     0.084 H 
ATOM     58  CZ  PHE d   1       8.556  -8.986   5.605  0.00  0.00    -0.083 A 
ATOM     59  H13 PHE d   1       7.789  -6.993   5.549  0.00  0.00     0.083 H 
ATOM     60  CE2 PHE d   1       9.003 -10.067   4.866  0.00  0.00    -0.082 A 
ATOM     61  H15 PHE d   1       8.549  -9.037   6.688  0.00  0.00     0.083 H 
ATOM     62  CD2 PHE d   1       9.001 -10.003   3.476  0.00  0.00    -0.077 A 
ATOM     63  H14 PHE d   1       9.354 -10.961   5.369  0.00  0.00     0.083 H 
ATOM     64  H12 PHE d   1       9.350 -10.848   2.893  0.00  0.00     0.084 H 
ENDBRANCH  51  54
ENDBRANCH  33  51
ENDBRANCH  30  33
ENDBRANCH  27  29
BRANCH  27  65
ATOM     65  CB  GLU d   1       4.735  -5.803  -1.948  0.00  0.00    -0.029 C 
ATOM     66  H18 GLU d   1       4.786  -5.285  -0.979  0.00  0.00     0.037 H 
ATOM     67  H19 GLU d   1       3.797  -6.375  -2.009  0.00  0.00     0.037 H 
BRANCH  65  68
ATOM     68  CG  GLU d   1       4.705  -4.754  -3.029  0.00  0.00     0.018 C 
ATOM     69  H20 GLU d   1       4.695  -5.253  -4.010  0.00  0.00     0.049 H 
ATOM     70  H21 GLU d   1       5.606  -4.129  -2.944  0.00  0.00     0.049 H 
BRANCH  68  71
ATOM     71  CD  GLU d   1       3.479  -3.867  -2.916  0.00  0.00     0.172 C 
ATOM     72  OE1 GLU d   1       2.839  -3.850  -1.843  0.00  0.00    -0.648 OA
ATOM     73  OE2 GLU d   1       3.202  -3.204  -3.941  0.00  0.00    -0.648 OA
ENDBRANCH  68  71
ENDBRANCH  65  68
ENDBRANCH  27  65
ENDBRANCH  24  27
ENDBRANCH  21  23
BRANCH  21  74
ATOM     74  CB  GLU d   1       9.169  -6.070  -5.496  0.00  0.00    -0.029 C 
ATOM     75  H24 GLU d   1       8.923  -5.195  -6.115  0.00  0.00     0.037 H 
ATOM     76  H25 GLU d   1       8.517  -6.911  -5.774  0.00  0.00     0.037 H 
BRANCH  74  77
ATOM     77  CG  GLU d   1      10.619  -6.466  -5.766  0.00  0.00     0.018 C 
ATOM     78  H26 GLU d   1      11.274  -5.661  -5.402  0.00  0.00     0.049 H 
ATOM     79  H27 GLU d   1      10.752  -6.583  -6.852  0.00  0.00     0.049 H 
BRANCH  77  80
ATOM     80  CD  GLU d   1      11.028  -7.761  -5.089  0.00  0.00     0.172 C 
ATOM     81  OE1 GLU d   1      10.136  -8.518  -4.647  0.00  0.00    -0.648 OA
ATOM     82  OE2 GLU d   1      12.229  -8.084  -4.960  0.00  0.00    -0.648 OA
ENDBRANCH  77  80
ENDBRANCH  74  77
ENDBRANCH  21  74
ENDBRANCH  18  21
ENDBRANCH  15  17
BRANCH  15  83
ATOM     83  CB  ILE d   1      11.136  -1.916  -2.166  0.00  0.00    -0.030 C 
ATOM     84  H30 ILE d   1      11.177  -0.824  -2.043  0.00  0.00     0.043 H 
BRANCH  83  85
ATOM     85  CG1 ILE d   1      12.570  -2.417  -2.292  0.00  0.00    -0.063 C 
ATOM     86  H31 ILE d   1      13.074  -1.825  -3.070  0.00  0.00     0.033 H 
ATOM     87  H32 ILE d   1      12.540  -3.473  -2.598  0.00  0.00     0.033 H 
BRANCH  85  88
ATOM     88  CD1 ILE d   1      13.381  -2.316  -1.020  0.00  0.00    -0.076 C 
ATOM     89  H36 ILE d   1      14.397  -2.697  -1.202  0.00  0.00     0.027 H 
ATOM     90  H37 ILE d   1      12.901  -2.913  -0.231  0.00  0.00     0.027 H 
ATOM     91  H38 ILE d   1      13.435  -1.264  -0.702  0.00  0.00     0.027 H 
ENDBRANCH  85  88
ENDBRANCH  83  85
BRANCH  83  92
ATOM     92  CG2 ILE d   1      10.459  -2.513  -0.929  0.00  0.00    -0.071 C 
ATOM     93  H33 ILE d   1       9.427  -2.138  -0.859  0.00  0.00     0.028 H 
ATOM     94  H34 ILE d   1      11.018  -2.220  -0.028  0.00  0.00     0.028 H 
ATOM     95  H35 ILE d   1      10.446  -3.610  -1.012  0.00  0.00     0.028 H 
ENDBRANCH  83  92
ENDBRANCH  15  83
ENDBRANCH   1  15
BRANCH   4  96
ATOM     96  C   PRO d   1      12.891  -0.183  -6.323  0.00  0.00     0.241 C 
ATOM     97  O   PRO d   1      13.576  -0.237  -5.304  0.00  0.00    -0.271 OA
ATOM     98  N   GLU d   1      13.396  -0.334  -7.554  0.00  0.00    -0.346 N 
ATOM     99  H46 GLU d   1      12.786  -0.207  -8.336  0.00  0.00     0.163 HD
BRANCH  98 100
ATOM    100  CA  GLU d   1      14.780  -0.671  -7.809  0.00  0.00     0.090 C 
ATOM    101  H47 GLU d   1      14.996  -1.575  -7.221  0.00  0.00     0.087 H 
BRANCH 100 102
ATOM    102  C   GLU d   1      15.834   0.373  -7.473  0.00  0.00     0.241 C 
ATOM    103  O   GLU d   1      16.923   0.054  -7.236  0.00  0.00    -0.271 OA
ATOM    104  N   GLU d   1      15.458   1.650  -7.567  0.00  0.00    -0.346 N 
ATOM    105  H52 GLU d   1      14.645   1.906  -8.089  0.00  0.00     0.163 HD
BRANCH 104 106
ATOM    106  CA  GLU d   1      16.266   2.672  -6.886  0.00  0.00     0.090 C 
ATOM    107  H53 GLU d   1      17.194   2.643  -7.476  0.00  0.00     0.087 H 
BRANCH 106 108
ATOM    108  C   GLU d   1      16.838   2.467  -5.507  0.00  0.00     0.241 C 
ATOM    109  O   GLU d   1      17.814   2.929  -5.149  0.00  0.00    -0.271 OA
ATOM    110  N   TYS d   1      16.043   1.605  -4.625  0.00  0.00    -0.346 N 
ATOM    111  H58 TYS d   1      15.192   1.173  -4.923  0.00  0.00     0.163 HD
BRANCH 110 112
ATOM    112  CA  TYS d   1      16.588   1.422  -3.272  0.00  0.00     0.093 C 
ATOM    113  H59 TYS d   1      17.130   2.332  -2.976  0.00  0.00     0.088 H 
BRANCH 112 114
ATOM    114  C   TYS d   1      17.556   0.237  -3.250  0.00  0.00     0.241 C 
ATOM    115  O   TYS d   1      18.301   0.041  -2.279  0.00  0.00    -0.271 OA
ATOM    116  N   LEU d   1      17.438  -0.485  -4.098  0.00  0.00    -0.345 N 
ATOM    117  H67 LEU d   1      16.485  -0.520  -4.398  0.00  0.00     0.163 HD
BRANCH 116 118
ATOM    118  CA  LEU d   1      18.261  -1.392  -4.899  0.00  0.00     0.096 C 
ATOM    119  H68 LEU d   1      18.058  -1.209  -5.965  0.00  0.00     0.089 H 
BRANCH 118 120
ATOM    120  C   LEU d   1      17.914  -2.843  -4.574  0.00  0.00     0.196 C 
ATOM    121  O   LEU d   1      16.733  -3.201  -4.448  0.00  0.00    -0.646 OA
ATOM    122  O1  LEU d   1      18.839  -3.687  -4.432  0.00  0.00    -0.646 OA
ENDBRANCH 118 120
BRANCH 118 123
ATOM    123  CB  LEU d   1      19.739  -1.130  -4.626  0.00  0.00    -0.034 C 
ATOM    124  H69 LEU d   1      20.316  -2.025  -4.900  0.00  0.00     0.037 H 
ATOM    125  H70 LEU d   1      19.872  -0.922  -3.554  0.00  0.00     0.037 H 
BRANCH 123 126
ATOM    126  CG  LEU d   1      20.261   0.059  -5.428  0.00  0.00    -0.059 C 
ATOM    127  H71 LEU d   1      19.392   0.675  -5.700  0.00  0.00     0.038 H 
BRANCH 126 128
ATOM    128  CD1 LEU d   1      21.247   0.926  -4.648  0.00  0.00    -0.073 C 
ATOM    129  H72 LEU d   1      21.582   1.761  -5.281  0.00  0.00     0.028 H 
ATOM    130  H73 LEU d   1      22.115   0.319  -4.352  0.00  0.00     0.028 H 
ATOM    131  H74 LEU d   1      20.754   1.323  -3.749  0.00  0.00     0.028 H 
ENDBRANCH 126 128
BRANCH 126 132
ATOM    132  CD2 LEU d   1      20.986  -0.357  -6.709  0.00  0.00    -0.073 C 
ATOM    133  H75 LEU d   1      20.322  -0.988  -7.318  0.00  0.00     0.028 H 
ATOM    134  H76 LEU d   1      21.893  -0.922  -6.450  0.00  0.00     0.028 H 
ATOM    135  H77 LEU d   1      21.264   0.540  -7.281  0.00  0.00     0.028 H 
ENDBRANCH 126 132
ENDBRANCH 123 126
ENDBRANCH 118 123
ENDBRANCH 116 118
ENDBRANCH 112 114
BRANCH 112 136
ATOM    136  CB  TYS d   1      15.399   1.173  -2.255  0.00  0.00    -0.014 C 
ATOM    137  H60 TYS d   1      15.777   1.004  -1.236  0.00  0.00     0.043 H 
ATOM    138  H61 TYS d   1      14.784   0.316  -2.565  0.00  0.00     0.043 H 
BRANCH 136 139
ATOM    139  CG  TYS d   1      14.609   2.481  -2.342  0.00  0.00    -0.056 A 
ATOM    140  CD1 TYS d   1      15.268   3.707  -2.184  0.00  0.00    -0.074 A 
ATOM    141  CE1 TYS d   1      14.548   4.905  -2.262  0.00  0.00    -0.051 A 
ATOM    142  H62 TYS d   1      16.336   3.728  -2.001  0.00  0.00     0.084 H 
ATOM    143  CZ  TYS d   1      13.168   4.878  -2.500  0.00  0.00     0.065 A 
ATOM    144  H64 TYS d   1      15.058   5.853  -2.138  0.00  0.00     0.087 H 
ATOM    145  CE2 TYS d   1      12.509   3.653  -2.658  0.00  0.00    -0.051 A 
ATOM    146  CD2 TYS d   1      13.229   2.455  -2.579  0.00  0.00    -0.074 A 
ATOM    147  H65 TYS d   1      11.441   3.632  -2.842  0.00  0.00     0.087 H 
ATOM    148  H63 TYS d   1      12.718   1.507  -2.701  0.00  0.00     0.084 H 
BRANCH 143 149
ATOM    149  OH  TYS d   1      12.469   6.042  -2.576  0.00  0.00    -0.361 OA
ATOM    150  H66 TYS d   1      11.800   6.053  -1.902  0.00  0.00     0.217 HD
ENDBRANCH 143 149
ENDBRANCH 136 139
ENDBRANCH 112 136
ENDBRANCH 110 112
ENDBRANCH 106 108
BRANCH 106 151
ATOM    151  CB  GLU d   1      15.703   4.056  -7.234  0.00  0.00    -0.029 C 
ATOM    152  H54 GLU d   1      14.662   3.928  -7.566  0.00  0.00     0.037 H 
ATOM    153  H55 GLU d   1      16.302   4.471  -8.058  0.00  0.00     0.037 H 
BRANCH 151 154
ATOM    154  CG  GLU d   1      15.714   5.060  -6.088  0.00  0.00     0.018 C 
ATOM    155  H56 GLU d   1      16.410   5.875  -6.337  0.00  0.00     0.049 H 
ATOM    156  H57 GLU d   1      16.056   4.552  -5.174  0.00  0.00     0.049 H 
BRANCH 154 157
ATOM    157  CD  GLU d   1      14.338   5.652  -5.834  0.00  0.00     0.172 C 
ATOM    158  OE1 GLU d   1      13.346   4.900  -6.006  0.00  0.00    -0.648 OA
ATOM    159  OE2 GLU d   1      14.236   6.840  -5.454  0.00  0.00    -0.648 OA
ENDBRANCH 154 157
ENDBRANCH 151 154
ENDBRANCH 106 151
ENDBRANCH 104 106
ENDBRANCH 100 102
BRANCH 100 160
ATOM    160  CB  GLU d   1      15.027  -0.960  -9.297  0.00  0.00    -0.029 C 
ATOM    161  H48 GLU d   1      15.561  -0.096  -9.719  0.00  0.00     0.037 H 
ATOM    162  H49 GLU d   1      14.045  -1.057  -9.783  0.00  0.00     0.037 H 
BRANCH 160 163
ATOM    163  CG  GLU d   1      15.825  -2.195  -9.633  0.00  0.00     0.018 C 
ATOM    164  H50 GLU d   1      15.972  -2.196 -10.723  0.00  0.00     0.049 H 
ATOM    165  H51 GLU d   1      15.212  -3.062  -9.345  0.00  0.00     0.049 H 
BRANCH 163 166
ATOM    166  CD  GLU d   1      17.182  -2.389  -9.007  0.00  0.00     0.172 C 
ATOM    167  OE1 GLU d   1      18.105  -1.594  -9.284  0.00  0.00    -0.648 OA
ATOM    168  OE2 GLU d   1      17.372  -3.351  -8.228  0.00  0.00    -0.648 OA
ENDBRANCH 163 166
ENDBRANCH 160 163
ENDBRANCH 100 160
ENDBRANCH  98 100
ENDBRANCH   4  96
TORSDOF 46
