REMARK  2 active torsions:
REMARK  status: ('A' for Active; 'I' for Inactive)
REMARK    1  A    between atoms: C4_4  and  C12_16 
REMARK    2  A    between atoms: N11_14  and  C14_18 
ROOT
ATOM      1  N1  NVP d   1       4.054 -36.931  22.221  0.00  0.00    -0.241 NA
ATOM      2  C2  NVP d   1       4.966 -36.238  22.939  0.00  0.00     0.005 A 
ATOM      3  C3  NVP d   1       4.624 -35.450  24.036  0.00  0.00    -0.058 A 
ATOM      4  C4  NVP d   1       3.305 -35.369  24.415  0.00  0.00    -0.030 A 
ATOM      5  C4A NVP d   1       2.346 -36.077  23.686  0.00  0.00     0.087 A 
ATOM      6  N5  NVP d   1       0.989 -36.028  24.103  0.00  0.00    -0.319 N 
ATOM      7  C6  NVP d   1      -0.145 -36.018  23.408  0.00  0.00     0.260 C 
ATOM      8  C6A NVP d   1      -0.119 -36.077  21.886  0.00  0.00     0.078 A 
ATOM      9  C7  NVP d   1      -1.123 -35.399  21.189  0.00  0.00    -0.063 A 
ATOM     10  C8  NVP d   1      -1.296 -35.630  19.869  0.00  0.00    -0.065 A 
ATOM     11  C9  NVP d   1      -0.467 -36.545  19.240  0.00  0.00     0.004 A 
ATOM     12  N10 NVP d   1       0.522 -37.212  19.874  0.00  0.00    -0.242 NA
ATOM     13  C10 NVP d   1       0.704 -36.979  21.180  0.00  0.00     0.147 A 
ATOM     14  N11 NVP d   1       1.767 -37.673  21.826  0.00  0.00    -0.309 N 
ATOM     15  C11 NVP d   1       2.754 -36.857  22.584  0.00  0.00     0.159 A 
ATOM     16  O13 NVP d   1      -1.240 -35.906  23.977  0.00  0.00    -0.267 OA
ATOM     17  H1  NVP d   1       6.009 -36.298  22.649  0.00  0.00     0.114 H 
ATOM     18  H2  NVP d   1       5.387 -34.908  24.583  0.00  0.00     0.086 H 
ATOM     19  H3  NVP d   1       0.864 -35.995  25.095  0.00  0.00     0.169 HD
ATOM     20  H4  NVP d   1      -1.760 -34.691  21.706  0.00  0.00     0.085 H 
ATOM     21  H5  NVP d   1      -2.068 -35.110  19.313  0.00  0.00     0.085 H 
ATOM     22  H6  NVP d   1      -0.620 -36.736  18.184  0.00  0.00     0.114 H 
ENDROOT
BRANCH  14  23
ATOM     23  C14 NVP d   1       2.344 -38.757  21.036  0.00  0.00     0.020 A 
ATOM     24  C16 NVP d   1       1.639 -40.061  21.088  0.00  0.00    -0.044 A 
ATOM     25  C15 NVP d   1       2.938 -39.890  21.801  0.00  0.00    -0.044 A 
ATOM     26  H13 NVP d   1       1.585 -40.693  20.189  0.00  0.00     0.036 H 
ATOM     27  H14 NVP d   1       0.706 -40.159  21.662  0.00  0.00     0.036 H 
ATOM     28  H11 NVP d   1       2.963 -39.859  22.900  0.00  0.00     0.036 H 
ATOM     29  H12 NVP d   1       3.842 -40.393  21.427  0.00  0.00     0.036 H 
ATOM     30  H10 NVP d   1       2.801 -38.383  20.108  0.00  0.00     0.073 H 
ENDBRANCH  14  23
BRANCH   4  31
ATOM     31  C12 NVP d   1       2.904 -34.509  25.601  0.00  0.00    -0.049 C 
ATOM     32  H7  NVP d   1       3.800 -34.040  26.034  0.00  0.00     0.033 H 
ATOM     33  H8  NVP d   1       2.416 -35.137  26.361  0.00  0.00     0.033 H 
ATOM     34  H9  NVP d   1       2.206 -33.727  25.268  0.00  0.00     0.033 H 
ENDBRANCH   4  31
TORSDOF 2
