REMARK  7 active torsions:
REMARK  status: ('A' for Active; 'I' for Inactive)
REMARK       I    between atoms: C_1  and  N_4 
REMARK    1  A    between atoms: C_1  and  CA_2 
REMARK    2  A    between atoms: CA_2  and  N'_13 
REMARK    3  A    between atoms: CA_2  and  C1_5 
REMARK    4  A    between atoms: N'_13  and  C1'_14 
REMARK    5  A    between atoms: C2'_15  and  C'_20 
REMARK    6  A    between atoms: C5'_18  and  CM5_23 
REMARK    7  A    between atoms: C'_20  and  CM'_22 
ROOT
ATOM      1  N'  AAP d   1       2.818 -37.639  22.290  0.00  0.00    -0.372 N 
ATOM      2  H7  AAP d   1       3.466 -38.133  21.660  0.00  0.00     0.161 HD
ENDROOT
BRANCH   1   3
ATOM      3  CA  AAP d   1       1.447 -38.090  22.284  0.00  0.00     0.116 C 
ATOM      4  H1  AAP d   1       1.046 -37.905  23.292  0.00  0.00     0.095 H 
BRANCH   3   5
ATOM      5  C   AAP d   1       1.394 -39.576  22.063  0.00  0.00     0.242 C 
ATOM      6  N   AAP d   1       2.411 -40.338  22.469  0.00  0.00    -0.368 N 
ATOM      7  H2  AAP d   1       3.204 -39.919  22.910  0.00  0.00     0.159 HD
ATOM      8  H3  AAP d   1       2.380 -41.328  22.332  0.00  0.00     0.159 HD
ATOM      9  O   AAP d   1       0.387 -40.032  21.512  0.00  0.00    -0.271 OA
ENDBRANCH   3   5
BRANCH   3  10
ATOM     10  C1  AAP d   1       0.547 -37.283  21.306  0.00  0.00     0.017 A 
ATOM     11  C6  AAP d   1      -0.475 -36.449  21.814  0.00  0.00     0.044 A 
ATOM     12  C5  AAP d   1      -1.282 -35.707  20.971  0.00  0.00    -0.061 A 
ATOM     13 CL6  AAP d   1      -0.752 -36.292  23.488  0.00  0.00    -0.084 Cl
ATOM     14  C4  AAP d   1      -1.076 -35.755  19.609  0.00  0.00    -0.080 A 
ATOM     15  H6  AAP d   1      -2.074 -35.090  21.380  0.00  0.00     0.086 H 
ATOM     16  C3  AAP d   1      -0.052 -36.578  19.082  0.00  0.00    -0.061 A 
ATOM     17  H5  AAP d   1      -1.696 -35.165  18.944  0.00  0.00     0.083 H 
ATOM     18  C2  AAP d   1       0.767 -37.332  19.934  0.00  0.00     0.044 A 
ATOM     19  H4  AAP d   1       0.100 -36.626  18.010  0.00  0.00     0.086 H 
ATOM     20 CL2  AAP d   1       2.102 -38.198  19.219  0.00  0.00    -0.084 Cl
ENDBRANCH   3  10
ENDBRANCH   1   3
BRANCH   1  21
ATOM     21  C1' AAP d   1       3.358 -36.616  23.049  0.00  0.00     0.043 A 
ATOM     22  C6' AAP d   1       2.595 -36.062  24.069  0.00  0.00    -0.051 A 
ATOM     23  C5' AAP d   1       3.116 -35.070  24.869  0.00  0.00    -0.060 A 
ATOM     24  H10 AAP d   1       1.583 -36.413  24.236  0.00  0.00     0.087 H 
ATOM     25  C4' AAP d   1       4.396 -34.628  24.644  0.00  0.00    -0.076 A 
ATOM     26  C3' AAP d   1       5.162 -35.166  23.630  0.00  0.00    -0.067 A 
ATOM     27  H9  AAP d   1       4.810 -33.846  25.271  0.00  0.00     0.084 H 
ATOM     28  C2' AAP d   1       4.666 -36.152  22.815  0.00  0.00     0.036 A 
ATOM     29  H8  AAP d   1       6.172 -34.804  23.475  0.00  0.00     0.085 H 
BRANCH  23  30
ATOM     30  CM5 AAP d   1       2.276 -34.431  25.985  0.00  0.00    -0.051 C 
ATOM     31  H14 AAP d   1       2.874 -33.666  26.502  0.00  0.00     0.033 H 
ATOM     32  H15 AAP d   1       1.972 -35.206  26.704  0.00  0.00     0.033 H 
ATOM     33  H16 AAP d   1       1.381 -33.964  25.549  0.00  0.00     0.033 H 
ENDBRANCH  23  30
BRANCH  28  34
ATOM     34  C'  AAP d   1       5.552 -36.666  21.655  0.00  0.00     0.158 C 
ATOM     35  O'  AAP d   1       5.161 -37.572  20.900  0.00  0.00    -0.293 OA
BRANCH  34  36
ATOM     36  CM' AAP d   1       6.913 -36.040  21.366  0.00  0.00    -0.017 C 
ATOM     37  H11 AAP d   1       7.375 -36.548  20.507  0.00  0.00     0.038 H 
ATOM     38  H12 AAP d   1       7.561 -36.148  22.248  0.00  0.00     0.038 H 
ATOM     39  H13 AAP d   1       6.784 -34.972  21.134  0.00  0.00     0.038 H 
ENDBRANCH  34  36
ENDBRANCH  28  34
ENDBRANCH   1  21
TORSDOF 7
