REMARK  14 active torsions:
REMARK  status: ('A' for Active; 'I' for Inactive)
REMARK    1  A    between atoms: C09_3  and  C46_1 
REMARK    2  A    between atoms: C15_8  and  C06_7 
REMARK    3  A    between atoms: C15_8  and  C16_9 
REMARK    4  A    between atoms: N24_15  and  C15_8 
REMARK    5  A    between atoms: N26_13  and  C41_14 
REMARK       I    between atoms: C22_21  and  N26_13 
REMARK    6  A    between atoms: C41_14  and  C44_32 
REMARK    7  A    between atoms: C17_16  and  N24_15 
REMARK    8  A    between atoms: C17_16  and  C18_17 
REMARK    9  A    between atoms: C17_16  and  C22_21 
REMARK   10  A    between atoms: C18_17  and  C19_18 
REMARK   11  A    between atoms: C19_18  and  C20_19 
REMARK   12  A    between atoms: C19_18  and  C21_20 
REMARK   13  A    between atoms: C50_25  and  S60_28 
REMARK   14  A    between atoms: S60_28  and  N63_29 
ROOT
ATOM      1  C15 NFT d   1      -1.018  24.238   4.640  0.00  0.00     0.220 C 
ATOM      2  H5  NFT d   1      -0.924  23.167   4.407  0.00  0.00     0.106 H 
ENDROOT
BRANCH   1   3
ATOM      3  C06 NFT d   1      -2.376  24.338   5.279  0.00  0.00    -0.019 A 
ATOM      4  C11 NFT d   1      -3.328  23.274   5.214  0.00  0.00    -0.074 A 
ATOM      5  C10 NFT d   1      -4.577  23.367   5.832  0.00  0.00    -0.072 A 
ATOM      6  H3  NFT d   1      -3.074  22.371   4.671  0.00  0.00     0.084 H 
ATOM      7  C09 NFT d   1      -4.935  24.568   6.552  0.00  0.00    -0.026 A 
ATOM      8  H2  NFT d   1      -5.276  22.541   5.772  0.00  0.00     0.084 H 
ATOM      9  C08 NFT d   1      -3.965  25.609   6.583  0.00  0.00    -0.072 A 
ATOM     10  C07 NFT d   1      -2.692  25.499   5.958  0.00  0.00    -0.074 A 
ATOM     11  H1  NFT d   1      -4.207  26.527   7.106  0.00  0.00     0.084 H 
ATOM     12  H4  NFT d   1      -1.980  26.314   6.014  0.00  0.00     0.084 H 
BRANCH   7  13
ATOM     13  C46 NFT d   1      -6.190  24.694   7.222  0.00  0.00    -0.026 A 
ATOM     14  C47 NFT d   1      -7.395  24.225   6.614  0.00  0.00    -0.071 A 
ATOM     15  C48 NFT d   1      -8.608  24.317   7.277  0.00  0.00    -0.059 A 
ATOM     16  H21 NFT d   1      -7.360  23.792   5.621  0.00  0.00     0.084 H 
ATOM     17  C50 NFT d   1      -8.654  24.874   8.569  0.00  0.00     0.079 A 
ATOM     18  H22 NFT d   1      -9.516  23.962   6.804  0.00  0.00     0.085 H 
ATOM     19  C51 NFT d   1      -7.492  25.349   9.191  0.00  0.00    -0.059 A 
ATOM     20  C52 NFT d   1      -6.270  25.261   8.531  0.00  0.00    -0.071 A 
ATOM     21  H23 NFT d   1      -7.545  25.784  10.183  0.00  0.00     0.085 H 
ATOM     22  H24 NFT d   1      -5.371  25.626   9.014  0.00  0.00     0.084 H 
BRANCH  17  23
ATOM     23  S60 NFT d   1     -10.126  24.779   9.476  0.00  0.00     0.256 S 
ATOM     24  O61 NFT d   1     -10.339  26.018  10.140  0.00  0.00    -0.201 OA
ATOM     25  O62 NFT d   1     -11.178  24.356   8.575  0.00  0.00    -0.201 OA
BRANCH  23  26
ATOM     26  N63 NFT d   1      -9.805  23.545  10.596  0.00  0.00    -0.324 N 
ATOM     27  H25 NFT d   1     -10.504  23.278  11.260  0.00  0.00     0.169 HD
ATOM     28  H26 NFT d   1      -8.917  23.085  10.592  0.00  0.00     0.169 HD
ENDBRANCH  23  26
ENDBRANCH  17  23
ENDBRANCH   7  13
ENDBRANCH   1   3
BRANCH   1  29
ATOM     29  C16 NFT d   1      -0.986  24.919   3.215  0.00  0.00     0.419 C 
ATOM     30  F35 NFT d   1      -2.039  24.558   2.442  0.00  0.00    -0.168 F 
ATOM     31  F36 NFT d   1      -1.005  26.276   3.287  0.00  0.00    -0.168 F 
ATOM     32  F37 NFT d   1       0.124  24.593   2.500  0.00  0.00    -0.168 F 
ENDBRANCH   1  29
BRANCH   1  33
ATOM     33  N24 NFT d   1       0.027  24.446   5.449  0.00  0.00    -0.045 N 
ATOM     34  H9  NFT d   1      -0.337  24.383   6.387  0.00  0.00     0.279 HD
ATOM     35  H10 NFT d   1       0.329  25.390   5.268  0.00  0.00     0.279 HD
BRANCH  33  36
ATOM     36  C17 NFT d   1       1.248  23.628   5.439  0.00  0.00     0.179 C 
ATOM     37  H11 NFT d   1       1.548  23.517   4.387  0.00  0.00     0.099 H 
BRANCH  36  38
ATOM     38  C18 NFT d   1       2.360  24.324   6.156  0.00  0.00    -0.027 C 
ATOM     39  H12 NFT d   1       3.093  23.534   6.376  0.00  0.00     0.037 H 
ATOM     40  H13 NFT d   1       1.912  24.681   7.095  0.00  0.00     0.037 H 
BRANCH  38  41
ATOM     41  C19 NFT d   1       3.198  25.511   5.640  0.00  0.00    -0.059 C 
ATOM     42  H14 NFT d   1       4.218  25.148   5.448  0.00  0.00     0.038 H 
BRANCH  41  43
ATOM     43  C20 NFT d   1       2.686  26.142   4.352  0.00  0.00    -0.073 C 
ATOM     44  H15 NFT d   1       3.345  26.975   4.065  0.00  0.00     0.028 H 
ATOM     45  H16 NFT d   1       1.665  26.520   4.509  0.00  0.00     0.028 H 
ATOM     46  H17 NFT d   1       2.679  25.387   3.552  0.00  0.00     0.028 H 
ENDBRANCH  41  43
BRANCH  41  47
ATOM     47  C21 NFT d   1       3.244  26.542   6.729  0.00  0.00    -0.073 C 
ATOM     48  H18 NFT d   1       3.614  26.080   7.656  0.00  0.00     0.028 H 
ATOM     49  H19 NFT d   1       2.234  26.943   6.897  0.00  0.00     0.028 H 
ATOM     50  H20 NFT d   1       3.918  27.359   6.432  0.00  0.00     0.028 H 
ENDBRANCH  41  47
ENDBRANCH  38  41
ENDBRANCH  36  38
BRANCH  36  51
ATOM     51  C22 NFT d   1       1.067  22.253   5.986  0.00  0.00     0.248 C 
ATOM     52  N26 NFT d   1       1.645  21.274   5.306  0.00  0.00    -0.354 N 
ATOM     53  H6  NFT d   1       2.168  21.516   4.489  0.00  0.00     0.162 HD
ATOM     54  O23 NFT d   1       0.422  22.065   7.006  0.00  0.00    -0.271 OA
BRANCH  52  55
ATOM     55  C41 NFT d   1       1.566  19.865   5.675  0.00  0.00     0.025 C 
ATOM     56  H7  NFT d   1       1.567  19.265   4.753  0.00  0.00     0.072 H 
ATOM     57  H8  NFT d   1       0.624  19.701   6.219  0.00  0.00     0.072 H 
BRANCH  55  58
ATOM     58  C44 NFT d   1       2.699  19.401   6.542  0.00  0.00    -0.010 C 
ATOM     59  N45 NFT d   1       2.820  18.145   6.806  0.00  0.00    -0.315 NA
ATOM     60  H28 NFT d   1       3.578  17.823   7.388  0.00  0.00     0.185 HD
ATOM     61  H27 NFT d   1       3.413  20.119   6.945  0.00  0.00     0.109 H 
ENDBRANCH  55  58
ENDBRANCH  52  55
ENDBRANCH  36  51
ENDBRANCH  33  36
ENDBRANCH   1  33
TORSDOF 14
