REMARK  23 active torsions:
REMARK  status: ('A' for Active; 'I' for Inactive)
REMARK    1  A    between atoms: C_1  and  CH3_3 
REMARK       I    between atoms: C_1  and  N_4 
REMARK    2  A    between atoms: CA_5  and  N_4 
REMARK    3  A    between atoms: CA_5  and  CB_8 
REMARK    4  A    between atoms: CA_5  and  C_6 
REMARK       I    between atoms: C_6  and  N_10 
REMARK    5  A    between atoms: CB_8  and  SG_9 
REMARK    6  A    between atoms: CA_11  and  N_10 
REMARK    7  A    between atoms: CA_11  and  CB_14 
REMARK    8  A    between atoms: CA_11  and  C_12 
REMARK       I    between atoms: C_12  and  N_20 
REMARK    9  A    between atoms: CB_14  and  CG_15 
REMARK   10  A    between atoms: CA_21  and  C_22 
REMARK       I    between atoms: C_22  and  N_27 
REMARK   11  A    between atoms: CA_28  and  N_27 
REMARK   12  A    between atoms: CA_28  and  CB_31 
REMARK   13  A    between atoms: CA_28  and  C_29 
REMARK       I    between atoms: C_29  and  N_36 
REMARK   14  A    between atoms: CB_31  and  CG_32 
REMARK   15  A    between atoms: CG_32  and  CD_33 
REMARK       I    between atoms: CD_33  and  NE2_35 
REMARK   16  A    between atoms: CA_37  and  N_36 
REMARK   17  A    between atoms: CA_37  and  C_38 
REMARK       I    between atoms: C_38  and  N_40 
REMARK   18  A    between atoms: CA_41  and  C_42 
REMARK       I    between atoms: C_42  and  N_47 
REMARK   19  A    between atoms: CA_48  and  C_49 
REMARK       I    between atoms: C_49  and  N_54 
REMARK   20  A    between atoms: CA_55  and  N_54 
REMARK   21  A    between atoms: CA_55  and  CB_58 
REMARK   22  A    between atoms: CA_55  and  C_56 
REMARK       I    between atoms: C_56  and  N_60 
REMARK   23  A    between atoms: CB_58  and  SG_59 
ROOT
ATOM      1  CA  GLN d   1      13.150   1.631 -12.141  0.00  0.00     0.090 C 
ATOM      2  H24 GLN d   1      13.997   2.014 -11.554  0.00  0.00     0.087 H 
ENDROOT
BRANCH   1   3
ATOM      3  N   GLN d   1      13.097   2.366 -13.409  0.00  0.00    -0.346 N 
ATOM      4  C   PRO d   1      14.152   2.511 -14.228  0.00  0.00     0.241 C 
ATOM      5  O   PRO d   1      15.253   2.110 -13.865  0.00  0.00    -0.271 OA
ATOM      6  H23 GLN d   1      12.228   2.782 -13.679  0.00  0.00     0.163 HD
BRANCH   4   7
ATOM      7  CA  PRO d   1      13.993   3.205 -15.588  0.00  0.00     0.091 C 
ATOM      8  CB  PRO d   1      14.405   4.669 -15.594  0.00  0.00    -0.036 C 
ATOM      9  CG  PRO d   1      13.130   5.478 -15.615  0.00  0.00    -0.048 C 
ATOM     10  H17 PRO d   1      15.009   4.889 -16.487  0.00  0.00     0.036 H 
ATOM     11  H18 PRO d   1      14.988   4.903 -14.691  0.00  0.00     0.036 H 
ATOM     12  CD  PRO d   1      12.243   4.638 -16.504  0.00  0.00    -0.001 C 
ATOM     13  H19 PRO d   1      12.704   5.580 -14.606  0.00  0.00     0.035 H 
ATOM     14  H20 PRO d   1      13.297   6.477 -16.045  0.00  0.00     0.035 H 
ATOM     15  N   PRO d   1      12.652   3.260 -16.160  0.00  0.00    -0.337 N 
ATOM     16  H21 PRO d   1      11.180   4.805 -16.276  0.00  0.00     0.064 H 
ATOM     17  H22 PRO d   1      12.428   4.853 -17.567  0.00  0.00     0.064 H 
ATOM     18  C   HIS d   1      11.915   2.150 -16.403  0.00  0.00     0.243 C 
ATOM     19  O   HIS d   1      12.307   0.995 -16.118  0.00  0.00    -0.271 OA
ATOM     20  H16 PRO d   1      14.640   2.652 -16.285  0.00  0.00     0.087 H 
BRANCH  18  21
ATOM     21  CA  HIS d   1      10.509   2.327 -16.968  0.00  0.00     0.095 C 
ATOM     22  H10 HIS d   1      10.411   3.336 -17.396  0.00  0.00     0.088 H 
BRANCH  21  23
ATOM     23  N   HIS d   1      10.281   1.339 -18.023  0.00  0.00    -0.346 N 
ATOM     24  C   CYS d   1      11.022   1.273 -19.143  0.00  0.00     0.241 C 
ATOM     25  O   CYS d   1      11.906   2.089 -19.402  0.00  0.00    -0.271 OA
ATOM     26  H9  HIS d   1       9.538   0.681 -17.905  0.00  0.00     0.163 HD
BRANCH  24  27
ATOM     27  CA  CYS d   1      10.621   0.091 -20.035  0.00  0.00     0.097 C 
ATOM     28  H5  CYS d   1      10.430  -0.752 -19.354  0.00  0.00     0.088 H 
BRANCH  27  29
ATOM     29  N   CYS d   1       9.425   0.281 -20.832  0.00  0.00    -0.347 N 
ATOM     30  C   ACE d   1       9.161   1.347 -21.592  0.00  0.00     0.214 C 
ATOM     31  O   ACE d   1       9.954   2.257 -21.825  0.00  0.00    -0.274 OA
ATOM     32  H4  CYS d   1       8.740  -0.447 -20.811  0.00  0.00     0.163 HD
BRANCH  30  33
ATOM     33  CH3 ACE d   1       7.734   1.408 -22.114  0.00  0.00    -0.003 C 
ATOM     34  H1  ACE d   1       7.190   0.505 -21.800  0.00  0.00     0.040 H 
ATOM     35  H2  ACE d   1       7.747   1.464 -23.212  0.00  0.00     0.040 H 
ATOM     36  H3  ACE d   1       7.232   2.299 -21.707  0.00  0.00     0.040 H 
ENDBRANCH  30  33
ENDBRANCH  27  29
BRANCH  27  37
ATOM     37  CB  CYS d   1      11.722  -0.331 -21.005  0.00  0.00     0.001 C 
ATOM     38  H6  CYS d   1      12.684  -0.407 -20.478  0.00  0.00     0.052 H 
ATOM     39  H7  CYS d   1      11.809   0.400 -21.823  0.00  0.00     0.052 H 
BRANCH  37  40
ATOM     40  SG  CYS d   1      11.236  -1.959 -21.665  0.00  0.00    -0.180 SA
ATOM     41  H8  CYS d   1      11.937  -2.280 -22.314  0.00  0.00     0.101 HD
ENDBRANCH  37  40
ENDBRANCH  27  37
ENDBRANCH  24  27
ENDBRANCH  21  23
BRANCH  21  42
ATOM     42  CB  HIS d   1       9.474   2.161 -15.804  0.00  0.00     0.004 C 
ATOM     43  H11 HIS d   1       9.691   1.219 -15.279  0.00  0.00     0.046 H 
ATOM     44  H12 HIS d   1       8.466   2.114 -16.241  0.00  0.00     0.046 H 
BRANCH  42  45
ATOM     45  CG  HIS d   1       9.505   3.297 -14.787  0.00  0.00     0.053 A 
ATOM     46  ND1 HIS d   1      10.454   3.355 -13.876  0.00  0.00    -0.247 NA
ATOM     47  CE1 HIS d   1      10.232   4.520 -13.308  0.00  0.00     0.064 A 
ATOM     48  NE2 HIS d   1       9.195   5.133 -13.850  0.00  0.00    -0.359 N 
ATOM     49  H14 HIS d   1      10.828   4.928 -12.493  0.00  0.00     0.143 H 
ATOM     50  CD2 HIS d   1       8.692   4.394 -14.801  0.00  0.00     0.002 A 
ATOM     51  H15 HIS d   1       8.837   6.056 -13.565  0.00  0.00     0.166 HD
ATOM     52  H13 HIS d   1       7.838   4.601 -15.444  0.00  0.00     0.114 H 
ENDBRANCH  42  45
ENDBRANCH  21  42
ENDBRANCH  18  21
ENDBRANCH   4   7
ENDBRANCH   1   3
BRANCH   1  53
ATOM     53  CB  GLN d   1      11.860   1.817 -11.337  0.00  0.00    -0.030 C 
ATOM     54  H25 GLN d   1      11.060   1.232 -11.814  0.00  0.00     0.037 H 
ATOM     55  H26 GLN d   1      11.590   2.883 -11.346  0.00  0.00     0.037 H 
BRANCH  53  56
ATOM     56  CG  GLN d   1      12.003   1.359  -9.884  0.00  0.00     0.011 C 
ATOM     57  H27 GLN d   1      12.892   1.852  -9.463  0.00  0.00     0.047 H 
ATOM     58  H28 GLN d   1      12.156   0.270  -9.889  0.00  0.00     0.047 H 
BRANCH  56  59
ATOM     59  CD  GLN d   1      10.824   1.659  -8.962  0.00  0.00     0.215 C 
ATOM     60  NE2 GLN d   1      10.447   0.758  -8.050  0.00  0.00    -0.370 N 
ATOM     61  H29 GLN d   1       9.675   0.952  -7.445  0.00  0.00     0.159 HD
ATOM     62  H30 GLN d   1      10.937  -0.110  -7.973  0.00  0.00     0.159 HD
ATOM     63  OE1 GLN d   1      10.198   2.716  -9.059  0.00  0.00    -0.274 OA
ENDBRANCH  56  59
ENDBRANCH  53  56
ENDBRANCH   1  53
BRANCH   1  64
ATOM     64  C   GLN d   1      13.342   0.138 -12.374  0.00  0.00     0.240 C 
ATOM     65  O   GLN d   1      13.894  -0.541 -11.508  0.00  0.00    -0.271 OA
ATOM     66  N   GLY d   1      12.853  -0.364 -13.518  0.00  0.00    -0.351 N 
ATOM     67  H31 GLY d   1      12.491   0.273 -14.198  0.00  0.00     0.163 HD
BRANCH  66  68
ATOM     68  CA  GLY d   1      12.822  -1.780 -13.819  0.00  0.00     0.069 C 
ATOM     69  H32 GLY d   1      12.010  -1.975 -14.535  0.00  0.00     0.078 H 
ATOM     70  H33 GLY d   1      12.633  -2.338 -12.890  0.00  0.00     0.078 H 
BRANCH  68  71
ATOM     71  C   GLY d   1      14.139  -2.255 -14.423  0.00  0.00     0.238 C 
ATOM     72  O   GLY d   1      15.061  -1.464 -14.655  0.00  0.00    -0.272 OA
ATOM     73  N   PRO d   1      14.302  -3.567 -14.645  0.00  0.00    -0.337 N 
ATOM     74  CA  PRO d   1      15.406  -4.115 -15.446  0.00  0.00     0.092 C 
ATOM     75  CD  PRO d   1      13.562  -4.626 -13.948  0.00  0.00    -0.001 C 
ATOM     76  CB  PRO d   1      15.728  -5.380 -14.665  0.00  0.00    -0.036 C 
ATOM     77  H34 PRO d   1      16.263  -3.428 -15.388  0.00  0.00     0.087 H 
ATOM     78  CG  PRO d   1      14.358  -5.900 -14.231  0.00  0.00    -0.048 C 
ATOM     79  H35 PRO d   1      16.355  -5.152 -13.791  0.00  0.00     0.036 H 
ATOM     80  H36 PRO d   1      16.241  -6.114 -15.303  0.00  0.00     0.036 H 
ATOM     81  H37 PRO d   1      13.888  -6.486 -15.034  0.00  0.00     0.035 H 
ATOM     82  H38 PRO d   1      14.442  -6.520 -13.326  0.00  0.00     0.035 H 
ATOM     83  H39 PRO d   1      12.539  -4.711 -14.344  0.00  0.00     0.064 H 
ATOM     84  H40 PRO d   1      13.521  -4.425 -12.867  0.00  0.00     0.064 H 
BRANCH  74  85
ATOM     85  C   PRO d   1      15.119  -4.322 -16.956  0.00  0.00     0.243 C 
ATOM     86  O   PRO d   1      14.037  -4.832 -17.291  0.00  0.00    -0.271 OA
ATOM     87  N   PRO d   1      15.981  -3.978 -17.933  0.00  0.00    -0.337 N 
ATOM     88  CA  PRO d   1      17.051  -2.984 -17.829  0.00  0.00     0.091 C 
ATOM     89  CD  PRO d   1      16.132  -4.764 -19.161  0.00  0.00    -0.001 C 
ATOM     90  CB  PRO d   1      18.092  -3.551 -18.767  0.00  0.00    -0.036 C 
ATOM     91  H41 PRO d   1      17.446  -2.984 -16.802  0.00  0.00     0.087 H 
ATOM     92  CG  PRO d   1      17.253  -4.064 -19.907  0.00  0.00    -0.048 C 
ATOM     93  H42 PRO d   1      18.656  -4.366 -18.290  0.00  0.00     0.036 H 
ATOM     94  H43 PRO d   1      18.790  -2.771 -19.106  0.00  0.00     0.036 H 
ATOM     95  H44 PRO d   1      16.871  -3.240 -20.528  0.00  0.00     0.035 H 
ATOM     96  H45 PRO d   1      17.817  -4.767 -20.538  0.00  0.00     0.035 H 
ATOM     97  H46 PRO d   1      15.203  -4.752 -19.750  0.00  0.00     0.064 H 
ATOM     98  H47 PRO d   1      16.406  -5.804 -18.929  0.00  0.00     0.064 H 
BRANCH  88  99
ATOM     99  C   PRO d   1      16.633  -1.538 -18.144  0.00  0.00     0.241 C 
ATOM    100  O   PRO d   1      15.442  -1.208 -18.168  0.00  0.00    -0.271 OA
ATOM    101  N   CYS d   1      17.668  -0.710 -18.357  0.00  0.00    -0.345 N 
ATOM    102  H48 CYS d   1      18.570  -1.037 -18.074  0.00  0.00     0.163 HD
BRANCH 101 103
ATOM    103  CA  CYS d   1      17.611   0.618 -18.959  0.00  0.00     0.097 C 
ATOM    104  H49 CYS d   1      18.642   0.883 -19.235  0.00  0.00     0.088 H 
BRANCH 103 105
ATOM    105  CB  CYS d   1      16.763   0.602 -20.252  0.00  0.00     0.001 C 
ATOM    106  H50 CYS d   1      16.552   1.640 -20.548  0.00  0.00     0.052 H 
ATOM    107  H51 CYS d   1      15.817   0.080 -20.047  0.00  0.00     0.052 H 
BRANCH 105 108
ATOM    108  SG  CYS d   1      17.604  -0.235 -21.624  0.00  0.00    -0.180 SA
ATOM    109  H52 CYS d   1      17.012  -0.218 -22.440  0.00  0.00     0.101 HD
ENDBRANCH 105 108
ENDBRANCH 103 105
BRANCH 103 110
ATOM    110  C   CYS d   1      17.097   1.721 -18.052  0.00  0.00     0.239 C 
ATOM    111  O   CYS d   1      15.913   2.011 -17.915  0.00  0.00    -0.271 OA
ATOM    112  N   NH2 d   1      18.041   2.384 -17.401  0.00  0.00    -0.368 N 
ATOM    113  H53 NH2 d   1      17.792   3.128 -16.781  0.00  0.00     0.159 HD
ATOM    114  H54 NH2 d   1      19.002   2.140 -17.530  0.00  0.00     0.159 HD
ENDBRANCH 103 110
ENDBRANCH 101 103
ENDBRANCH  88  99
ENDBRANCH  74  85
ENDBRANCH  68  71
ENDBRANCH  66  68
ENDBRANCH   1  64
TORSDOF 23
