REMARK  13 active torsions:
REMARK  status: ('A' for Active; 'I' for Inactive)
REMARK    1  A    between atoms: CA_2  and  CB_5 
REMARK    2  A    between atoms: CB_5  and  CG_6 
REMARK    3  A    between atoms: CA_33  and  CB_36 
REMARK    4  A    between atoms: CB_36  and  CG_37 
REMARK    5  A    between atoms: CG_37  and  CD_38 
REMARK       I    between atoms: CD_38  and  NE2_40 
REMARK    6  A    between atoms: C_86  and  CA_85 
REMARK       I    between atoms: C_86  and  N_94 
REMARK    7  A    between atoms: N_94  and  CA_95 
REMARK    8  A    between atoms: CA_95  and  CB_98 
REMARK    9  A    between atoms: CA_95  and  C_96 
REMARK       I    between atoms: C_96  and  N_116 
REMARK   10  A    between atoms: CB_98  and  CG_99 
REMARK   11  A    between atoms: CG_99  and  CD_100 
REMARK   12  A    between atoms: CD_100  and  CE_101 
REMARK   13  A    between atoms: CE_101  and  NZ_102 
ROOT
ATOM      1  N   HIS d   1      32.865  14.182 -13.215  0.00  0.00    -0.347 N 
ATOM      2  CA  HIS d   1      32.115  14.418 -11.952  0.00  0.00     0.094 C 
ATOM      3  C   HIS d   1      33.213  14.869 -11.002  0.00  0.00     0.243 C 
ATOM      4  O   HIS d   1      34.213  14.164 -10.921  0.00  0.00    -0.271 OA
ATOM      5  H1  HIS d   1      33.224  13.275 -13.437  0.00  0.00     0.163 HD
ATOM      6  H2  HIS d   1      31.352  15.199 -12.090  0.00  0.00     0.088 H 
ATOM      7  N   PRO d   1      33.015  16.000 -10.328  0.00  0.00    -0.337 N 
ATOM      8  CA  PRO d   1      33.945  16.528  -9.271  0.00  0.00     0.091 C 
ATOM      9  C   PRO d   1      34.351  15.543  -8.142  0.00  0.00     0.241 C 
ATOM     10  O   PRO d   1      35.128  15.890  -7.266  0.00  0.00    -0.271 OA
ATOM     11  CB  PRO d   1      33.236  17.798  -8.712  0.00  0.00    -0.036 C 
ATOM     12  CG  PRO d   1      31.749  17.595  -9.092  0.00  0.00    -0.048 C 
ATOM     13  CD  PRO d   1      31.846  16.952 -10.488  0.00  0.00    -0.001 C 
ATOM     14  H8  PRO d   1      34.878  16.834  -9.767  0.00  0.00     0.087 H 
ATOM     15  H9  PRO d   1      33.638  18.708  -9.180  0.00  0.00     0.036 H 
ATOM     16  H10 PRO d   1      33.355  17.864  -7.620  0.00  0.00     0.036 H 
ATOM     17  H11 PRO d   1      31.245  16.925  -8.380  0.00  0.00     0.035 H 
ATOM     18  H12 PRO d   1      31.215  18.556  -9.133  0.00  0.00     0.035 H 
ATOM     19  H13 PRO d   1      30.923  16.410 -10.741  0.00  0.00     0.064 H 
ATOM     20  H14 PRO d   1      32.051  17.708 -11.261  0.00  0.00     0.064 H 
ATOM     21  N   PRO d   1      38.560  11.494 -10.399  0.00  0.00    -0.337 N 
ATOM     22  CA  PRO d   1      39.921  12.008 -10.711  0.00  0.00     0.092 C 
ATOM     23  C   PRO d   1      39.840  13.096 -11.816  0.00  0.00     0.243 C 
ATOM     24  O   PRO d   1      38.776  13.392 -12.336  0.00  0.00    -0.271 OA
ATOM     25  CB  PRO d   1      40.750  10.711 -11.117  0.00  0.00    -0.036 C 
ATOM     26  CG  PRO d   1      39.679   9.711 -11.651  0.00  0.00    -0.048 C 
ATOM     27  CD  PRO d   1      38.448  10.011 -10.719  0.00  0.00    -0.001 C 
ATOM     28  H26 PRO d   1      40.371  12.461  -9.815  0.00  0.00     0.087 H 
ATOM     29  H27 PRO d   1      41.270  10.293 -10.242  0.00  0.00     0.036 H 
ATOM     30  H28 PRO d   1      41.484  10.949 -11.901  0.00  0.00     0.036 H 
ATOM     31  H29 PRO d   1      39.438   9.910 -12.706  0.00  0.00     0.035 H 
ATOM     32  H30 PRO d   1      40.017   8.670 -11.542  0.00  0.00     0.035 H 
ATOM     33  H31 PRO d   1      37.504   9.797 -11.242  0.00  0.00     0.064 H 
ATOM     34  H32 PRO d   1      38.502   9.410  -9.799  0.00  0.00     0.064 H 
ATOM     35  N   PRO d   1      40.983  13.649 -12.144  0.00  0.00    -0.337 N 
ATOM     36  CA  PRO d   1      41.097  14.553 -13.313  0.00  0.00     0.091 C 
ATOM     37  C   PRO d   1      40.677  13.721 -14.538  0.00  0.00     0.241 C 
ATOM     38  O   PRO d   1      40.574  12.509 -14.470  0.00  0.00    -0.271 OA
ATOM     39  CB  PRO d   1      42.574  14.983 -13.318  0.00  0.00    -0.036 C 
ATOM     40  CG  PRO d   1      43.003  14.781 -11.815  0.00  0.00    -0.048 C 
ATOM     41  CD  PRO d   1      42.290  13.478 -11.437  0.00  0.00    -0.001 C 
ATOM     42  H33 PRO d   1      40.445  15.433 -13.217  0.00  0.00     0.087 H 
ATOM     43  H34 PRO d   1      42.679  16.035 -13.622  0.00  0.00     0.036 H 
ATOM     44  H35 PRO d   1      43.170  14.346 -13.989  0.00  0.00     0.036 H 
ATOM     45  H36 PRO d   1      44.094  14.678 -11.724  0.00  0.00     0.035 H 
ATOM     46  H37 PRO d   1      42.660  15.618 -11.188  0.00  0.00     0.035 H 
ATOM     47  H38 PRO d   1      42.836  12.598 -11.806  0.00  0.00     0.064 H 
ATOM     48  H39 PRO d   1      42.152  13.395 -10.349  0.00  0.00     0.064 H 
ATOM     49  N   GLN d   1      33.823  14.351  -8.162  0.00  0.00    -0.346 N 
ATOM     50  CA  GLN d   1      34.221  13.400  -7.078  0.00  0.00     0.090 C 
ATOM     51  C   GLN d   1      35.241  12.428  -7.662  0.00  0.00     0.240 C 
ATOM     52  O   GLN d   1      35.877  11.716  -6.905  0.00  0.00    -0.271 OA
ATOM     53  H15 GLN d   1      33.176  14.082  -8.876  0.00  0.00     0.163 HD
ATOM     54  H16 GLN d   1      34.662  13.959  -6.240  0.00  0.00     0.087 H 
ATOM     55  N   GLY d   1      35.365  12.431  -8.960  0.00  0.00    -0.351 N 
ATOM     56  CA  GLY d   1      36.324  11.515  -9.601  0.00  0.00     0.069 C 
ATOM     57  C   GLY d   1      37.595  12.270  -9.919  0.00  0.00     0.238 C 
ATOM     58  O   GLY d   1      37.667  13.483  -9.727  0.00  0.00    -0.272 OA
ATOM     59  H23 GLY d   1      34.812  13.051  -9.517  0.00  0.00     0.163 HD
ATOM     60  H24 GLY d   1      35.889  11.118 -10.530  0.00  0.00     0.078 H 
ATOM     61  H25 GLY d   1      36.551  10.683  -8.918  0.00  0.00     0.078 H 
ATOM     62  N   CYS d   1      40.463  14.376 -15.636  0.00  0.00    -0.345 N 
ATOM     63  CA  CYS d   1      40.048  13.608 -16.847  0.00  0.00     0.097 C 
ATOM     64  CB  CYS d   1      39.354  14.589 -17.793  0.00  0.00     0.004 C 
ATOM     65  SG  CYS d   1      38.080  15.606 -17.000  0.00  0.00    -0.167 SA
ATOM     66  H40 CYS d   1      40.573  15.369 -15.671  0.00  0.00     0.163 HD
ATOM     67  H41 CYS d   1      39.346  12.810 -16.565  0.00  0.00     0.088 H 
ATOM     68  H42 CYS d   1      38.882  14.013 -18.602  0.00  0.00     0.052 H 
ATOM     69  H43 CYS d   1      40.117  15.259 -18.216  0.00  0.00     0.052 H 
ATOM     70  C1  LEA d   1      33.043  15.196 -14.031  0.00  0.00     0.218 C 
ATOM     71  O1  LEA d   1      32.602  16.304 -13.761  0.00  0.00    -0.274 OA
ATOM     72  C2  LEA d   1      33.829  14.953 -15.359  0.00  0.00     0.009 C 
ATOM     73  C3  LEA d   1      35.369  14.818 -15.079  0.00  0.00    -0.057 C 
ATOM     74  C4  LEA d   1      36.058  13.812 -16.081  0.00  0.00    -0.057 C 
ATOM     75  C5  LEA d   1      36.641  14.541 -17.310  0.00  0.00    -0.023 C 
ATOM     76  H59 LEA d   1      33.659  15.801 -16.039  0.00  0.00     0.047 H 
ATOM     77  H60 LEA d   1      33.465  14.027 -15.829  0.00  0.00     0.047 H 
ATOM     78  H61 LEA d   1      35.514  14.453 -14.052  0.00  0.00     0.033 H 
ATOM     79  H62 LEA d   1      35.839  15.807 -15.187  0.00  0.00     0.033 H 
ATOM     80  H63 LEA d   1      35.311  13.080 -16.422  0.00  0.00     0.034 H 
ATOM     81  H64 LEA d   1      36.872  13.289 -15.558  0.00  0.00     0.034 H 
ATOM     82  H65 LEA d   1      35.845  15.168 -17.738  0.00  0.00     0.049 H 
ATOM     83  H66 LEA d   1      36.940  13.777 -18.043  0.00  0.00     0.049 H 
ENDROOT
BRANCH  63  84
ATOM     84  C   CYS d   1      41.294  12.980 -17.495  0.00  0.00     0.241 C 
ATOM     85  O   CYS d   1      42.343  12.903 -16.882  0.00  0.00    -0.271 OA
ATOM     86  N   LYS d   1      41.106  12.554 -18.716  0.00  0.00    -0.346 N 
ATOM     87  H44 LYS d   1      40.204  12.656 -19.135  0.00  0.00     0.163 HD
BRANCH  86  88
ATOM     88  CA  LYS d   1      42.202  11.920 -19.499  0.00  0.00     0.089 C 
ATOM     89  H45 LYS d   1      42.569  11.021 -18.983  0.00  0.00     0.087 H 
BRANCH  88  90
ATOM     90  CB  LYS d   1      41.661  11.536 -20.899  0.00  0.00    -0.038 C 
ATOM     91  H46 LYS d   1      41.220  12.428 -21.368  0.00  0.00     0.036 H 
ATOM     92  H47 LYS d   1      40.888  10.762 -20.783  0.00  0.00     0.036 H 
BRANCH  90  93
ATOM     93  CG  LYS d   1      42.783  10.991 -21.813  0.00  0.00    -0.061 C 
ATOM     94  H48 LYS d   1      43.177  10.055 -21.391  0.00  0.00     0.033 H 
ATOM     95  H49 LYS d   1      43.593  11.732 -21.881  0.00  0.00     0.033 H 
BRANCH  93  96
ATOM     96  CD  LYS d   1      42.210  10.719 -23.229  0.00  0.00    -0.043 C 
ATOM     97  H50 LYS d   1      41.690  11.617 -23.594  0.00  0.00     0.035 H 
ATOM     98  H51 LYS d   1      41.502   9.879 -23.184  0.00  0.00     0.035 H 
BRANCH  96  99
ATOM     99  CE  LYS d   1      43.365  10.368 -24.186  0.00  0.00     0.080 C 
ATOM    100  H52 LYS d   1      43.882   9.469 -23.819  0.00  0.00     0.075 H 
ATOM    101  H53 LYS d   1      44.074  11.208 -24.225  0.00  0.00     0.075 H 
BRANCH  99 102
ATOM    102  NZ  LYS d   1      42.833  10.108 -25.554  0.00  0.00    -0.079 N 
ATOM    103  H54 LYS d   1      43.595   9.879 -26.173  0.00  0.00     0.274 HD
ATOM    104  H55 LYS d   1      42.360  10.931 -25.893  0.00  0.00     0.274 HD
ATOM    105  H56 LYS d   1      42.184   9.338 -25.521  0.00  0.00     0.274 HD
ENDBRANCH  99 102
ENDBRANCH  96  99
ENDBRANCH  93  96
ENDBRANCH  90  93
ENDBRANCH  88  90
BRANCH  88 106
ATOM    106  C   LYS d   1      43.327  12.943 -19.629  0.00  0.00     0.238 C 
ATOM    107  O   LYS d   1      43.104  14.135 -19.615  0.00  0.00    -0.271 OA
ATOM    108  N   NH2 d   1      44.545  12.525 -19.762  0.00  0.00    -0.368 N 
ATOM    109  H57 NH2 d   1      45.293  13.183 -19.848  0.00  0.00     0.159 HD
ATOM    110  H58 NH2 d   1      44.738  11.544 -19.778  0.00  0.00     0.159 HD
ENDBRANCH  88 106
ENDBRANCH  86  88
ENDBRANCH  63  84
BRANCH   2 111
ATOM    111  CB  HIS d   1      31.432  13.108 -11.381  0.00  0.00     0.004 C 
ATOM    112  H3  HIS d   1      32.200  12.404 -11.027  0.00  0.00     0.046 H 
ATOM    113  H4  HIS d   1      30.825  12.626 -12.162  0.00  0.00     0.046 H 
BRANCH 111 114
ATOM    114  CG  HIS d   1      30.527  13.552 -10.198  0.00  0.00     0.053 A 
ATOM    115  ND1 HIS d   1      31.030  13.856  -9.007  0.00  0.00    -0.247 NA
ATOM    116  CE1 HIS d   1      29.978  14.220  -8.315  0.00  0.00     0.064 A 
ATOM    117  NE2 HIS d   1      28.872  14.148  -9.009  0.00  0.00    -0.359 N 
ATOM    118  H6  HIS d   1      30.020  14.546  -7.277  0.00  0.00     0.143 H 
ATOM    119  CD2 HIS d   1      29.137  13.733 -10.215  0.00  0.00     0.002 A 
ATOM    120  H7  HIS d   1      27.934  14.384  -8.656  0.00  0.00     0.166 HD
ATOM    121  H5  HIS d   1      28.445  13.567 -11.039  0.00  0.00     0.114 H 
ENDBRANCH 111 114
ENDBRANCH   2 111
BRANCH  50 122
ATOM    122  CB  GLN d   1      33.021  12.579  -6.576  0.00  0.00    -0.030 C 
ATOM    123  H17 GLN d   1      32.750  11.814  -7.319  0.00  0.00     0.037 H 
ATOM    124  H18 GLN d   1      32.160  13.240  -6.399  0.00  0.00     0.037 H 
BRANCH 122 125
ATOM    125  CG  GLN d   1      33.455  11.898  -5.241  0.00  0.00     0.011 C 
ATOM    126  H19 GLN d   1      33.807  12.655  -4.524  0.00  0.00     0.047 H 
ATOM    127  H20 GLN d   1      34.258  11.170  -5.429  0.00  0.00     0.047 H 
BRANCH 125 128
ATOM    128  CD  GLN d   1      32.240  11.203  -4.706  0.00  0.00     0.215 C 
ATOM    129  NE2 GLN d   1      32.370  10.023  -4.180  0.00  0.00    -0.370 N 
ATOM    130  H21 GLN d   1      31.569   9.546  -3.818  0.00  0.00     0.159 HD
ATOM    131  H22 GLN d   1      33.271   9.591  -4.136  0.00  0.00     0.159 HD
ATOM    132  OE1 GLN d   1      31.158  11.748  -4.771  0.00  0.00    -0.274 OA
ENDBRANCH 125 128
ENDBRANCH 122 125
ENDBRANCH  50 122
TORSDOF 13
