REMARK  10 active torsions:
REMARK  status: ('A' for Active; 'I' for Inactive)
REMARK    1  A    between atoms: C_1  and  C1_9 
REMARK       I    between atoms: N_3  and  C_1 
REMARK    2  A    between atoms: CA_4  and  N_3 
REMARK    3  A    between atoms: CA_11  and  CB_14 
REMARK    4  A    between atoms: CB_14  and  CG_15 
REMARK    5  A    between atoms: CA_28  and  CB_31 
REMARK    6  A    between atoms: CB_31  and  CG_32 
REMARK    7  A    between atoms: CG_32  and  CD_33 
REMARK       I    between atoms: CD_33  and  NE2_35 
REMARK    8  A    between atoms: CA_37  and  CB_40 
REMARK    9  A    between atoms: CB_40  and  CG_41 
REMARK   10  A    between atoms: CA_48  and  C_49 
ROOT
ATOM      1  CA  CYS d   1       9.975  -1.168 -18.842  0.00  0.00     0.098 C 
ATOM      2  C   CYS d   1      10.137   0.238 -18.238  0.00  0.00     0.242 C 
ATOM      3  O   CYS d   1      10.050   1.211 -18.966  0.00  0.00    -0.271 OA
ATOM      4  CB  CYS d   1      11.327  -1.806 -19.204  0.00  0.00     0.013 C 
ATOM      5  SG  CYS d   1      12.351  -2.155 -17.764  0.00  0.00    -0.095 SA
ATOM      6  N   CYS d   1      14.850  -0.751 -15.291  0.00  0.00    -0.344 N 
ATOM      7  CA  CYS d   1      15.911  -0.831 -16.359  0.00  0.00     0.105 C 
ATOM      8  CB  CYS d   1      15.221  -1.332 -17.634  0.00  0.00     0.015 C 
ATOM      9  SG  CYS d   1      13.608  -0.589 -17.983  0.00  0.00    -0.095 SA
ATOM     10  H2  CYS d   1       9.419  -1.833 -18.165  0.00  0.00     0.088 H 
ATOM     11  H3  CYS d   1      11.874  -1.117 -19.864  0.00  0.00     0.053 H 
ATOM     12  H4  CYS d   1      11.137  -2.750 -19.736  0.00  0.00     0.053 H 
ATOM     13  H39 CYS d   1      14.037  -0.185 -15.430  0.00  0.00     0.163 HD
ATOM     14  H40 CYS d   1      16.640  -1.587 -16.031  0.00  0.00     0.090 H 
ATOM     15  H41 CYS d   1      15.081  -2.419 -17.540  0.00  0.00     0.054 H 
ATOM     16  H42 CYS d   1      15.884  -1.120 -18.485  0.00  0.00     0.054 H 
ATOM     17  N   HIS d   1      10.369   0.340 -16.962  0.00  0.00    -0.346 N 
ATOM     18  CA  HIS d   1      10.521   1.696 -16.331  0.00  0.00     0.094 C 
ATOM     19  C   HIS d   1      11.895   1.791 -15.677  0.00  0.00     0.243 C 
ATOM     20  O   HIS d   1      12.368   0.801 -15.153  0.00  0.00    -0.271 OA
ATOM     21  H8  HIS d   1      10.446  -0.484 -16.401  0.00  0.00     0.163 HD
ATOM     22  H9  HIS d   1      10.434   2.482 -17.096  0.00  0.00     0.088 H 
ATOM     23  N   PRO d   1      12.500   2.963 -15.703  0.00  0.00    -0.337 N 
ATOM     24  CA  PRO d   1      13.830   3.184 -15.116  0.00  0.00     0.091 C 
ATOM     25  C   PRO d   1      14.042   2.611 -13.727  0.00  0.00     0.241 C 
ATOM     26  O   PRO d   1      15.152   2.242 -13.388  0.00  0.00    -0.271 OA
ATOM     27  CB  PRO d   1      14.014   4.697 -15.186  0.00  0.00    -0.036 C 
ATOM     28  CG  PRO d   1      12.606   5.279 -15.432  0.00  0.00    -0.048 C 
ATOM     29  CD  PRO d   1      11.957   4.227 -16.300  0.00  0.00    -0.001 C 
ATOM     30  H15 PRO d   1      14.578   2.707 -15.767  0.00  0.00     0.087 H 
ATOM     31  H16 PRO d   1      14.689   4.963 -16.013  0.00  0.00     0.036 H 
ATOM     32  H17 PRO d   1      14.426   5.077 -14.240  0.00  0.00     0.036 H 
ATOM     33  H18 PRO d   1      12.662   6.245 -15.955  0.00  0.00     0.035 H 
ATOM     34  H19 PRO d   1      12.059   5.405 -14.486  0.00  0.00     0.035 H 
ATOM     35  H20 PRO d   1      12.257   4.335 -17.353  0.00  0.00     0.064 H 
ATOM     36  H21 PRO d   1      10.860   4.267 -16.226  0.00  0.00     0.064 H 
ATOM     37  N   GLN d   1      13.007   2.556 -12.934  0.00  0.00    -0.346 N 
ATOM     38  CA  GLN d   1      13.176   2.000 -11.565  0.00  0.00     0.090 C 
ATOM     39  C   GLN d   1      13.774   0.611 -11.674  0.00  0.00     0.241 C 
ATOM     40  O   GLN d   1      14.486   0.151 -10.796  0.00  0.00    -0.271 OA
ATOM     41  H22 GLN d   1      12.114   2.883 -13.242  0.00  0.00     0.163 HD
ATOM     42  H23 GLN d   1      13.854   2.647 -10.989  0.00  0.00     0.087 H 
ATOM     43  N   PHE d   1      13.442   0.016 -12.774  0.00  0.00    -0.346 N 
ATOM     44  CA  PHE d   1      13.903  -1.357 -13.084  0.00  0.00     0.093 C 
ATOM     45  C   PHE d   1      14.999  -1.424 -14.185  0.00  0.00     0.241 C 
ATOM     46  O   PHE d   1      15.997  -2.100 -13.990  0.00  0.00    -0.271 OA
ATOM     47  H30 PHE d   1      12.860   0.495 -13.431  0.00  0.00     0.163 HD
ATOM     48  H31 PHE d   1      14.336  -1.794 -12.172  0.00  0.00     0.088 H 
ENDROOT
BRANCH  44  49
ATOM     49  CB  PHE d   1      12.604  -2.159 -13.458  0.00  0.00    -0.014 C 
ATOM     50  H32 PHE d   1      12.828  -3.235 -13.503  0.00  0.00     0.043 H 
ATOM     51  H33 PHE d   1      12.224  -1.822 -14.434  0.00  0.00     0.043 H 
BRANCH  49  52
ATOM     52  CG  PHE d   1      11.539  -1.883 -12.347  0.00  0.00    -0.056 A 
ATOM     53  CD2 PHE d   1      10.454  -1.062 -12.612  0.00  0.00    -0.077 A 
ATOM     54  CE2 PHE d   1       9.510  -0.779 -11.636  0.00  0.00    -0.082 A 
ATOM     55  H35 PHE d   1      10.341  -0.633 -13.601  0.00  0.00     0.084 H 
ATOM     56  CZ  PHE d   1       9.628  -1.303 -10.370  0.00  0.00    -0.083 A 
ATOM     57  H37 PHE d   1       8.669  -0.137 -11.874  0.00  0.00     0.083 H 
ATOM     58  CE1 PHE d   1      10.706  -2.131 -10.084  0.00  0.00    -0.082 A 
ATOM     59  H38 PHE d   1       8.892  -1.074  -9.608  0.00  0.00     0.083 H 
ATOM     60  CD1 PHE d   1      11.655  -2.414 -11.064  0.00  0.00    -0.077 A 
ATOM     61  H36 PHE d   1      10.809  -2.559  -9.094  0.00  0.00     0.083 H 
ATOM     62  H34 PHE d   1      12.495  -3.056 -10.825  0.00  0.00     0.084 H 
ENDBRANCH  49  52
ENDBRANCH  44  49
BRANCH   7  63
ATOM     63  C   CYS d   1      16.720   0.447 -16.685  0.00  0.00     0.197 C 
ATOM     64  O   CYS d   1      16.225   1.554 -16.761  0.00  0.00    -0.646 OA
ATOM     65  O1  NH2 d   1      17.959   0.334 -16.882  0.00  0.00    -0.646 OA
ENDBRANCH   7  63
BRANCH  38  66
ATOM     66  CB  GLN d   1      11.809   1.925 -10.843  0.00  0.00    -0.030 C 
ATOM     67  H24 GLN d   1      11.124   1.278 -11.411  0.00  0.00     0.037 H 
ATOM     68  H25 GLN d   1      11.377   2.933 -10.760  0.00  0.00     0.037 H 
BRANCH  66  69
ATOM     69  CG  GLN d   1      12.033   1.332  -9.422  0.00  0.00     0.011 C 
ATOM     70  H26 GLN d   1      12.963   1.748  -9.009  0.00  0.00     0.047 H 
ATOM     71  H27 GLN d   1      12.126   0.239  -9.507  0.00  0.00     0.047 H 
BRANCH  69  72
ATOM     72  CD  GLN d   1      10.890   1.652  -8.470  0.00  0.00     0.215 C 
ATOM     73  OE1 GLN d   1      10.314   2.701  -8.617  0.00  0.00    -0.274 OA
ATOM     74  NE2 GLN d   1      10.501   0.864  -7.499  0.00  0.00    -0.370 N 
ATOM     75  H28 GLN d   1       9.741   1.136  -6.909  0.00  0.00     0.159 HD
ATOM     76  H29 GLN d   1      10.964  -0.009  -7.348  0.00  0.00     0.159 HD
ENDBRANCH  69  72
ENDBRANCH  66  69
ENDBRANCH  38  66
BRANCH   1  77
ATOM     77  N   CYS d   1       9.212  -0.875 -20.076  0.00  0.00    -0.347 N 
ATOM     78  C   ACE d   1       7.971  -0.507 -19.930  0.00  0.00     0.214 C 
ATOM     79  O   ACE d   1       7.442  -0.409 -18.835  0.00  0.00    -0.274 OA
ATOM     80  H1  CYS d   1       9.630  -0.956 -20.981  0.00  0.00     0.163 HD
BRANCH  78  81
ATOM     81  C1  ACE d   1       7.162  -0.192 -21.154  0.00  0.00    -0.003 C 
ATOM     82  H5  ACE d   1       7.784  -0.330 -22.051  0.00  0.00     0.040 H 
ATOM     83  H6  ACE d   1       6.814   0.851 -21.106  0.00  0.00     0.040 H 
ATOM     84  H7  ACE d   1       6.294  -0.866 -21.204  0.00  0.00     0.040 H 
ENDBRANCH  78  81
ENDBRANCH   1  77
BRANCH  18  85
ATOM     85  CB  HIS d   1       9.354   1.842 -15.300  0.00  0.00     0.002 C 
ATOM     86  H10 HIS d   1       9.348   0.936 -14.676  0.00  0.00     0.046 H 
ATOM     87  H11 HIS d   1       8.415   1.901 -15.869  0.00  0.00     0.046 H 
BRANCH  85  88
ATOM     88  CG  HIS d   1       9.401   3.053 -14.357  0.00  0.00     0.030 A 
ATOM     89  CD2 HIS d   1       8.615   4.191 -14.395  0.00  0.00     0.025 A 
ATOM     90  NE2 HIS d   1       9.015   4.892 -13.382  0.00  0.00    -0.254 NA
ATOM     91  H13 HIS d   1       7.836   4.441 -15.114  0.00  0.00     0.117 H 
ATOM     92  CE1 HIS d   1       9.958   4.255 -12.776  0.00  0.00     0.063 A 
ATOM     93  ND1 HIS d   1      10.234   3.108 -13.344  0.00  0.00    -0.353 N 
ATOM     94  H14 HIS d   1      10.468   4.629 -11.890  0.00  0.00     0.143 H 
ATOM     95  H12 HIS d   1      10.939   2.412 -13.062  0.00  0.00     0.166 HD
ENDBRANCH  85  88
ENDBRANCH  18  85
TORSDOF 10
