REMARK WARNING: 32 MAX_TORS EXCEEDED!!!
REMARK  80 active torsions:
REMARK  status: ('A' for Active; 'I' for Inactive)
REMARK    1  A    between atoms: N_1  and  CA_2 
REMARK    2  A    between atoms: CA_2  and  C_3 
REMARK    3  A    between atoms: CA_2  and  CB_5 
REMARK       I    between atoms: C_3  and  N_7 
REMARK    4  A    between atoms: CB_5  and  OG_6 
REMARK    5  A    between atoms: N_7  and  CA_8 
REMARK    6  A    between atoms: CA_8  and  C_9 
REMARK    7  A    between atoms: CA_8  and  CB_11 
REMARK       I    between atoms: C_9  and  N_12 
REMARK    8  A    between atoms: N_12  and  CA_13 
REMARK    9  A    between atoms: CA_13  and  C_14 
REMARK   10  A    between atoms: CA_13  and  CB_16 
REMARK       I    between atoms: C_14  and  N_19 
REMARK   11  A    between atoms: CB_16  and  CG1_17 
REMARK   12  A    between atoms: CB_16  and  CG2_18 
REMARK   13  A    between atoms: N_19  and  CA_20 
REMARK   14  A    between atoms: CA_20  and  C_21 
REMARK   15  A    between atoms: CA_20  and  CB_23 
REMARK       I    between atoms: C_21  and  N_27 
REMARK   16  A    between atoms: CB_23  and  CG_24 
REMARK   17  A    between atoms: CG_24  and  CD1_25 
REMARK   18  A    between atoms: CG_24  and  CD2_26 
REMARK   19  A    between atoms: N_27  and  CA_28 
REMARK   20  A    between atoms: CA_28  and  C_29 
REMARK   21  A    between atoms: CA_28  and  CB_31 
REMARK       I    between atoms: C_29  and  N_36 
REMARK   22  A    between atoms: CB_31  and  CG_32 
REMARK   23  A    between atoms: CG_32  and  CD_33 
REMARK       I    between atoms: CD_33  and  NE2_35 
REMARK   24  A    between atoms: N_36  and  CA_37 
REMARK   25  A    between atoms: CA_37  and  C_38 
REMARK   26  A    between atoms: CA_37  and  CB_40 
REMARK       I    between atoms: C_38  and  N_45 
REMARK   27  A    between atoms: CB_40  and  CG_41 
REMARK   28  A    between atoms: CG_41  and  CD_42 
REMARK   29  A    between atoms: CD_42  and  CE_43 
REMARK   30  A    between atoms: CE_43  and  NZ_44 
REMARK   31  A    between atoms: N_45  and  CA_46 
REMARK   32  A    between atoms: CA_46  and  C_47 
REMARK   33  A    between atoms: CA_46  and  CB_49 
REMARK       I    between atoms: C_47  and  N_54 
REMARK   34  A    between atoms: CB_49  and  CG_50 
REMARK   35  A    between atoms: CG_50  and  CD_51 
REMARK   36  A    between atoms: CD_51  and  CE_52 
REMARK   37  A    between atoms: CE_52  and  NZ_53 
REMARK   38  A    between atoms: N_54  and  CA_55 
REMARK   39  A    between atoms: CA_55  and  C_56 
REMARK   40  A    between atoms: CA_55  and  CB_58 
REMARK       I    between atoms: C_56  and  N_62 
REMARK   41  A    between atoms: CB_58  and  CG1_59 
REMARK   42  A    between atoms: CB_58  and  CG2_60 
REMARK   43  A    between atoms: CG1_59  and  CD1_61 
REMARK   44  A    between atoms: N_62  and  CA_63 
REMARK   45  A    between atoms: CA_63  and  C_64 
REMARK   46  A    between atoms: CA_63  and  CB_66 
REMARK       I    between atoms: C_64  and  N_69 
REMARK   47  A    between atoms: CB_66  and  OG1_67 
REMARK   48  A    between atoms: CB_66  and  CG2_68 
REMARK   49  A    between atoms: N_69  and  CA_70 
REMARK   50  A    between atoms: CA_70  and  C_71 
REMARK   51  A    between atoms: CA_70  and  CB_73 
REMARK       I    between atoms: C_71  and  N_77 
REMARK   52  A    between atoms: CB_73  and  CG_74 
REMARK   53  A    between atoms: N_77  and  CA_78 
REMARK   54  A    between atoms: CA_78  and  C_79 
REMARK   55  A    between atoms: CA_78  and  CB_81 
REMARK       I    between atoms: C_79  and  N_89 
REMARK   56  A    between atoms: CB_81  and  CG_82 
REMARK   57  A    between atoms: CZ_87  and  OH_88 
REMARK   58  A    between atoms: N_89  and  CA_90 
REMARK   59  A    between atoms: CA_90  and  C_91 
REMARK   60  A    between atoms: CA_90  and  CB_93 
REMARK       I    between atoms: C_91  and  N_100 
REMARK   61  A    between atoms: CB_93  and  CG_94 
REMARK   62  A    between atoms: N_100  and  CA_101 
REMARK   63  A    between atoms: CA_101  and  C_102 
REMARK   64  A    between atoms: CA_101  and  CB_104 
REMARK       I    between atoms: C_102  and  N_110 
REMARK   65  A    between atoms: CB_104  and  CG_105 
REMARK   66  A    between atoms: CA_111  and  C_112 
REMARK       I    between atoms: C_112  and  N_117 
REMARK   67  A    between atoms: N_117  and  CA_118 
REMARK   68  A    between atoms: CA_118  and  C_119 
REMARK   69  A    between atoms: CA_118  and  CB_121 
REMARK       I    between atoms: C_119  and  N_126 
REMARK   70  A    between atoms: CB_121  and  CG_122 
REMARK   71  A    between atoms: CG_122  and  CD_123 
REMARK   72  A    between atoms: CD_123  and  CE_124 
REMARK   73  A    between atoms: CE_124  and  NZ_125 
REMARK   74  A    between atoms: N_126  and  CA_127 
REMARK   75  A    between atoms: CA_127  and  C_128 
REMARK   76  A    between atoms: CA_127  and  CB_130 
REMARK   77  A    between atoms: CB_130  and  CG_131 
REMARK   78  A    between atoms: CG_131  and  CD_132 
REMARK   79  A    between atoms: CD_132  and  CE_133 
REMARK   80  A    between atoms: CE_133  and  NZ_134 
ROOT
ATOM      1  CA  THR d   1     -45.384  66.448  32.365  0.00  0.00     0.113 C 
ATOM      2  H79 THR d   1     -45.539  67.427  31.889  0.00  0.00     0.091 H 
ENDROOT
BRANCH   1   3
ATOM      3  N   THR d   1     -44.002  66.066  32.103  0.00  0.00    -0.344 N 
ATOM      4  C   ILE d   1     -42.962  66.792  32.490  0.00  0.00     0.241 C 
ATOM      5  O   ILE d   1     -43.075  67.869  33.059  0.00  0.00    -0.271 OA
ATOM      6  H78 THR d   1     -43.830  65.215  31.607  0.00  0.00     0.163 HD
BRANCH   4   7
ATOM      7  CA  ILE d   1     -41.589  66.146  32.280  0.00  0.00     0.092 C 
ATOM      8  H68 ILE d   1     -40.952  66.440  33.127  0.00  0.00     0.088 H 
BRANCH   7   9
ATOM      9  N   ILE d   1     -41.740  64.704  32.312  0.00  0.00    -0.346 N 
ATOM     10  C   LYS d   1     -41.915  64.144  33.499  0.00  0.00     0.241 C 
ATOM     11  O   LYS d   1     -41.975  64.825  34.522  0.00  0.00    -0.271 OA
ATOM     12  H67 ILE d   1     -41.713  64.157  31.475  0.00  0.00     0.163 HD
BRANCH  10  13
ATOM     13  CA  LYS d   1     -41.972  62.621  33.547  0.00  0.00     0.089 C 
ATOM     14  H55 LYS d   1     -41.135  62.239  32.945  0.00  0.00     0.087 H 
BRANCH  13  15
ATOM     15  N   LYS d   1     -41.808  62.103  34.902  0.00  0.00    -0.346 N 
ATOM     16  C   LYS d   1     -40.638  61.609  35.301  0.00  0.00     0.241 C 
ATOM     17  O   LYS d   1     -39.749  61.324  34.494  0.00  0.00    -0.271 OA
ATOM     18  H54 LYS d   1     -42.581  62.119  35.536  0.00  0.00     0.163 HD
BRANCH  16  19
ATOM     19  CA  LYS d   1     -40.479  61.296  36.796  0.00  0.00     0.089 C 
ATOM     20  H42 LYS d   1     -41.398  60.772  37.097  0.00  0.00     0.087 H 
BRANCH  19  21
ATOM     21  N   LYS d   1     -39.367  60.403  37.061  0.00  0.00    -0.346 N 
ATOM     22  C   GLN d   1     -39.428  59.156  36.632  0.00  0.00     0.241 C 
ATOM     23  O   GLN d   1     -40.379  58.704  36.010  0.00  0.00    -0.271 OA
ATOM     24  H41 LYS d   1     -38.565  60.728  37.562  0.00  0.00     0.163 HD
BRANCH  22  25
ATOM     25  CA  GLN d   1     -38.109  58.383  36.767  0.00  0.00     0.090 C 
ATOM     26  H34 GLN d   1     -37.340  59.079  37.135  0.00  0.00     0.087 H 
BRANCH  25  27
ATOM     27  N   GLN d   1     -38.200  57.256  37.696  0.00  0.00    -0.346 N 
ATOM     28  C   LEU d   1     -37.941  57.438  39.007  0.00  0.00     0.241 C 
ATOM     29  O   LEU d   1     -37.760  58.547  39.497  0.00  0.00    -0.271 OA
ATOM     30  H33 GLN d   1     -38.455  56.350  37.358  0.00  0.00     0.163 HD
BRANCH  28  31
ATOM     31  CA  LEU d   1     -37.839  56.150  39.837  0.00  0.00     0.089 C 
ATOM     32  H23 LEU d   1     -37.385  55.369  39.210  0.00  0.00     0.087 H 
BRANCH  31  33
ATOM     33  N   LEU d   1     -37.009  56.349  41.019  0.00  0.00    -0.346 N 
ATOM     34  C   VAL d   1     -36.151  55.385  41.408  0.00  0.00     0.241 C 
ATOM     35  O   VAL d   1     -36.076  54.301  40.845  0.00  0.00    -0.271 OA
ATOM     36  H22 LEU d   1     -37.076  57.200  41.541  0.00  0.00     0.163 HD
BRANCH  34  37
ATOM     37  CA  VAL d   1     -35.312  55.731  42.640  0.00  0.00     0.092 C 
ATOM     38  H14 VAL d   1     -35.946  55.632  43.533  0.00  0.00     0.088 H 
BRANCH  37  39
ATOM     39  N   VAL d   1     -34.153  54.852  42.785  0.00  0.00    -0.346 N 
ATOM     40  C   ALA d   1     -33.536  54.779  43.979  0.00  0.00     0.240 C 
ATOM     41  O   ALA d   1     -33.902  55.437  44.944  0.00  0.00    -0.271 OA
ATOM     42  H13 VAL d   1     -33.824  54.313  42.009  0.00  0.00     0.163 HD
BRANCH  40  43
ATOM     43  CA  ALA d   1     -32.316  53.853  44.045  0.00  0.00     0.086 C 
ATOM     44  H9  ALA d   1     -32.343  53.321  45.008  0.00  0.00     0.086 H 
BRANCH  43  45
ATOM     45  N   ALA d   1     -32.302  52.862  42.970  0.00  0.00    -0.346 N 
ATOM     46  C   SER d   1     -31.214  52.082  42.817  0.00  0.00     0.251 C 
ATOM     47  O   SER d   1     -30.205  52.227  43.493  0.00  0.00    -0.271 OA
ATOM     48  H8  ALA d   1     -33.087  52.765  42.358  0.00  0.00     0.163 HD
BRANCH  46  49
ATOM     49  CA  SER d   1     -31.309  51.036  41.698  0.00  0.00     0.195 C 
ATOM     50  H4  SER d   1     -31.039  51.516  40.746  0.00  0.00     0.102 H 
BRANCH  49  51
ATOM     51  N   SER d   1     -30.411  49.909  41.934  0.00  0.00    -0.064 N 
ATOM     52  H1  SER d   1     -30.501  49.245  41.181  0.00  0.00     0.275 HD
ATOM     53  H2  SER d   1     -30.652  49.464  42.806  0.00  0.00     0.275 HD
ATOM     54  H3  SER d   1     -29.460  50.240  41.978  0.00  0.00     0.275 HD
ENDBRANCH  49  51
BRANCH  49  55
ATOM     55  CB  SER d   1     -32.734  50.491  41.604  0.00  0.00     0.051 C 
ATOM     56  H5  SER d   1     -33.078  50.541  40.560  0.00  0.00     0.077 H 
ATOM     57  H6  SER d   1     -33.400  51.093  42.239  0.00  0.00     0.077 H 
BRANCH  55  58
ATOM     58  OG  SER d   1     -32.750  49.133  42.048  0.00  0.00    -0.398 OA
ATOM     59  H7  SER d   1     -33.635  48.792  41.990  0.00  0.00     0.209 HD
ENDBRANCH  55  58
ENDBRANCH  49  55
ENDBRANCH  46  49
ENDBRANCH  43  45
BRANCH  43  60
ATOM     60  CB  ALA d   1     -31.026  54.673  43.967  0.00  0.00    -0.049 C 
ATOM     61  H10 ALA d   1     -31.020  55.425  44.770  0.00  0.00     0.030 H 
ATOM     62  H11 ALA d   1     -30.971  55.178  42.992  0.00  0.00     0.030 H 
ATOM     63  H12 ALA d   1     -30.160  54.005  44.083  0.00  0.00     0.030 H 
ENDBRANCH  43  60
ENDBRANCH  40  43
ENDBRANCH  37  39
BRANCH  37  64
ATOM     64  CB  VAL d   1     -34.807  57.172  42.534  0.00  0.00    -0.033 C 
ATOM     65  H15 VAL d   1     -35.614  57.806  42.138  0.00  0.00     0.042 H 
BRANCH  64  66
ATOM     66  CG1 VAL d   1     -34.393  57.688  43.911  0.00  0.00    -0.071 C 
ATOM     67  H16 VAL d   1     -34.032  58.723  43.821  0.00  0.00     0.028 H 
ATOM     68  H17 VAL d   1     -33.590  57.054  44.314  0.00  0.00     0.028 H 
ATOM     69  H18 VAL d   1     -35.259  57.659  44.589  0.00  0.00     0.028 H 
ENDBRANCH  64  66
BRANCH  64  70
ATOM     70  CG2 VAL d   1     -33.615  57.236  41.596  0.00  0.00    -0.071 C 
ATOM     71  H19 VAL d   1     -33.909  56.865  40.603  0.00  0.00     0.028 H 
ATOM     72  H20 VAL d   1     -32.801  56.612  41.994  0.00  0.00     0.028 H 
ATOM     73  H21 VAL d   1     -33.271  58.277  41.511  0.00  0.00     0.028 H 
ENDBRANCH  64  70
ENDBRANCH  37  64
ENDBRANCH  34  37
ENDBRANCH  31  33
BRANCH  31  74
ATOM     74  CB  LEU d   1     -39.222  55.678  40.297  0.00  0.00    -0.035 C 
ATOM     75  H24 LEU d   1     -39.759  55.261  39.432  0.00  0.00     0.037 H 
ATOM     76  H25 LEU d   1     -39.777  56.541  40.692  0.00  0.00     0.037 H 
BRANCH  74  77
ATOM     77  CG  LEU d   1     -39.136  54.605  41.389  0.00  0.00    -0.059 C 
ATOM     78  H26 LEU d   1     -38.378  54.934  42.115  0.00  0.00     0.038 H 
BRANCH  77  79
ATOM     79  CD1 LEU d   1     -40.464  54.400  42.123  0.00  0.00    -0.073 C 
ATOM     80  H27 LEU d   1     -40.342  53.622  42.891  0.00  0.00     0.028 H 
ATOM     81  H28 LEU d   1     -41.236  54.087  41.404  0.00  0.00     0.028 H 
ATOM     82  H29 LEU d   1     -40.768  55.343  42.601  0.00  0.00     0.028 H 
ENDBRANCH  77  79
BRANCH  77  83
ATOM     83  CD2 LEU d   1     -38.731  53.233  40.846  0.00  0.00    -0.073 C 
ATOM     84  H30 LEU d   1     -37.777  53.320  40.305  0.00  0.00     0.028 H 
ATOM     85  H31 LEU d   1     -39.509  52.866  40.160  0.00  0.00     0.028 H 
ATOM     86  H32 LEU d   1     -38.616  52.527  41.682  0.00  0.00     0.028 H 
ENDBRANCH  77  83
ENDBRANCH  74  77
ENDBRANCH  31  74
ENDBRANCH  28  31
ENDBRANCH  25  27
BRANCH  25  87
ATOM     87  CB  GLN d   1     -37.680  57.835  35.403  0.00  0.00    -0.030 C 
ATOM     88  H35 GLN d   1     -38.351  57.008  35.128  0.00  0.00     0.037 H 
ATOM     89  H36 GLN d   1     -36.649  57.461  35.481  0.00  0.00     0.037 H 
BRANCH  87  90
ATOM     90  CG  GLN d   1     -37.735  58.898  34.305  0.00  0.00     0.011 C 
ATOM     91  H37 GLN d   1     -38.622  59.532  34.452  0.00  0.00     0.047 H 
ATOM     92  H38 GLN d   1     -37.794  58.407  33.322  0.00  0.00     0.047 H 
BRANCH  90  93
ATOM     93  CD  GLN d   1     -36.489  59.752  34.368  0.00  0.00     0.215 C 
ATOM     94  OE1 GLN d   1     -35.399  59.364  33.985  0.00  0.00    -0.274 OA
ATOM     95  NE2 GLN d   1     -36.698  60.978  34.887  0.00  0.00    -0.370 N 
ATOM     96  H39 GLN d   1     -35.937  61.621  34.972  0.00  0.00     0.159 HD
ATOM     97  H40 GLN d   1     -37.614  61.245  35.187  0.00  0.00     0.159 HD
ENDBRANCH  90  93
ENDBRANCH  87  90
ENDBRANCH  25  87
ENDBRANCH  22  25
ENDBRANCH  19  21
BRANCH  19  98
ATOM     98  CB  LYS d   1     -40.355  62.524  37.699  0.00  0.00    -0.038 C 
ATOM     99  H43 LYS d   1     -40.994  63.327  37.304  0.00  0.00     0.036 H 
ATOM    100  H44 LYS d   1     -39.308  62.860  37.708  0.00  0.00     0.036 H 
BRANCH  98 101
ATOM    101  CG  LYS d   1     -40.793  62.192  39.144  0.00  0.00    -0.061 C 
ATOM    102  H45 LYS d   1     -40.857  63.127  39.720  0.00  0.00     0.033 H 
ATOM    103  H46 LYS d   1     -40.042  61.531  39.600  0.00  0.00     0.033 H 
BRANCH 101 104
ATOM    104  CD  LYS d   1     -42.177  61.482  39.182  0.00  0.00    -0.043 C 
ATOM    105  H47 LYS d   1     -42.014  60.415  39.394  0.00  0.00     0.035 H 
ATOM    106  H48 LYS d   1     -42.650  61.591  38.195  0.00  0.00     0.035 H 
BRANCH 104 107
ATOM    107  CE  LYS d   1     -43.132  62.044  40.240  0.00  0.00     0.080 C 
ATOM    108  H49 LYS d   1     -42.553  62.287  41.143  0.00  0.00     0.075 H 
ATOM    109  H50 LYS d   1     -43.882  61.276  40.480  0.00  0.00     0.075 H 
BRANCH 107 110
ATOM    110  NZ  LYS d   1     -43.838  63.273  39.782  0.00  0.00    -0.079 N 
ATOM    111  H51 LYS d   1     -44.451  63.600  40.512  0.00  0.00     0.274 HD
ATOM    112  H52 LYS d   1     -44.379  63.062  38.958  0.00  0.00     0.274 HD
ATOM    113  H53 LYS d   1     -43.161  63.988  39.566  0.00  0.00     0.274 HD
ENDBRANCH 107 110
ENDBRANCH 104 107
ENDBRANCH 101 104
ENDBRANCH  98 101
ENDBRANCH  19  98
ENDBRANCH  16  19
ENDBRANCH  13  15
BRANCH  13 114
ATOM    114  CB  LYS d   1     -43.259  62.117  32.922  0.00  0.00    -0.038 C 
ATOM    115  H56 LYS d   1     -43.161  62.173  31.828  0.00  0.00     0.036 H 
ATOM    116  H57 LYS d   1     -44.084  62.766  33.250  0.00  0.00     0.036 H 
BRANCH 114 117
ATOM    117  CG  LYS d   1     -43.588  60.701  33.299  0.00  0.00    -0.061 C 
ATOM    118  H58 LYS d   1     -44.422  60.709  34.016  0.00  0.00     0.033 H 
ATOM    119  H59 LYS d   1     -42.705  60.244  33.769  0.00  0.00     0.033 H 
BRANCH 117 120
ATOM    120  CD  LYS d   1     -43.989  59.865  32.086  0.00  0.00    -0.043 C 
ATOM    121  H60 LYS d   1     -43.662  58.827  32.243  0.00  0.00     0.035 H 
ATOM    122  H61 LYS d   1     -43.497  60.273  31.191  0.00  0.00     0.035 H 
BRANCH 120 123
ATOM    123  CE  LYS d   1     -45.495  59.883  31.875  0.00  0.00     0.080 C 
ATOM    124  H62 LYS d   1     -45.729  60.527  31.015  0.00  0.00     0.075 H 
ATOM    125  H63 LYS d   1     -45.979  60.286  32.777  0.00  0.00     0.075 H 
BRANCH 123 126
ATOM    126  NZ  LYS d   1     -46.019  58.517  31.614  0.00  0.00    -0.079 N 
ATOM    127  H64 LYS d   1     -47.017  58.560  31.479  0.00  0.00     0.274 HD
ATOM    128  H65 LYS d   1     -45.812  57.922  32.401  0.00  0.00     0.274 HD
ATOM    129  H66 LYS d   1     -45.583  58.143  30.786  0.00  0.00     0.274 HD
ENDBRANCH 123 126
ENDBRANCH 120 123
ENDBRANCH 117 120
ENDBRANCH 114 117
ENDBRANCH  13 114
ENDBRANCH  10  13
ENDBRANCH   7   9
BRANCH   7 130
ATOM    130  CB  ILE d   1     -40.875  66.606  31.000  0.00  0.00    -0.030 C 
ATOM    131  H69 ILE d   1     -39.971  65.991  30.875  0.00  0.00     0.043 H 
BRANCH 130 132
ATOM    132  CG1 ILE d   1     -40.450  68.050  31.159  0.00  0.00    -0.063 C 
ATOM    133  H70 ILE d   1     -40.972  68.496  32.018  0.00  0.00     0.033 H 
ATOM    134  H71 ILE d   1     -40.700  68.611  30.247  0.00  0.00     0.033 H 
BRANCH 132 135
ATOM    135  CD1 ILE d   1     -38.953  68.098  31.392  0.00  0.00    -0.076 C 
ATOM    136  H75 ILE d   1     -38.633  69.144  31.509  0.00  0.00     0.027 H 
ATOM    137  H76 ILE d   1     -38.434  67.650  30.532  0.00  0.00     0.027 H 
ATOM    138  H77 ILE d   1     -38.706  67.535  32.304  0.00  0.00     0.027 H 
ENDBRANCH 132 135
ENDBRANCH 130 132
BRANCH 130 139
ATOM    139  CG2 ILE d   1     -41.724  66.427  29.767  0.00  0.00    -0.071 C 
ATOM    140  H72 ILE d   1     -42.019  65.371  29.675  0.00  0.00     0.028 H 
ATOM    141  H73 ILE d   1     -41.148  66.726  28.879  0.00  0.00     0.028 H 
ATOM    142  H74 ILE d   1     -42.625  67.053  29.848  0.00  0.00     0.028 H 
ENDBRANCH 130 139
ENDBRANCH   7 130
ENDBRANCH   4   7
ENDBRANCH   1   3
BRANCH   1 143
ATOM    143  C   THR d   1     -45.753  66.590  33.833  0.00  0.00     0.243 C 
ATOM    144  O   THR d   1     -46.648  67.374  34.131  0.00  0.00    -0.271 OA
ATOM    145  N   ASP d   1     -45.133  65.869  34.765  0.00  0.00    -0.345 N 
ATOM    146  H85 ASP d   1     -44.471  65.167  34.502  0.00  0.00     0.163 HD
BRANCH 145 147
ATOM    147  CA  ASP d   1     -45.431  66.115  36.192  0.00  0.00     0.098 C 
ATOM    148  H86 ASP d   1     -46.528  66.101  36.278  0.00  0.00     0.088 H 
BRANCH 147 149
ATOM    149  C   ASP d   1     -44.967  67.483  36.691  0.00  0.00     0.241 C 
ATOM    150  O   ASP d   1     -45.066  67.740  37.876  0.00  0.00    -0.271 OA
ATOM    151  N   TYR d   1     -44.426  68.335  35.824  0.00  0.00    -0.346 N 
ATOM    152  H89 TYR d   1     -44.469  68.124  34.848  0.00  0.00     0.163 HD
BRANCH 151 153
ATOM    153  CA  TYR d   1     -43.767  69.576  36.253  0.00  0.00     0.093 C 
ATOM    154  H90 TYR d   1     -44.084  69.797  37.283  0.00  0.00     0.088 H 
BRANCH 153 155
ATOM    155  C   TYR d   1     -44.186  70.714  35.332  0.00  0.00     0.241 C 
ATOM    156  O   TYR d   1     -44.194  71.865  35.771  0.00  0.00    -0.271 OA
ATOM    157  N   PHE d   1     -44.450  70.409  34.059  0.00  0.00    -0.346 N 
ATOM    158  H98 PHE d   1     -44.407  69.451  33.775  0.00  0.00     0.163 HD
BRANCH 157 159
ATOM    159  CA  PHE d   1     -44.800  71.425  33.061  0.00  0.00     0.093 C 
ATOM    160  H99 PHE d   1     -44.858  72.402  33.562  0.00  0.00     0.088 H 
BRANCH 159 161
ATOM    161  C   PHE d   1     -46.144  71.069  32.468  0.00  0.00     0.241 C 
ATOM    162  O   PHE d   1     -46.388  69.914  32.092  0.00  0.00    -0.271 OA
ATOM    163  N   HIS d   1     -47.049  71.918  32.449  0.00  0.00    -0.346 N 
ATOM    164 7H10 HIS d   1     -46.801  72.849  32.717  0.00  0.00     0.163 HD
BRANCH 163 165
ATOM    165  CA  HIS d   1     -48.439  71.688  32.073  0.00  0.00     0.094 C 
ATOM    166 8H10 HIS d   1     -48.572  70.627  31.815  0.00  0.00     0.088 H 
BRANCH 165 167
ATOM    167  C   HIS d   1     -48.843  72.540  30.870  0.00  0.00     0.243 C 
ATOM    168  O   HIS d   1     -48.250  73.570  30.569  0.00  0.00    -0.271 OA
ATOM    169  N   PRO d   1     -49.859  72.048  30.137  0.00  0.00    -0.337 N 
ATOM    170  CA  PRO d   1     -50.395  72.757  28.991  0.00  0.00     0.091 C 
ATOM    171  CD  PRO d   1     -50.586  70.798  30.320  0.00  0.00    -0.001 C 
ATOM    172  CB  PRO d   1     -51.795  72.210  28.751  0.00  0.00    -0.036 C 
ATOM    173 4H11 PRO d   1     -49.768  72.550  28.111  0.00  0.00     0.087 H 
ATOM    174  CG  PRO d   1     -51.798  70.772  29.269  0.00  0.00    -0.048 C 
ATOM    175 5H11 PRO d   1     -52.030  72.227  27.677  0.00  0.00     0.036 H 
ATOM    176 6H11 PRO d   1     -52.536  72.812  29.298  0.00  0.00     0.036 H 
ATOM    177 7H11 PRO d   1     -51.609  70.054  28.458  0.00  0.00     0.035 H 
ATOM    178 8H11 PRO d   1     -52.750  70.526  29.762  0.00  0.00     0.035 H 
ATOM    179 9H11 PRO d   1     -50.980  70.742  31.346  0.00  0.00     0.064 H 
ATOM    180 0H12 PRO d   1     -49.915  69.946  30.137  0.00  0.00     0.064 H 
BRANCH 170 181
ATOM    181  C   PRO d   1     -50.420  74.274  29.219  0.00  0.00     0.241 C 
ATOM    182  O   PRO d   1     -50.522  74.771  30.335  0.00  0.00    -0.271 OA
ATOM    183  N   LYS d   1     -50.267  75.010  28.101  0.00  0.00    -0.346 N 
ATOM    184 1H12 LYS d   1     -50.243  74.561  27.208  0.00  0.00     0.163 HD
BRANCH 183 185
ATOM    185  CA  LYS d   1     -50.136  76.460  28.189  0.00  0.00     0.089 C 
ATOM    186 2H12 LYS d   1     -49.328  76.697  28.897  0.00  0.00     0.087 H 
BRANCH 185 187
ATOM    187  C   LYS d   1     -51.419  77.129  28.686  0.00  0.00     0.241 C 
ATOM    188  O   LYS d   1     -52.483  77.046  28.084  0.00  0.00    -0.271 OA
ATOM    189  N   LYS d   1     -51.289  77.783  29.857  0.00  0.00    -0.345 N 
ATOM    190 4H13 LYS d   1     -50.407  77.791  30.328  0.00  0.00     0.163 HD
BRANCH 189 191
ATOM    191  CA  LYS d   1     -52.429  78.479  30.441  0.00  0.00     0.096 C 
ATOM    192 5H13 LYS d   1     -52.874  77.846  31.223  0.00  0.00     0.089 H 
BRANCH 191 193
ATOM    193  C   LYS d   1     -53.499  78.789  29.393  0.00  0.00     0.196 C 
ATOM    194  O   LYS d   1     -54.602  78.258  29.418  0.00  0.00    -0.646 OA
ATOM    195  OXT LYS d   1     -53.301  79.583  28.481  0.00  0.00    -0.646 OA
ENDBRANCH 191 193
BRANCH 191 196
ATOM    196  CB  LYS d   1     -51.925  79.780  31.066  0.00  0.00    -0.037 C 
ATOM    197 6H13 LYS d   1     -52.769  80.480  31.155  0.00  0.00     0.036 H 
ATOM    198 7H13 LYS d   1     -51.157  80.214  30.409  0.00  0.00     0.036 H 
BRANCH 196 199
ATOM    199  CG  LYS d   1     -51.320  79.559  32.452  0.00  0.00    -0.061 C 
ATOM    200 8H13 LYS d   1     -52.126  79.290  33.151  0.00  0.00     0.033 H 
ATOM    201 9H13 LYS d   1     -50.843  80.493  32.783  0.00  0.00     0.033 H 
BRANCH 199 202
ATOM    202  CD  LYS d   1     -50.273  78.444  32.455  0.00  0.00    -0.043 C 
ATOM    203 0H14 LYS d   1     -50.595  77.656  31.758  0.00  0.00     0.035 H 
ATOM    204 1H14 LYS d   1     -50.203  78.029  33.471  0.00  0.00     0.035 H 
BRANCH 202 205
ATOM    205  CE  LYS d   1     -48.885  78.939  32.030  0.00  0.00     0.080 C 
ATOM    206 2H14 LYS d   1     -48.317  78.104  31.593  0.00  0.00     0.075 H 
ATOM    207 3H14 LYS d   1     -48.350  79.327  32.909  0.00  0.00     0.075 H 
BRANCH 205 208
ATOM    208  NZ  LYS d   1     -49.025  80.003  31.038  0.00  0.00    -0.079 N 
ATOM    209 4H14 LYS d   1     -48.111  80.326  30.761  0.00  0.00     0.274 HD
ATOM    210 5H14 LYS d   1     -49.545  80.769  31.437  0.00  0.00     0.274 HD
ATOM    211 6H14 LYS d   1     -49.515  79.648  30.232  0.00  0.00     0.274 HD
ENDBRANCH 205 208
ENDBRANCH 202 205
ENDBRANCH 199 202
ENDBRANCH 196 199
ENDBRANCH 191 196
ENDBRANCH 189 191
ENDBRANCH 185 187
BRANCH 185 212
ATOM    212  CB  LYS d   1     -49.759  76.995  26.806  0.00  0.00    -0.038 C 
ATOM    213 3H12 LYS d   1     -50.570  77.646  26.446  0.00  0.00     0.036 H 
ATOM    214 4H12 LYS d   1     -49.639  76.144  26.119  0.00  0.00     0.036 H 
BRANCH 212 215
ATOM    215  CG  LYS d   1     -48.455  77.799  26.826  0.00  0.00    -0.061 C 
ATOM    216 5H12 LYS d   1     -48.108  77.935  25.791  0.00  0.00     0.033 H 
ATOM    217 6H12 LYS d   1     -47.701  77.236  27.395  0.00  0.00     0.033 H 
BRANCH 215 218
ATOM    218  CD  LYS d   1     -48.630  79.177  27.471  0.00  0.00    -0.043 C 
ATOM    219 7H12 LYS d   1     -47.772  79.367  28.133  0.00  0.00     0.035 H 
ATOM    220 8H12 LYS d   1     -49.557  79.173  28.064  0.00  0.00     0.035 H 
BRANCH 218 221
ATOM    221  CE  LYS d   1     -48.713  80.310  26.438  0.00  0.00     0.080 C 
ATOM    222 9H12 LYS d   1     -49.596  80.932  26.648  0.00  0.00     0.075 H 
ATOM    223 0H13 LYS d   1     -48.799  79.879  25.430  0.00  0.00     0.075 H 
BRANCH 221 224
ATOM    224  NZ  LYS d   1     -47.509  81.136  26.512  0.00  0.00    -0.079 N 
ATOM    225 1H13 LYS d   1     -47.568  81.878  25.832  0.00  0.00     0.274 HD
ATOM    226 2H13 LYS d   1     -46.699  80.568  26.319  0.00  0.00     0.274 HD
ATOM    227 3H13 LYS d   1     -47.429  81.532  27.436  0.00  0.00     0.274 HD
ENDBRANCH 221 224
ENDBRANCH 218 221
ENDBRANCH 215 218
ENDBRANCH 212 215
ENDBRANCH 185 212
ENDBRANCH 183 185
ENDBRANCH 170 181
ENDBRANCH 165 167
BRANCH 165 228
ATOM    228  CB  HIS d   1     -49.318  72.033  33.277  0.00  0.00     0.002 C 
ATOM    229 9H10 HIS d   1     -50.378  71.963  32.990  0.00  0.00     0.046 H 
ATOM    230 0H11 HIS d   1     -49.096  73.057  33.612  0.00  0.00     0.046 H 
BRANCH 228 231
ATOM    231  CG  HIS d   1     -49.036  71.065  34.396  0.00  0.00     0.030 A 
ATOM    232  ND1 HIS d   1     -48.627  69.789  34.193  0.00  0.00    -0.353 N 
ATOM    233  CE1 HIS d   1     -48.471  69.256  35.420  0.00  0.00     0.063 A 
ATOM    234 1H11 HIS d   1     -48.468  69.323  33.288  0.00  0.00     0.166 HD
ATOM    235  NE2 HIS d   1     -48.761  70.128  36.387  0.00  0.00    -0.254 NA
ATOM    236 3H11 HIS d   1     -48.146  68.233  35.602  0.00  0.00     0.143 H 
ATOM    237  CD2 HIS d   1     -49.123  71.285  35.776  0.00  0.00     0.025 A 
ATOM    238 2H11 HIS d   1     -49.424  72.210  36.267  0.00  0.00     0.117 H 
ENDBRANCH 228 231
ENDBRANCH 165 228
ENDBRANCH 163 165
ENDBRANCH 159 161
BRANCH 159 239
ATOM    239  CB  PHE d   1     -43.802  71.526  31.888  0.00  0.00    -0.014 C 
ATOM    240 0H10 PHE d   1     -44.189  72.262  31.168  0.00  0.00     0.043 H 
ATOM    241 1H10 PHE d   1     -43.736  70.540  31.405  0.00  0.00     0.043 H 
BRANCH 239 242
ATOM    242  CG  PHE d   1     -42.412  71.948  32.295  0.00  0.00    -0.056 A 
ATOM    243  CD1 PHE d   1     -41.300  71.500  31.603  0.00  0.00    -0.077 A 
ATOM    244  CE1 PHE d   1     -40.035  71.882  31.984  0.00  0.00    -0.082 A 
ATOM    245 2H10 PHE d   1     -41.428  70.841  30.752  0.00  0.00     0.084 H 
ATOM    246  CZ  PHE d   1     -39.855  72.684  33.091  0.00  0.00    -0.083 A 
ATOM    247 4H10 PHE d   1     -39.176  71.551  31.412  0.00  0.00     0.083 H 
ATOM    248  CE2 PHE d   1     -40.938  73.123  33.787  0.00  0.00    -0.082 A 
ATOM    249 6H10 PHE d   1     -38.856  72.963  33.405  0.00  0.00     0.083 H 
ATOM    250  CD2 PHE d   1     -42.215  72.760  33.388  0.00  0.00    -0.077 A 
ATOM    251 5H10 PHE d   1     -40.802  73.758  34.655  0.00  0.00     0.083 H 
ATOM    252 3H10 PHE d   1     -43.071  73.121  33.946  0.00  0.00     0.084 H 
ENDBRANCH 239 242
ENDBRANCH 159 239
ENDBRANCH 157 159
ENDBRANCH 153 155
BRANCH 153 253
ATOM    253  CB  TYR d   1     -42.223  69.507  36.212  0.00  0.00    -0.014 C 
ATOM    254  H91 TYR d   1     -41.841  70.489  36.526  0.00  0.00     0.043 H 
ATOM    255  H92 TYR d   1     -41.929  69.315  35.169  0.00  0.00     0.043 H 
BRANCH 253 256
ATOM    256  CG  TYR d   1     -41.543  68.454  37.079  0.00  0.00    -0.056 A 
ATOM    257  CD1 TYR d   1     -41.429  67.118  36.664  0.00  0.00    -0.074 A 
ATOM    258  CE1 TYR d   1     -40.788  66.150  37.480  0.00  0.00    -0.051 A 
ATOM    259  H93 TYR d   1     -41.837  66.821  35.705  0.00  0.00     0.084 H 
ATOM    260  CZ  TYR d   1     -40.243  66.547  38.689  0.00  0.00     0.065 A 
ATOM    261  H95 TYR d   1     -40.726  65.116  37.161  0.00  0.00     0.087 H 
ATOM    262  CE2 TYR d   1     -40.296  67.869  39.087  0.00  0.00    -0.051 A 
ATOM    263  CD2 TYR d   1     -40.923  68.816  38.273  0.00  0.00    -0.074 A 
ATOM    264  H96 TYR d   1     -39.852  68.171  40.029  0.00  0.00     0.087 H 
ATOM    265  H94 TYR d   1     -40.927  69.856  38.578  0.00  0.00     0.084 H 
BRANCH 260 266
ATOM    266  OH  TYR d   1     -39.643  65.652  39.528  0.00  0.00    -0.361 OA
ATOM    267  H97 TYR d   1     -39.673  64.786  39.139  0.00  0.00     0.217 HD
ENDBRANCH 260 266
ENDBRANCH 253 256
ENDBRANCH 153 253
ENDBRANCH 151 153
ENDBRANCH 147 149
BRANCH 147 268
ATOM    268  CB  ASP d   1     -44.898  65.021  37.135  0.00  0.00     0.043 C 
ATOM    269  H87 ASP d   1     -45.487  65.042  38.064  0.00  0.00     0.052 H 
ATOM    270  H88 ASP d   1     -43.845  65.240  37.364  0.00  0.00     0.052 H 
BRANCH 268 271
ATOM    271  CG  ASP d   1     -44.984  63.619  36.537  0.00  0.00     0.175 C 
ATOM    272  OD1 ASP d   1     -46.052  63.255  36.013  0.00  0.00    -0.648 OA
ATOM    273  OD2 ASP d   1     -44.054  62.778  36.557  0.00  0.00    -0.648 OA
ENDBRANCH 268 271
ENDBRANCH 147 268
ENDBRANCH 145 147
ENDBRANCH   1 143
BRANCH   1 274
ATOM    274  CB  THR d   1     -46.363  65.447  31.739  0.00  0.00     0.060 C 
ATOM    275  H80 THR d   1     -47.394  65.802  31.887  0.00  0.00     0.086 H 
BRANCH 274 276
ATOM    276  OG1 THR d   1     -46.171  64.150  32.313  0.00  0.00    -0.393 OA
ATOM    277  H81 THR d   1     -46.781  63.537  31.919  0.00  0.00     0.210 HD
ENDBRANCH 274 276
BRANCH 274 278
ATOM    278  CG2 THR d   1     -46.079  65.204  30.256  0.00  0.00    -0.050 C 
ATOM    279  H82 THR d   1     -46.806  64.482  29.857  0.00  0.00     0.031 H 
ATOM    280  H83 THR d   1     -45.062  64.803  30.138  0.00  0.00     0.031 H 
ATOM    281  H84 THR d   1     -46.165  66.153  29.706  0.00  0.00     0.031 H 
ENDBRANCH 274 278
ENDBRANCH   1 274
TORSDOF 80
