REMARK  4 active torsions:
REMARK  status: ('A' for Active; 'I' for Inactive)
REMARK    1  A    between atoms: C3_3  and  C4_4 
REMARK    2  A    between atoms: C6_6  and  N9_9 
REMARK       I    between atoms: N9_9  and  C10_10 
REMARK    3  A    between atoms: C10_10  and  C11_11 
REMARK    4  A    between atoms: C11_11  and  C12_12 
ROOT
ATOM      1  C11 292 d   1      -7.973 207.868 112.769  0.00  0.00     0.033 C 
ATOM      2  H9  292 d   1      -8.100 208.577 113.600  0.00  0.00     0.054 H 
ATOM      3  H10 292 d   1      -7.754 208.422 111.844  0.00  0.00     0.054 H 
ENDROOT
BRANCH   1   4
ATOM      4  C10 292 d   1      -9.281 207.070 112.582  0.00  0.00     0.227 C 
ATOM      5  N9  292 d   1      -9.777 207.022 111.332  0.00  0.00    -0.310 N 
ATOM      6  H8  292 d   1      -9.225 207.516 110.660  0.00  0.00     0.170 HD
ATOM      7  O22 292 d   1      -9.808 206.527 113.557  0.00  0.00    -0.273 OA
BRANCH   5   8
ATOM      8  C6  292 d   1     -10.966 206.388 110.768  0.00  0.00     0.152 A 
ATOM      9  C5  292 d   1     -11.904 205.635 111.473  0.00  0.00    -0.013 A 
ATOM     10  C4  292 d   1     -12.862 205.249 110.546  0.00  0.00     0.035 A 
ATOM     11  H6  292 d   1     -11.888 205.398 112.536  0.00  0.00     0.092 H 
ATOM     12  N8  292 d   1     -12.487 205.765 109.327  0.00  0.00    -0.280 N 
ATOM     13  N7  292 d   1     -11.345 206.453 109.449  0.00  0.00    -0.156 NA
ATOM     14  H7  292 d   1     -13.009 205.640 108.448  0.00  0.00     0.189 HD
BRANCH  10  15
ATOM     15  C3  292 d   1     -14.137 204.399 110.765  0.00  0.00    -0.012 A 
ATOM     16  C1  292 d   1     -14.288 203.630 112.078  0.00  0.00    -0.056 A 
ATOM     17  C2  292 d   1     -15.116 204.888 111.832  0.00  0.00    -0.056 A 
ATOM     18  H1  292 d   1     -14.775 202.644 112.085  0.00  0.00     0.034 H 
ATOM     19  H2  292 d   1     -13.475 203.643 112.819  0.00  0.00     0.034 H 
ATOM     20  H3  292 d   1     -14.900 205.807 112.396  0.00  0.00     0.034 H 
ATOM     21  H4  292 d   1     -16.200 204.808 111.662  0.00  0.00     0.034 H 
ATOM     22  H5  292 d   1     -14.490 203.970 109.816  0.00  0.00     0.049 H 
ENDBRANCH  10  15
ENDBRANCH   5   8
ENDBRANCH   1   4
BRANCH   1  23
ATOM     23  C12 292 d   1      -6.806 206.937 113.081  0.00  0.00    -0.049 A 
ATOM     24  C13 292 d   1      -5.976 206.461 112.028  0.00  0.00    -0.066 A 
ATOM     25  C14 292 d   1      -4.902 205.587 112.316  0.00  0.00    -0.025 A 
ATOM     26  H11 292 d   1      -6.167 206.768 111.006  0.00  0.00     0.085 H 
ATOM     27  C15 292 d   1      -4.648 205.182 113.733  0.00  0.00    -0.026 A 
ATOM     28  C19 292 d   1      -4.055 205.093 111.291  0.00  0.00    -0.072 A 
ATOM     29  C16 292 d   1      -5.494 205.673 114.754  0.00  0.00    -0.072 A 
ATOM     30  C18 292 d   1      -3.567 204.302 114.023  0.00  0.00    -0.072 A 
ATOM     31  C17 292 d   1      -6.560 206.542 114.432  0.00  0.00    -0.076 A 
ATOM     32  H12 292 d   1      -5.324 205.382 115.784  0.00  0.00     0.084 H 
ATOM     33  H13 292 d   1      -7.202 206.915 115.222  0.00  0.00     0.084 H 
ATOM     34  C21 292 d   1      -2.742 203.828 112.967  0.00  0.00    -0.082 A 
ATOM     35  H14 292 d   1      -3.374 203.995 115.044  0.00  0.00     0.084 H 
ATOM     36  C20 292 d   1      -2.983 204.216 111.619  0.00  0.00    -0.082 A 
ATOM     37  H17 292 d   1      -1.917 203.161 113.192  0.00  0.00     0.083 H 
ATOM     38  H16 292 d   1      -2.341 203.838 110.831  0.00  0.00     0.083 H 
ATOM     39  H15 292 d   1      -4.224 205.383 110.260  0.00  0.00     0.084 H 
ENDBRANCH   1  23
TORSDOF 4
