REMARK  3 active torsions:
REMARK  status: ('A' for Active; 'I' for Inactive)
REMARK    1  A    between atoms: C1_1  and  C2_2 
REMARK    2  A    between atoms: C7_7  and  N9_9 
REMARK       I    between atoms: N9_9  and  C10_10 
REMARK    3  A    between atoms: C10_10  and  C11_11 
ROOT
ATOM      1  C1  N5B d   1      13.346  45.833  22.176  0.00  0.00     0.035 A 
ATOM      2  C3  N5B d   1      12.694  45.987  23.394  0.00  0.00    -0.013 A 
ATOM      3  N4  N5B d   1      12.615  46.525  21.228  0.00  0.00    -0.280 N 
ATOM      4  C7  N5B d   1      11.569  46.776  23.146  0.00  0.00     0.152 A 
ATOM      5  N8  N5B d   1      11.536  47.100  21.809  0.00  0.00    -0.156 NA
ATOM      6  H2  N5B d   1      13.001  45.573  24.354  0.00  0.00     0.092 H 
ATOM      7  H3  N5B d   1      12.856  46.593  20.229  0.00  0.00     0.189 HD
ENDROOT
BRANCH   4   8
ATOM      8  N9  N5B d   1      10.593  47.182  24.154  0.00  0.00    -0.306 N 
ATOM      9  C10 N5B d   1      10.241  46.632  25.347  0.00  0.00     0.257 C 
ATOM     10  O12 N5B d   1      10.879  45.668  25.805  0.00  0.00    -0.267 OA
ATOM     11  H8  N5B d   1      10.092  48.017  23.925  0.00  0.00     0.170 HD
BRANCH   9  12
ATOM     12  C11 N5B d   1       9.063  47.238  26.121  0.00  0.00     0.032 A 
ATOM     13  C13 N5B d   1       8.347  46.392  27.038  0.00  0.00    -0.068 A 
ATOM     14  C15 N5B d   1       7.272  46.896  27.819  0.00  0.00    -0.082 A 
ATOM     15  H9  N5B d   1       8.633  45.351  27.135  0.00  0.00     0.085 H 
ATOM     16  C17 N5B d   1       6.890  48.251  27.699  0.00  0.00    -0.083 A 
ATOM     17  H11 N5B d   1       6.746  46.242  28.505  0.00  0.00     0.083 H 
ATOM     18  C16 N5B d   1       7.573  49.111  26.804  0.00  0.00    -0.082 A 
ATOM     19  H13 N5B d   1       6.070  48.635  28.295  0.00  0.00     0.083 H 
ATOM     20  C14 N5B d   1       8.647  48.613  26.022  0.00  0.00    -0.068 A 
ATOM     21  H12 N5B d   1       7.275  50.150  26.717  0.00  0.00     0.083 H 
ATOM     22  H10 N5B d   1       9.163  49.278  25.339  0.00  0.00     0.085 H 
ENDBRANCH   9  12
ENDBRANCH   4   8
BRANCH   1  23
ATOM     23  C2  N5B d   1      14.638  45.046  21.882  0.00  0.00    -0.012 A 
ATOM     24  C5  N5B d   1      15.776  45.266  22.896  0.00  0.00    -0.056 A 
ATOM     25  C6  N5B d   1      15.254  43.853  22.549  0.00  0.00    -0.056 A 
ATOM     26  H4  N5B d   1      15.565  45.710  23.880  0.00  0.00     0.034 H 
ATOM     27  H5  N5B d   1      16.770  45.590  22.553  0.00  0.00     0.034 H 
ATOM     28  H6  N5B d   1      15.884  43.164  21.967  0.00  0.00     0.034 H 
ATOM     29  H7  N5B d   1      14.678  43.283  23.294  0.00  0.00     0.034 H 
ATOM     30  H1  N5B d   1      14.828  45.132  20.802  0.00  0.00     0.049 H 
ENDBRANCH   1  23
TORSDOF 3
