REMARK  8 active torsions:
REMARK  status: ('A' for Active; 'I' for Inactive)
REMARK    1  A    between atoms: N_1  and  C3_10 
REMARK    2  A    between atoms: N5_15  and  C1_6 
REMARK    3  A    between atoms: C2_8  and  N4_11 
REMARK    4  A    between atoms: N4_11  and  C4_12 
REMARK    5  A    between atoms: C4_12  and  C5_13 
REMARK    6  A    between atoms: C5_13  and  O_14 
REMARK    7  A    between atoms: C6_16  and  N5_15 
REMARK    8  A    between atoms: C12_22  and  C6_16 
ROOT
ATOM      1  N   OLO d   1     107.084 100.257  81.141  0.00  0.00    -0.328 N 
ATOM      2  C   OLO d   1     108.000 100.948  80.336  0.00  0.00     0.068 A 
ATOM      3  N1  OLO d   1     107.458 101.374  79.199  0.00  0.00    -0.236 NA
ATOM      4  C3A OLO d   1     106.135 100.911  79.246  0.00  0.00     0.150 A 
ATOM      5  C7A OLO d   1     105.895 100.266  80.427  0.00  0.00     0.182 A 
ATOM      6  C1  OLO d   1     105.044 100.968  78.358  0.00  0.00     0.176 C 
ATOM      7  N2  OLO d   1     103.947 100.312  78.675  0.00  0.00    -0.043 NA
ATOM      8  C2  OLO d   1     103.707  99.752  79.865  0.00  0.00     0.726 C 
ATOM      9  N3  OLO d   1     104.674  99.732  80.819  0.00  0.00    -0.042 NA
ATOM     10  H1  OLO d   1     109.040 101.117  80.611  0.00  0.00     0.143 H 
ENDROOT
BRANCH   6  11
ATOM     11  N5  OLO d   1     105.029 101.676  77.200  0.00  0.00    -0.368 N 
ATOM     12  H11 OLO d   1     105.715 102.426  77.034  0.00  0.00     0.161 HD
BRANCH  11  13
ATOM     13  C6  OLO d   1     104.008 101.350  76.180  0.00  0.00     0.018 C 
ATOM     14  H12 OLO d   1     103.651 100.323  76.350  0.00  0.00     0.071 H 
ATOM     15  H13 OLO d   1     104.468 101.418  75.183  0.00  0.00     0.071 H 
BRANCH  13  16
ATOM     16  C12 OLO d   1     102.889 102.243  76.234  0.00  0.00    -0.041 A 
ATOM     17  C7  OLO d   1     101.624 101.724  76.551  0.00  0.00    -0.075 A 
ATOM     18  C8  OLO d   1     100.460 102.547  76.507  0.00  0.00    -0.082 A 
ATOM     19  H14 OLO d   1     101.530 100.682  76.834  0.00  0.00     0.084 H 
ATOM     20  C9  OLO d   1     100.627 103.874  76.143  0.00  0.00    -0.083 A 
ATOM     21  H15 OLO d   1      99.481 102.150  76.749  0.00  0.00     0.083 H 
ATOM     22  C10 OLO d   1     101.952 104.368  75.839  0.00  0.00    -0.082 A 
ATOM     23  H16 OLO d   1      99.771 104.537  76.087  0.00  0.00     0.083 H 
ATOM     24  C11 OLO d   1     103.067 103.527  75.896  0.00  0.00    -0.075 A 
ATOM     25  H17 OLO d   1     102.082 105.408  75.562  0.00  0.00     0.083 H 
ATOM     26  H18 OLO d   1     104.057 103.907  75.671  0.00  0.00     0.084 H 
ENDBRANCH  13  16
ENDBRANCH  11  13
ENDBRANCH   6  11
BRANCH   8  27
ATOM     27  N4  OLO d   1     102.493  99.041  80.092  0.00  0.00    -0.220 N 
ATOM     28  H5  OLO d   1     102.230  98.751  81.045  0.00  0.00     0.177 HD
BRANCH  27  29
ATOM     29  C4  OLO d   1     101.588  98.714  78.912  0.00  0.00     0.029 C 
ATOM     30  H6  OLO d   1     102.201  98.849  78.009  0.00  0.00     0.068 H 
ATOM     31  H7  OLO d   1     100.784  99.465  78.925  0.00  0.00     0.068 H 
BRANCH  29  32
ATOM     32  C5  OLO d   1     100.884  97.322  78.759  0.00  0.00     0.032 C 
ATOM     33  H8  OLO d   1     101.126  96.674  79.614  0.00  0.00     0.076 H 
ATOM     34  H9  OLO d   1     101.201  96.832  77.826  0.00  0.00     0.076 H 
BRANCH  32  35
ATOM     35  O   OLO d   1      99.461  97.601  78.724  0.00  0.00    -0.399 OA
ATOM     36  H10 OLO d   1      98.982  96.786  78.632  0.00  0.00     0.209 HD
ENDBRANCH  32  35
ENDBRANCH  29  32
ENDBRANCH  27  29
ENDBRANCH   8  27
BRANCH   1  37
ATOM     37  C3  OLO d   1     107.303  99.574  82.490  0.00  0.00    -0.012 C 
ATOM     38  H2  OLO d   1     108.341  99.732  82.817  0.00  0.00     0.057 H 
ATOM     39  H3  OLO d   1     107.110  98.496  82.391  0.00  0.00     0.057 H 
ATOM     40  H4  OLO d   1     106.615 100.002  83.234  0.00  0.00     0.057 H 
ENDBRANCH   1  37
TORSDOF 8
