REMARK  13 active torsions:
REMARK  status: ('A' for Active; 'I' for Inactive)
REMARK    1  A    between atoms: C1_1  and  N1_2 
REMARK    2  A    between atoms: C2_4  and  C1_1 
REMARK    3  A    between atoms: N3_8  and  C5_7 
REMARK    4  A    between atoms: C8_9  and  N3_8 
REMARK    5  A    between atoms: C9_17  and  C8_9 
REMARK    6  A    between atoms: C15_10  and  C16_11 
REMARK    7  A    between atoms: O3_26  and  C15_10 
REMARK    8  A    between atoms: C14_19  and  N4_20 
REMARK    9  A    between atoms: N4_20  and  S1_21 
REMARK   10  A    between atoms: S1_21  and  C22_22 
REMARK   11  A    between atoms: C12_25  and  O3_26 
REMARK   12  A    between atoms: C11_28  and  O2_29 
REMARK   13  A    between atoms: O2_29  and  C23_30 
ROOT
ATOM      1  C9  771 d   1      33.149   7.128   8.899  0.00  0.00    -0.010 A 
ATOM      2  C13 771 d   1      35.497   6.634   9.405  0.00  0.00    -0.021 A 
ATOM      3  C14 771 d   1      34.201   6.207   9.179  0.00  0.00     0.053 A 
ATOM      4  C12 771 d   1      35.783   8.001   9.318  0.00  0.00     0.104 A 
ATOM      5  C10 771 d   1      33.464   8.507   8.796  0.00  0.00    -0.038 A 
ATOM      6  C11 771 d   1      34.797   8.939   8.992  0.00  0.00     0.102 A 
ATOM      7  H17 771 d   1      36.278   5.922   9.646  0.00  0.00     0.091 H 
ATOM      8  H22 771 d   1      32.687   9.227   8.568  0.00  0.00     0.088 H 
ENDROOT
BRANCH   1   9
ATOM      9  C8  771 d   1      31.702   6.690   8.766  0.00  0.00     0.019 C 
ATOM     10  H8  771 d   1      31.413   6.729   7.705  0.00  0.00     0.071 H 
ATOM     11  H9  771 d   1      31.607   5.658   9.134  0.00  0.00     0.071 H 
BRANCH   9  12
ATOM     12  N3  771 d   1      30.779   7.577   9.556  0.00  0.00    -0.386 N 
ATOM     13  H7  771 d   1      30.336   8.385   9.096  0.00  0.00     0.160 HD
BRANCH  12  14
ATOM     14  C5  771 d   1      30.509   7.319  10.923  0.00  0.00     0.028 A 
ATOM     15  C4  771 d   1      29.628   8.142  11.633  0.00  0.00    -0.057 A 
ATOM     16  C3  771 d   1      29.477   7.953  12.994  0.00  0.00    -0.067 A 
ATOM     17  H6  771 d   1      29.070   8.919  11.122  0.00  0.00     0.086 H 
ATOM     18  C2  771 d   1      30.209   6.937  13.671  0.00  0.00     0.007 A 
ATOM     19  H5  771 d   1      28.795   8.585  13.551  0.00  0.00     0.085 H 
ATOM     20  C7  771 d   1      31.112   6.126  12.943  0.00  0.00    -0.067 A 
ATOM     21  C6  771 d   1      31.249   6.318  11.596  0.00  0.00    -0.057 A 
ATOM     22  H27 771 d   1      31.689   5.360  13.448  0.00  0.00     0.085 H 
ATOM     23  H26 771 d   1      31.935   5.694  11.035  0.00  0.00     0.086 H 
BRANCH  18  24
ATOM     24  C1  771 d   1      29.894   6.681  15.096  0.00  0.00     0.102 C 
ATOM     25  N2  771 d   1      30.226   5.592  15.825  0.00  0.00    -0.385 N 
ATOM     26  H3  771 d   1      30.620   4.761  15.360  0.00  0.00     0.157 HD
ATOM     27  H4  771 d   1      30.085   5.593  16.845  0.00  0.00     0.157 HD
BRANCH  24  28
ATOM     28  N1  771 d   1      29.394   7.686  15.829  0.00  0.00    -0.385 N 
ATOM     29  H1  771 d   1      29.108   8.564  15.372  0.00  0.00     0.157 HD
ATOM     30  H2  771 d   1      29.296   7.580  16.849  0.00  0.00     0.157 HD
ENDBRANCH  24  28
ENDBRANCH  18  24
ENDBRANCH  12  14
ENDBRANCH   9  12
ENDBRANCH   1   9
BRANCH   3  31
ATOM     31  N4  771 d   1      33.944   4.844   9.340  0.00  0.00    -0.284 N 
ATOM     32  H18 771 d   1      33.902   4.448  10.257  0.00  0.00     0.178 HD
BRANCH  31  33
ATOM     33  S1  771 d   1      33.702   3.852   7.970  0.00  0.00     0.227 S 
ATOM     34  O5  771 d   1      32.953   4.585   6.973  0.00  0.00    -0.206 OA
ATOM     35  O4  771 d   1      33.167   2.592   8.310  0.00  0.00    -0.206 OA
BRANCH  33  36
ATOM     36  C22 771 d   1      35.344   3.537   7.382  0.00  0.00     0.033 C 
ATOM     37  H19 771 d   1      35.297   2.897   6.489  0.00  0.00     0.051 H 
ATOM     38  H20 771 d   1      35.923   3.029   8.167  0.00  0.00     0.051 H 
ATOM     39  H21 771 d   1      35.831   4.489   7.126  0.00  0.00     0.051 H 
ENDBRANCH  33  36
ENDBRANCH  31  33
ENDBRANCH   3  31
BRANCH   6  40
ATOM     40  O2  771 d   1      35.239  10.244   8.778  0.00  0.00    -0.353 OA
BRANCH  40  41
ATOM     41  C23 771 d   1      34.357  11.276   8.337  0.00  0.00     0.010 C 
ATOM     42  H23 771 d   1      34.916  12.218   8.236  0.00  0.00     0.066 H 
ATOM     43  H24 771 d   1      33.549  11.407   9.072  0.00  0.00     0.066 H 
ATOM     44  H25 771 d   1      33.926  10.999   7.364  0.00  0.00     0.066 H 
ENDBRANCH  40  41
ENDBRANCH   6  40
BRANCH   4  45
ATOM     45  O3  771 d   1      37.011   8.527   9.631  0.00  0.00    -0.344 OA
BRANCH  45  46
ATOM     46  C15 771 d   1      38.177   7.727   9.541  0.00  0.00     0.050 C 
ATOM     47  H10 771 d   1      38.047   7.019   8.709  0.00  0.00     0.082 H 
ATOM     48  H11 771 d   1      39.033   8.386   9.332  0.00  0.00     0.082 H 
BRANCH  46  49
ATOM     49  C16 771 d   1      38.475   6.951  10.771  0.00  0.00    -0.034 A 
ATOM     50  C17 771 d   1      37.726   7.073  11.908  0.00  0.00    -0.075 A 
ATOM     51  C18 771 d   1      38.004   6.300  13.025  0.00  0.00    -0.082 A 
ATOM     52  H12 771 d   1      36.906   7.782  11.937  0.00  0.00     0.084 H 
ATOM     53  C19 771 d   1      39.042   5.397  13.002  0.00  0.00    -0.083 A 
ATOM     54  H13 771 d   1      37.401   6.407  13.920  0.00  0.00     0.083 H 
ATOM     55  C20 771 d   1      39.792   5.282  11.854  0.00  0.00    -0.082 A 
ATOM     56  H14 771 d   1      39.264   4.788  13.871  0.00  0.00     0.083 H 
ATOM     57  C21 771 d   1      39.505   6.050  10.757  0.00  0.00    -0.075 A 
ATOM     58  H16 771 d   1      40.616   4.579  11.818  0.00  0.00     0.083 H 
ATOM     59  H15 771 d   1      40.105   5.942   9.861  0.00  0.00     0.084 H 
ENDBRANCH  46  49
ENDBRANCH  45  46
ENDBRANCH   4  45
TORSDOF 13
