REMARK  18 active torsions:
REMARK  status: ('A' for Active; 'I' for Inactive)
REMARK       I    between atoms: N1_1  and  C2_2 
REMARK       I    between atoms: C2_2  and  N2_3 
REMARK    1  A    between atoms: N3_4  and  C3_5 
REMARK    2  A    between atoms: C3_5  and  C4_6 
REMARK    3  A    between atoms: C4_6  and  C5_7 
REMARK    4  A    between atoms: C5_7  and  C6_8 
REMARK    5  A    between atoms: C6_8  and  C7_9 
REMARK    6  A    between atoms: C6_8  and  N4_11 
REMARK       I    between atoms: N4_11  and  C8_12 
REMARK    7  A    between atoms: C8_12  and  C9_14 
REMARK    8  A    between atoms: C9_14  and  C10_15 
REMARK    9  A    between atoms: C9_14  and  N5_16 
REMARK       I    between atoms: N5_16  and  C11_17 
REMARK   10  A    between atoms: C11_17  and  C12_19 
REMARK   11  A    between atoms: C12_19  and  C13_20 
REMARK   12  A    between atoms: C12_19  and  N6_22 
REMARK   13  A    between atoms: C13_20  and  O4_21 
REMARK       I    between atoms: N6_22  and  C14_23 
REMARK   14  A    between atoms: C14_23  and  O6_25 
REMARK   15  A    between atoms: O6_25  and  C15_26 
REMARK   16  A    between atoms: C15_26  and  C16_27 
REMARK   17  A    between atoms: C16_27  and  C17_28 
REMARK   18  A    between atoms: C16_27  and  C18_29 
ROOT
ATOM      1  C9  SJ1 d   1      28.852  10.087  31.385  0.00  0.00     0.086 C 
ATOM      2  H15 SJ1 d   1      29.180   9.331  32.114  0.00  0.00     0.086 H 
ENDROOT
BRANCH   1   3
ATOM      3  C8  SJ1 d   1      28.426   9.442  30.135  0.00  0.00     0.240 C 
ATOM      4  N4  SJ1 d   1      28.133   8.159  30.155  0.00  0.00    -0.349 N 
ATOM      5  H14 SJ1 d   1      28.253   7.633  30.997  0.00  0.00     0.163 HD
ATOM      6  O2  SJ1 d   1      28.366  10.158  29.101  0.00  0.00    -0.271 OA
BRANCH   4   7
ATOM      7  C6  SJ1 d   1      27.641   7.513  28.968  0.00  0.00     0.062 C 
ATOM      8  H12 SJ1 d   1      27.886   8.141  28.099  0.00  0.00     0.083 H 
BRANCH   7   9
ATOM      9  C5  SJ1 d   1      28.335   6.151  28.761  0.00  0.00    -0.039 C 
ATOM     10  H10 SJ1 d   1      28.275   5.560  29.687  0.00  0.00     0.036 H 
ATOM     11  H11 SJ1 d   1      27.842   5.604  27.944  0.00  0.00     0.036 H 
BRANCH   9  12
ATOM     12  C4  SJ1 d   1      29.817   6.404  28.399  0.00  0.00    -0.048 C 
ATOM     13  H8  SJ1 d   1      29.868   6.858  27.398  0.00  0.00     0.035 H 
ATOM     14  H9  SJ1 d   1      30.252   7.094  29.137  0.00  0.00     0.035 H 
BRANCH  12  15
ATOM     15  C3  SJ1 d   1      30.634   5.091  28.397  0.00  0.00     0.009 C 
ATOM     16  H6  SJ1 d   1      30.675   4.676  29.415  0.00  0.00     0.064 H 
ATOM     17  H7  SJ1 d   1      30.165   4.361  27.721  0.00  0.00     0.064 H 
BRANCH  15  18
ATOM     18  N3  SJ1 d   1      31.928   5.387  27.952  0.00  0.00    -0.227 N 
ATOM     19  C2  SJ1 d   1      32.846   4.435  27.772  0.00  0.00     0.665 C 
ATOM     20  N1  SJ1 d   1      34.080   4.824  27.412  0.00  0.00    -0.235 N 
ATOM     21  N2  SJ1 d   1      32.628   3.107  27.933  0.00  0.00    -0.235 N 
ATOM     22  H1  SJ1 d   1      34.818   4.122  27.263  0.00  0.00     0.174 HD
ATOM     23  H2  SJ1 d   1      34.288   5.825  27.285  0.00  0.00     0.174 HD
ATOM     24  H3  SJ1 d   1      31.695   2.768  28.209  0.00  0.00     0.174 HD
ATOM     25  H4  SJ1 d   1      33.395   2.437  27.780  0.00  0.00     0.174 HD
ATOM     26  H5  SJ1 d   1      32.179   6.367  27.758  0.00  0.00     0.177 HD
ENDBRANCH  15  18
ENDBRANCH  12  15
ENDBRANCH   9  12
ENDBRANCH   7   9
BRANCH   7  27
ATOM     27  C7  SJ1 d   1      26.184   7.437  29.071  0.00  0.00     0.109 C 
ATOM     28  O1  SJ1 d   1      25.431   8.359  29.432  0.00  0.00    -0.305 OA
ATOM     29  H13 SJ1 d   1      25.717   6.489  28.808  0.00  0.00     0.146 H 
ENDBRANCH   7  27
ENDBRANCH   4   7
ENDBRANCH   1   3
BRANCH   1  30
ATOM     30  C10 SJ1 d   1      27.627  10.870  31.912  0.00  0.00    -0.049 C 
ATOM     31  H16 SJ1 d   1      27.892  11.376  32.852  0.00  0.00     0.030 H 
ATOM     32  H17 SJ1 d   1      26.796  10.172  32.092  0.00  0.00     0.030 H 
ATOM     33  H18 SJ1 d   1      27.322  11.619  31.166  0.00  0.00     0.030 H 
ENDBRANCH   1  30
BRANCH   1  34
ATOM     34  N5  SJ1 d   1      29.893  11.017  31.146  0.00  0.00    -0.346 N 
ATOM     35  C11 SJ1 d   1      31.112  10.728  30.719  0.00  0.00     0.243 C 
ATOM     36  O3  SJ1 d   1      31.408   9.552  30.456  0.00  0.00    -0.271 OA
ATOM     37  H19 SJ1 d   1      29.688  11.981  31.316  0.00  0.00     0.163 HD
BRANCH  35  38
ATOM     38  C12 SJ1 d   1      32.103  11.793  30.557  0.00  0.00     0.111 C 
ATOM     39  H20 SJ1 d   1      31.587  12.692  30.188  0.00  0.00     0.091 H 
BRANCH  38  40
ATOM     40  C13 SJ1 d   1      32.828  12.147  31.880  0.00  0.00     0.044 C 
ATOM     41  H21 SJ1 d   1      32.104  12.484  32.637  0.00  0.00     0.077 H 
ATOM     42  H22 SJ1 d   1      33.575  12.937  31.710  0.00  0.00     0.077 H 
BRANCH  40  43
ATOM     43  O4  SJ1 d   1      33.468  10.934  32.303  0.00  0.00    -0.398 OA
ATOM     44  H23 SJ1 d   1      33.933  11.090  33.117  0.00  0.00     0.209 HD
ENDBRANCH  40  43
ENDBRANCH  38  40
BRANCH  38  45
ATOM     45  N6  SJ1 d   1      33.081  11.393  29.609  0.00  0.00    -0.322 N 
ATOM     46  C14 SJ1 d   1      33.183  11.855  28.388  0.00  0.00     0.361 C 
ATOM     47  O5  SJ1 d   1      34.103  11.436  27.668  0.00  0.00    -0.238 OA
ATOM     48  H24 SJ1 d   1      33.745  10.703  29.897  0.00  0.00     0.165 HD
BRANCH  46  49
ATOM     49  O6  SJ1 d   1      32.387  12.700  27.911  0.00  0.00    -0.304 OA
BRANCH  49  50
ATOM     50  C15 SJ1 d   1      32.569  13.720  27.049  0.00  0.00     0.033 C 
ATOM     51  H25 SJ1 d   1      33.528  13.589  26.526  0.00  0.00     0.075 H 
ATOM     52  H26 SJ1 d   1      32.581  14.669  27.605  0.00  0.00     0.075 H 
BRANCH  50  53
ATOM     53  C16 SJ1 d   1      31.414  13.748  26.007  0.00  0.00    -0.040 C 
ATOM     54  H27 SJ1 d   1      30.500  13.322  26.447  0.00  0.00     0.042 H 
BRANCH  53  55
ATOM     55  C17 SJ1 d   1      31.885  12.895  24.795  0.00  0.00    -0.071 C 
ATOM     56  H28 SJ1 d   1      31.098  12.884  24.026  0.00  0.00     0.028 H 
ATOM     57  H29 SJ1 d   1      32.087  11.866  25.127  0.00  0.00     0.028 H 
ATOM     58  H30 SJ1 d   1      32.803  13.332  24.374  0.00  0.00     0.028 H 
ENDBRANCH  53  55
BRANCH  53  59
ATOM     59  C18 SJ1 d   1      31.132  15.191  25.515  0.00  0.00    -0.071 C 
ATOM     60  H31 SJ1 d   1      30.797  15.808  26.362  0.00  0.00     0.028 H 
ATOM     61  H32 SJ1 d   1      30.347  15.169  24.745  0.00  0.00     0.028 H 
ATOM     62  H33 SJ1 d   1      32.051  15.620  25.090  0.00  0.00     0.028 H 
ENDBRANCH  53  59
ENDBRANCH  50  53
ENDBRANCH  49  50
ENDBRANCH  46  49
ENDBRANCH  38  45
ENDBRANCH  35  38
ENDBRANCH   1  34
TORSDOF 18
