REMARK  13 active torsions:
REMARK  status: ('A' for Active; 'I' for Inactive)
REMARK    1  A    between atoms: N1_1  and  C1_2 
REMARK    2  A    between atoms: N1_1  and  S_34 
REMARK    3  A    between atoms: N2_5  and  C3_6 
REMARK    4  A    between atoms: C3_6  and  C4_7 
REMARK       I    between atoms: C4_7  and  N3_9 
REMARK    5  A    between atoms: N3_9  and  C5_10 
REMARK    6  A    between atoms: C5_10  and  C6_11 
REMARK    7  A    between atoms: C5_10  and  C20_27 
REMARK    8  A    between atoms: C8_15  and  C10_17 
REMARK    9  A    between atoms: C20_27  and  C21_28 
REMARK   10  A    between atoms: C21_28  and  C22_29 
REMARK   11  A    between atoms: C22_29  and  N5_30 
REMARK       I    between atoms: N5_30  and  C23_31 
REMARK       I    between atoms: C23_31  and  N6_32 
REMARK   12  A    between atoms: S_34  and  C24_37 
REMARK   13  A    between atoms: C24_37  and  C25_38 
ROOT
ATOM      1  C1  SL1 d   1      25.740  18.328  55.594  0.00  0.00     0.183 C 
ATOM      2  C2  SL1 d   1      24.688  19.346  55.726  0.00  0.00     0.269 C 
ATOM      3  O1  SL1 d   1      23.604  18.976  56.172  0.00  0.00    -0.269 OA
ATOM      4  N2  SL1 d   1      24.868  20.618  55.364  0.00  0.00    -0.305 N 
ATOM      5  C7  SL1 d   1      26.087  21.054  54.898  0.00  0.00     0.050 A 
ATOM      6  C9  SL1 d   1      26.844  20.318  53.905  0.00  0.00     0.020 A 
ATOM      7  C8  SL1 d   1      26.438  19.075  53.357  0.00  0.00     0.076 C 
ATOM      8  N4  SL1 d   1      25.978  18.171  54.197  0.00  0.00    -0.252 NA
ATOM      9  C16 SL1 d   1      28.074  20.898  53.469  0.00  0.00    -0.069 A 
ATOM     10  C17 SL1 d   1      28.557  22.139  53.961  0.00  0.00    -0.082 A 
ATOM     11  C18 SL1 d   1      27.839  22.807  54.983  0.00  0.00    -0.081 A 
ATOM     12  C19 SL1 d   1      26.600  22.280  55.426  0.00  0.00    -0.056 A 
ATOM     13  H2  SL1 d   1      26.662  18.673  56.084  0.00  0.00     0.126 H 
ATOM     14  H13 SL1 d   1      28.664  20.368  52.730  0.00  0.00     0.085 H 
ATOM     15  H14 SL1 d   1      29.466  22.571  53.559  0.00  0.00     0.083 H 
ATOM     16  H15 SL1 d   1      28.234  23.715  55.423  0.00  0.00     0.083 H 
ATOM     17  H16 SL1 d   1      26.032  22.815  56.178  0.00  0.00     0.087 H 
ENDROOT
BRANCH   4  18
ATOM     18  C3  SL1 d   1      23.765  21.546  55.433  0.00  0.00     0.076 C 
ATOM     19  H3  SL1 d   1      24.155  22.567  55.311  0.00  0.00     0.079 H 
ATOM     20  H4  SL1 d   1      23.287  21.452  56.419  0.00  0.00     0.079 H 
BRANCH  18  21
ATOM     21  C4  SL1 d   1      22.758  21.302  54.398  0.00  0.00     0.236 C 
ATOM     22  O3  SL1 d   1      23.174  20.755  53.350  0.00  0.00    -0.272 OA
ATOM     23  N3  SL1 d   1      21.484  21.648  54.587  0.00  0.00    -0.349 N 
ATOM     24  H5  SL1 d   1      21.160  21.963  55.479  0.00  0.00     0.163 HD
BRANCH  23  25
ATOM     25  C5  SL1 d   1      20.597  21.553  53.470  0.00  0.00     0.062 C 
ATOM     26  H6  SL1 d   1      21.165  21.034  52.684  0.00  0.00     0.083 H 
BRANCH  25  27
ATOM     27  C6  SL1 d   1      20.156  22.821  52.934  0.00  0.00     0.109 C 
ATOM     28  O2  SL1 d   1      20.939  23.777  52.840  0.00  0.00    -0.305 OA
ATOM     29  H7  SL1 d   1      19.123  22.938  52.609  0.00  0.00     0.146 H 
ENDBRANCH  25  27
BRANCH  25  30
ATOM     30  C20 SL1 d   1      19.274  20.747  53.708  0.00  0.00    -0.039 C 
ATOM     31  H17 SL1 d   1      18.674  20.725  52.786  0.00  0.00     0.036 H 
ATOM     32  H18 SL1 d   1      18.689  21.211  54.516  0.00  0.00     0.036 H 
BRANCH  30  33
ATOM     33  C21 SL1 d   1      19.687  19.304  54.110  0.00  0.00    -0.048 C 
ATOM     34  H19 SL1 d   1      20.393  19.368  54.951  0.00  0.00     0.035 H 
ATOM     35  H20 SL1 d   1      20.184  18.834  53.249  0.00  0.00     0.035 H 
BRANCH  33  36
ATOM     36  C22 SL1 d   1      18.502  18.407  54.537  0.00  0.00     0.009 C 
ATOM     37  H21 SL1 d   1      17.657  18.550  53.847  0.00  0.00     0.064 H 
ATOM     38  H22 SL1 d   1      18.188  18.664  55.559  0.00  0.00     0.064 H 
BRANCH  36  39
ATOM     39  N5  SL1 d   1      18.948  17.025  54.491  0.00  0.00    -0.227 N 
ATOM     40  C23 SL1 d   1      18.121  16.009  54.833  0.00  0.00     0.665 C 
ATOM     41  N6  SL1 d   1      16.823  16.224  55.181  0.00  0.00    -0.235 N 
ATOM     42  N7  SL1 d   1      18.515  14.728  54.856  0.00  0.00    -0.235 N 
ATOM     43  H24 SL1 d   1      16.220  15.429  55.436  0.00  0.00     0.174 HD
ATOM     44  H25 SL1 d   1      16.444  17.182  55.189  0.00  0.00     0.174 HD
ATOM     45  H26 SL1 d   1      19.483  14.482  54.605  0.00  0.00     0.174 HD
ATOM     46  H27 SL1 d   1      17.849  13.989  55.124  0.00  0.00     0.174 HD
ATOM     47  H23 SL1 d   1      19.911  16.814  54.193  0.00  0.00     0.177 HD
ENDBRANCH  36  39
ENDBRANCH  33  36
ENDBRANCH  30  33
ENDBRANCH  25  30
ENDBRANCH  23  25
ENDBRANCH  18  21
ENDBRANCH   4  18
BRANCH   1  48
ATOM     48  N1  SL1 d   1      25.297  17.084  56.241  0.00  0.00    -0.287 N 
ATOM     49  H1  SL1 d   1      24.379  16.700  56.143  0.00  0.00     0.174 HD
BRANCH  48  50
ATOM     50  S   SL1 d   1      26.514  16.384  57.165  0.00  0.00     0.232 S 
ATOM     51  O4  SL1 d   1      27.830  16.799  56.497  0.00  0.00    -0.206 OA
ATOM     52  O5  SL1 d   1      26.328  14.900  57.082  0.00  0.00    -0.206 OA
BRANCH  50  53
ATOM     53  C24 SL1 d   1      26.683  16.786  58.866  0.00  0.00     0.070 C 
ATOM     54  H28 SL1 d   1      27.588  16.336  59.299  0.00  0.00     0.066 H 
ATOM     55  H29 SL1 d   1      25.803  16.469  59.445  0.00  0.00     0.066 H 
BRANCH  53  56
ATOM     56  C25 SL1 d   1      26.788  18.265  58.801  0.00  0.00    -0.043 A 
ATOM     57  C26 SL1 d   1      27.964  18.969  58.396  0.00  0.00    -0.076 A 
ATOM     58  C27 SL1 d   1      28.042  20.397  58.376  0.00  0.00    -0.082 A 
ATOM     59  H30 SL1 d   1      28.833  18.397  58.091  0.00  0.00     0.084 H 
ATOM     60  C28 SL1 d   1      26.899  21.128  58.792  0.00  0.00    -0.083 A 
ATOM     61  H31 SL1 d   1      28.944  20.904  58.054  0.00  0.00     0.083 H 
ATOM     62  C29 SL1 d   1      25.681  20.462  59.118  0.00  0.00    -0.082 A 
ATOM     63  H32 SL1 d   1      26.953  22.208  58.863  0.00  0.00     0.083 H 
ATOM     64  C30 SL1 d   1      25.661  19.043  59.155  0.00  0.00    -0.076 A 
ATOM     65  H33 SL1 d   1      24.784  21.031  59.334  0.00  0.00     0.083 H 
ATOM     66  H34 SL1 d   1      24.752  18.539  59.465  0.00  0.00     0.084 H 
ENDBRANCH  53  56
ENDBRANCH  50  53
ENDBRANCH  48  50
ENDBRANCH   1  48
BRANCH   7  67
ATOM     67  C10 SL1 d   1      26.520  18.807  51.965  0.00  0.00    -0.007 A 
ATOM     68  C11 SL1 d   1      26.153  19.767  50.959  0.00  0.00    -0.071 A 
ATOM     69  C12 SL1 d   1      26.289  19.525  49.570  0.00  0.00    -0.082 A 
ATOM     70  H8  SL1 d   1      25.753  20.722  51.279  0.00  0.00     0.084 H 
ATOM     71  C13 SL1 d   1      26.762  18.250  49.127  0.00  0.00    -0.083 A 
ATOM     72  H9  SL1 d   1      26.038  20.297  48.852  0.00  0.00     0.083 H 
ATOM     73  C14 SL1 d   1      27.139  17.252  50.076  0.00  0.00    -0.082 A 
ATOM     74  H10 SL1 d   1      26.835  18.040  48.066  0.00  0.00     0.083 H 
ATOM     75  C15 SL1 d   1      26.987  17.547  51.457  0.00  0.00    -0.071 A 
ATOM     76  H11 SL1 d   1      27.531  16.295  49.751  0.00  0.00     0.083 H 
ATOM     77  H12 SL1 d   1      27.239  16.773  52.173  0.00  0.00     0.084 H 
ENDBRANCH   7  67
TORSDOF 13
