REMARK  18 active torsions:
REMARK  status: ('A' for Active; 'I' for Inactive)
REMARK    1  A    between atoms: C1_1  and  C2_2 
REMARK    2  A    between atoms: C1_1  and  S1_9 
REMARK    3  A    between atoms: C2_2  and  C3_3 
REMARK    4  A    between atoms: S1_9  and  N1_12 
REMARK    5  A    between atoms: N1_12  and  C9_13 
REMARK    6  A    between atoms: C9_13  and  C10_14 
REMARK    7  A    between atoms: C9_13  and  C11_16 
REMARK    8  A    between atoms: C10_14  and  O3_15 
REMARK       I    between atoms: C11_16  and  N2_18 
REMARK    9  A    between atoms: N2_18  and  C12_19 
REMARK   10  A    between atoms: C12_19  and  C13_20 
REMARK   11  A    between atoms: C12_19  and  C14_21 
REMARK       I    between atoms: C14_21  and  N3_23 
REMARK   12  A    between atoms: N3_23  and  C15_24 
REMARK   13  A    between atoms: C15_24  and  C16_25 
REMARK   14  A    between atoms: C15_24  and  C20_32 
REMARK   15  A    between atoms: C16_25  and  C17_26 
REMARK   16  A    between atoms: C17_26  and  C18_27 
REMARK   17  A    between atoms: C18_27  and  N4_28 
REMARK       I    between atoms: N4_28  and  C19_29 
REMARK       I    between atoms: C19_29  and  N5_30 
REMARK   18  A    between atoms: C20_32  and  O6_33 
ROOT
ATOM      1  C12 SH1 d   1      29.148  10.212  31.499  0.00  0.00     0.086 C 
ATOM      2  H16 SH1 d   1      29.486   9.411  32.173  0.00  0.00     0.086 H 
ENDROOT
BRANCH   1   3
ATOM      3  N2  SH1 d   1      30.210  11.161  31.302  0.00  0.00    -0.346 N 
ATOM      4  C11 SH1 d   1      31.427  10.806  30.886  0.00  0.00     0.243 C 
ATOM      5  O4  SH1 d   1      31.731   9.636  30.590  0.00  0.00    -0.271 OA
ATOM      6  H15 SH1 d   1      30.029  12.127  31.484  0.00  0.00     0.163 HD
BRANCH   4   7
ATOM      7  C9  SH1 d   1      32.461  11.922  30.786  0.00  0.00     0.116 C 
ATOM      8  H11 SH1 d   1      32.005  12.812  30.328  0.00  0.00     0.091 H 
BRANCH   7   9
ATOM      9  N1  SH1 d   1      33.547  11.405  30.013  0.00  0.00    -0.304 N 
ATOM     10  H10 SH1 d   1      34.025  10.564  30.267  0.00  0.00     0.173 HD
BRANCH   9  11
ATOM     11  S1  SH1 d   1      33.989  12.331  28.599  0.00  0.00     0.227 S 
ATOM     12  O1  SH1 d   1      35.647  11.847  28.245  0.00  0.00    -0.206 OA
ATOM     13  O2  SH1 d   1      34.056  14.056  28.973  0.00  0.00    -0.206 OA
BRANCH  11  14
ATOM     14  C1  SH1 d   1      32.704  12.000  27.383  0.00  0.00     0.050 C 
ATOM     15  H1  SH1 d   1      32.830  10.971  27.016  0.00  0.00     0.059 H 
ATOM     16  H2  SH1 d   1      31.726  12.097  27.876  0.00  0.00     0.059 H 
BRANCH  14  17
ATOM     17  C2  SH1 d   1      32.735  12.937  26.196  0.00  0.00    -0.027 C 
ATOM     18  H3  SH1 d   1      33.115  13.913  26.531  0.00  0.00     0.041 H 
ATOM     19  H4  SH1 d   1      31.709  13.054  25.816  0.00  0.00     0.041 H 
BRANCH  17  20
ATOM     20  C3  SH1 d   1      33.619  12.438  25.057  0.00  0.00    -0.057 A 
ATOM     21  C4  SH1 d   1      33.219  11.351  24.274  0.00  0.00    -0.077 A 
ATOM     22  C6  SH1 d   1      33.991  10.956  23.185  0.00  0.00    -0.082 A 
ATOM     23  H5  SH1 d   1      32.308  10.816  24.515  0.00  0.00     0.084 H 
ATOM     24  C8  SH1 d   1      35.166  11.637  22.895  0.00  0.00    -0.083 A 
ATOM     25  H7  SH1 d   1      33.677  10.122  22.567  0.00  0.00     0.083 H 
ATOM     26  C7  SH1 d   1      35.585  12.679  23.708  0.00  0.00    -0.082 A 
ATOM     27  H9  SH1 d   1      35.757  11.353  22.031  0.00  0.00     0.083 H 
ATOM     28  C5  SH1 d   1      34.832  13.080  24.799  0.00  0.00    -0.077 A 
ATOM     29  H8  SH1 d   1      36.516  13.188  23.486  0.00  0.00     0.083 H 
ATOM     30  H6  SH1 d   1      35.179  13.880  25.443  0.00  0.00     0.084 H 
ENDBRANCH  17  20
ENDBRANCH  14  17
ENDBRANCH  11  14
ENDBRANCH   9  11
ENDBRANCH   7   9
BRANCH   7  31
ATOM     31  C10 SH1 d   1      33.148  12.283  32.094  0.00  0.00     0.044 C 
ATOM     32  H12 SH1 d   1      32.400  12.579  32.844  0.00  0.00     0.077 H 
ATOM     33  H13 SH1 d   1      33.854  13.111  31.933  0.00  0.00     0.077 H 
BRANCH  31  34
ATOM     34  O3  SH1 d   1      33.848  11.125  32.535  0.00  0.00    -0.398 OA
ATOM     35  H14 SH1 d   1      34.291  11.316  33.354  0.00  0.00     0.209 HD
ENDBRANCH  31  34
ENDBRANCH   7  31
ENDBRANCH   4   7
ENDBRANCH   1   3
BRANCH   1  36
ATOM     36  C13 SH1 d   1      27.995  10.943  32.138  0.00  0.00    -0.049 C 
ATOM     37  H17 SH1 d   1      27.163  10.243  32.303  0.00  0.00     0.030 H 
ATOM     38  H18 SH1 d   1      27.664  11.756  31.475  0.00  0.00     0.030 H 
ATOM     39  H19 SH1 d   1      28.317  11.364  33.102  0.00  0.00     0.030 H 
ENDBRANCH   1  36
BRANCH   1  40
ATOM     40  C14 SH1 d   1      28.761   9.593  30.150  0.00  0.00     0.240 C 
ATOM     41  O5  SH1 d   1      28.703  10.259  29.086  0.00  0.00    -0.271 OA
ATOM     42  N3  SH1 d   1      28.502   8.286  30.240  0.00  0.00    -0.353 N 
ATOM     43  H20 SH1 d   1      28.636   7.807  31.107  0.00  0.00     0.163 HD
BRANCH  42  44
ATOM     44  C15 SH1 d   1      28.025   7.562  29.073  0.00  0.00     0.032 C 
ATOM     45  H21 SH1 d   1      28.216   8.192  28.192  0.00  0.00     0.075 H 
BRANCH  44  46
ATOM     46  C16 SH1 d   1      28.744   6.245  28.848  0.00  0.00    -0.043 C 
ATOM     47  H22 SH1 d   1      28.339   5.763  27.946  0.00  0.00     0.036 H 
ATOM     48  H23 SH1 d   1      28.581   5.592  29.718  0.00  0.00     0.036 H 
BRANCH  46  49
ATOM     49  C17 SH1 d   1      30.229   6.468  28.667  0.00  0.00    -0.048 C 
ATOM     50  H24 SH1 d   1      30.667   6.846  29.603  0.00  0.00     0.035 H 
ATOM     51  H25 SH1 d   1      30.402   7.196  27.861  0.00  0.00     0.035 H 
BRANCH  49  52
ATOM     52  C18 SH1 d   1      30.854   5.151  28.307  0.00  0.00     0.009 C 
ATOM     53  H26 SH1 d   1      30.369   4.734  27.412  0.00  0.00     0.064 H 
ATOM     54  H27 SH1 d   1      30.753   4.443  29.142  0.00  0.00     0.064 H 
BRANCH  52  55
ATOM     55  N4  SH1 d   1      32.247   5.410  28.042  0.00  0.00    -0.227 N 
ATOM     56  C19 SH1 d   1      33.152   4.444  27.886  0.00  0.00     0.665 C 
ATOM     57  N5  SH1 d   1      32.826   3.144  27.971  0.00  0.00    -0.235 N 
ATOM     58  N6  SH1 d   1      34.411   4.809  27.642  0.00  0.00    -0.235 N 
ATOM     59  H29 SH1 d   1      33.550   2.422  27.845  0.00  0.00     0.174 HD
ATOM     60  H30 SH1 d   1      31.852   2.869  28.162  0.00  0.00     0.174 HD
ATOM     61  H31 SH1 d   1      34.654   5.808  27.578  0.00  0.00     0.174 HD
ATOM     62  H32 SH1 d   1      35.140   4.092  27.517  0.00  0.00     0.174 HD
ATOM     63  H28 SH1 d   1      32.558   6.389  27.970  0.00  0.00     0.177 HD
ENDBRANCH  52  55
ENDBRANCH  49  52
ENDBRANCH  46  49
ENDBRANCH  44  46
BRANCH  44  64
ATOM     64  C20 SH1 d   1      26.509   7.349  29.184  0.00  0.00     0.035 C 
ATOM     65  H33 SH1 d   1      26.316   6.572  29.938  0.00  0.00     0.077 H 
ATOM     66  H34 SH1 d   1      26.127   7.016  28.208  0.00  0.00     0.077 H 
BRANCH  64  67
ATOM     67  O6  SH1 d   1      25.817   8.540  29.565  0.00  0.00    -0.399 OA
ATOM     68  H35 SH1 d   1      26.135   8.833  30.411  0.00  0.00     0.209 HD
ENDBRANCH  64  67
ENDBRANCH  44  64
ENDBRANCH  42  44
ENDBRANCH   1  40
TORSDOF 18
