REMARK  10 active torsions:
REMARK  status: ('A' for Active; 'I' for Inactive)
REMARK    1  A    between atoms: C1_1  and  O1_2 
REMARK    2  A    between atoms: O1_2  and  P1_13 
REMARK    3  A    between atoms: C2_3  and  O2_4 
REMARK    4  A    between atoms: C3_5  and  O3_6 
REMARK    5  A    between atoms: O3_6  and  P3_17 
REMARK    6  A    between atoms: C4_7  and  O4_8 
REMARK    7  A    between atoms: O4_8  and  P4_21 
REMARK    8  A    between atoms: C5_9  and  O5_10 
REMARK    9  A    between atoms: O5_10  and  P5_25 
REMARK   10  A    between atoms: C6_11  and  O6_12 
ROOT
ATOM      1  C1  4IP d   1      11.090  35.168   6.150  0.00  0.00     0.106 C 
ATOM      2  C2  4IP d   1      10.792  34.868   7.630  0.00  0.00     0.091 C 
ATOM      3  C3  4IP d   1      10.811  33.343   7.772  0.00  0.00     0.106 C 
ATOM      4  C4  4IP d   1      12.194  32.806   7.470  0.00  0.00     0.107 C 
ATOM      5  C5  4IP d   1      12.535  33.091   5.985  0.00  0.00     0.106 C 
ATOM      6  C6  4IP d   1      12.467  34.601   5.742  0.00  0.00     0.091 C 
ATOM      7  H1  4IP d   1      10.329  34.653   5.546  0.00  0.00     0.092 H 
ATOM      8  H2  4IP d   1       9.815  35.276   7.928  0.00  0.00     0.091 H 
ATOM      9  H4  4IP d   1      10.082  32.887   7.086  0.00  0.00     0.092 H 
ATOM     10  H5  4IP d   1      12.937  33.241   8.155  0.00  0.00     0.092 H 
ATOM     11  H6  4IP d   1      11.904  32.522   5.286  0.00  0.00     0.092 H 
ATOM     12  H7  4IP d   1      13.254  35.101   6.326  0.00  0.00     0.091 H 
ENDROOT
BRANCH   1  13
ATOM     13  O1  4IP d   1      10.984  36.543   5.877  0.00  0.00    -0.272 OA
BRANCH  13  14
ATOM     14  P1  4IP d   1       9.600  37.137   5.292  0.00  0.00     0.422 P 
ATOM     15  O1P 4IP d   1       9.338  36.501   3.944  0.00  0.00    -0.617 OA
ATOM     16  O2P 4IP d   1       8.500  36.763   6.236  0.00  0.00    -0.617 OA
ATOM     17  O3P 4IP d   1       9.908  38.607   5.169  0.00  0.00    -0.617 OA
ENDBRANCH  13  14
ENDBRANCH   1  13
BRANCH   2  18
ATOM     18  O2  4IP d   1      11.841  35.446   8.426  0.00  0.00    -0.390 OA
ATOM     19  H3  4IP d   1      11.866  36.385   8.281  0.00  0.00     0.210 HD
ENDBRANCH   2  18
BRANCH   6  20
ATOM     20  O6  4IP d   1      12.671  34.845   4.334  0.00  0.00    -0.390 OA
ATOM     21  H8  4IP d   1      12.632  35.779   4.167  0.00  0.00     0.210 HD
ENDBRANCH   6  20
BRANCH   3  22
ATOM     22  O3  4IP d   1      10.454  33.059   9.142  0.00  0.00    -0.272 OA
BRANCH  22  23
ATOM     23  P3  4IP d   1       9.111  32.299   9.499  0.00  0.00     0.422 P 
ATOM     24  O4P 4IP d   1       9.338  30.845   8.831  0.00  0.00    -0.617 OA
ATOM     25  O5P 4IP d   1       7.932  32.960   8.844  0.00  0.00    -0.617 OA
ATOM     26  O6P 4IP d   1       9.131  32.191  10.992  0.00  0.00    -0.617 OA
ENDBRANCH  22  23
ENDBRANCH   3  22
BRANCH   5  27
ATOM     27  O5  4IP d   1      13.937  32.770   5.892  0.00  0.00    -0.272 OA
BRANCH  27  28
ATOM     28  P5  4IP d   1      14.614  31.625   5.011  0.00  0.00     0.422 P 
ATOM     29  O26 4IP d   1      13.512  31.256   4.096  0.00  0.00    -0.617 OA
ATOM     30  O27 4IP d   1      14.848  30.590   6.129  0.00  0.00    -0.617 OA
ATOM     31  O28 4IP d   1      15.836  32.040   4.362  0.00  0.00    -0.617 OA
ENDBRANCH  27  28
ENDBRANCH   5  27
BRANCH   4  32
ATOM     32  O4  4IP d   1      12.189  31.362   7.529  0.00  0.00    -0.272 OA
BRANCH  32  33
ATOM     33  P4  4IP d   1      12.687  30.535   8.814  0.00  0.00     0.422 P 
ATOM     34  O7P 4IP d   1      13.425  31.479   9.834  0.00  0.00    -0.617 OA
ATOM     35  O8P 4IP d   1      11.472  29.839   9.354  0.00  0.00    -0.617 OA
ATOM     36  O9P 4IP d   1      13.714  29.630   8.262  0.00  0.00    -0.617 OA
ENDBRANCH  32  33
ENDBRANCH   4  32
TORSDOF 10
