REMARK  16 active torsions:
REMARK  status: ('A' for Active; 'I' for Inactive)
REMARK    1  A    between atoms: O0F_1  and  C0E_2 
REMARK    2  A    between atoms: C0E_2  and  C0C_3 
REMARK    3  A    between atoms: C0C_3  and  O0D_4 
REMARK    4  A    between atoms: C0C_3  and  C0B_5 
REMARK    5  A    between atoms: C0B_5  and  OP1_6 
REMARK    6  A    between atoms: OP1_6  and  P1_7 
REMARK    7  A    between atoms: P1_7  and  O1_10 
REMARK    8  A    between atoms: O1_10  and  C1_11 
REMARK    9  A    between atoms: C2_12  and  O2_13 
REMARK   10  A    between atoms: C3_14  and  O3_15 
REMARK   11  A    between atoms: O3_15  and  P3_16 
REMARK   12  A    between atoms: C4_20  and  O4_21 
REMARK   13  A    between atoms: O4_21  and  P4_22 
REMARK   14  A    between atoms: C5_26  and  O5_27 
REMARK   15  A    between atoms: O5_27  and  P5_28 
REMARK   16  A    between atoms: C6_32  and  O6_33 
ROOT
ATOM      1  C1  4PT d   1      10.878  35.357   5.841  0.00  0.00     0.105 C 
ATOM      2  C2  4PT d   1      10.537  35.066   7.325  0.00  0.00     0.091 C 
ATOM      3  C3  4PT d   1      10.586  33.528   7.549  0.00  0.00     0.106 C 
ATOM      4  C4  4PT d   1      11.958  32.933   7.207  0.00  0.00     0.107 C 
ATOM      5  C5  4PT d   1      12.374  33.301   5.753  0.00  0.00     0.106 C 
ATOM      6  C6  4PT d   1      12.234  34.792   5.492  0.00  0.00     0.091 C 
ATOM      7  H8  4PT d   1      10.109  34.893   5.206  0.00  0.00     0.092 H 
ATOM      8  H9  4PT d   1       9.539  35.461   7.564  0.00  0.00     0.091 H 
ATOM      9  H11 4PT d   1       9.819  33.054   6.919  0.00  0.00     0.092 H 
ATOM     10  H12 4PT d   1      12.705  33.313   7.919  0.00  0.00     0.092 H 
ATOM     11  H13 4PT d   1      11.772  32.735   5.027  0.00  0.00     0.092 H 
ATOM     12  H14 4PT d   1      12.991  35.322   6.088  0.00  0.00     0.091 H 
ENDROOT
BRANCH   1  13
ATOM     13  O1  4PT d   1      10.932  36.772   5.569  0.00  0.00    -0.279 OA
BRANCH  13  14
ATOM     14  P1  4PT d   1       9.630  37.419   4.969  0.00  0.00     0.408 P 
ATOM     15  OP3 4PT d   1       8.320  37.029   5.836  0.00  0.00    -0.624 OA
ATOM     16  OP2 4PT d   1       9.857  38.891   4.868  0.00  0.00    -0.624 OA
BRANCH  14  17
ATOM     17  OP1 4PT d   1       9.387  36.736   3.572  0.00  0.00    -0.287 OA
BRANCH  17  18
ATOM     18  C0B 4PT d   1      10.379  36.895   2.541  0.00  0.00     0.057 C 
ATOM     19  H6  4PT d   1      11.007  37.769   2.767  0.00  0.00     0.079 H 
ATOM     20  H7  4PT d   1      11.008  35.994   2.494  0.00  0.00     0.079 H 
BRANCH  18  21
ATOM     21  C0C 4PT d   1       9.676  37.103   1.187  0.00  0.00     0.077 C 
ATOM     22  H4  4PT d   1       8.971  37.944   1.265  0.00  0.00     0.089 H 
BRANCH  21  23
ATOM     23  C0E 4PT d   1      10.678  37.403   0.072  0.00  0.00     0.042 C 
ATOM     24  H2  4PT d   1      11.289  36.510  -0.126  0.00  0.00     0.078 H 
ATOM     25  H3  4PT d   1      10.139  37.689  -0.843  0.00  0.00     0.078 H 
BRANCH  23  26
ATOM     26  O0F 4PT d   1      11.531  38.493   0.495  0.00  0.00    -0.398 OA
ATOM     27  H1  4PT d   1      12.158  38.688  -0.192  0.00  0.00     0.209 HD
ENDBRANCH  23  26
ENDBRANCH  21  23
BRANCH  21  28
ATOM     28  O0D 4PT d   1       8.963  35.904   0.903  0.00  0.00    -0.391 OA
ATOM     29  H5  4PT d   1       8.345  35.731   1.603  0.00  0.00     0.210 HD
ENDBRANCH  21  28
ENDBRANCH  18  21
ENDBRANCH  17  18
ENDBRANCH  14  17
ENDBRANCH  13  14
ENDBRANCH   1  13
BRANCH   2  30
ATOM     30  O2  4PT d   1      11.522  35.649   8.194  0.00  0.00    -0.390 OA
ATOM     31  H10 4PT d   1      11.297  35.461   9.098  0.00  0.00     0.210 HD
ENDBRANCH   2  30
BRANCH   6  32
ATOM     32  O6  4PT d   1      12.483  35.013   4.090  0.00  0.00    -0.390 OA
ATOM     33  H15 4PT d   1      12.402  35.940   3.897  0.00  0.00     0.210 HD
ENDBRANCH   6  32
BRANCH   3  34
ATOM     34  O3  4PT d   1      10.329  33.236   8.932  0.00  0.00    -0.272 OA
BRANCH  34  35
ATOM     35  P3  4PT d   1       8.999  32.356   9.171  0.00  0.00     0.422 P 
ATOM     36  O11 4PT d   1       7.763  33.127   8.619  0.00  0.00    -0.617 OA
ATOM     37  O10 4PT d   1       8.908  32.304  10.782  0.00  0.00    -0.617 OA
ATOM     38  O12 4PT d   1       9.077  31.010   8.485  0.00  0.00    -0.617 OA
ENDBRANCH  34  35
ENDBRANCH   3  34
BRANCH   5  39
ATOM     39  O5  4PT d   1      13.736  32.965   5.654  0.00  0.00    -0.272 OA
BRANCH  39  40
ATOM     40  P5  4PT d   1      14.158  31.588   4.863  0.00  0.00     0.422 P 
ATOM     41  OP8 4PT d   1      14.947  30.779   5.997  0.00  0.00    -0.617 OA
ATOM     42  OP7 4PT d   1      15.304  31.952   3.862  0.00  0.00    -0.617 OA
ATOM     43  OP9 4PT d   1      12.941  30.862   4.387  0.00  0.00    -0.617 OA
ENDBRANCH  39  40
ENDBRANCH   5  39
BRANCH   4  44
ATOM     44  O4  4PT d   1      11.907  31.500   7.265  0.00  0.00    -0.272 OA
BRANCH  44  45
ATOM     45  P4  4PT d   1      12.465  30.732   8.607  0.00  0.00     0.422 P 
ATOM     46  OP5 4PT d   1      11.127  29.989   9.033  0.00  0.00    -0.617 OA
ATOM     47  OP6 4PT d   1      13.552  29.777   8.017  0.00  0.00    -0.617 OA
ATOM     48  OP4 4PT d   1      13.151  31.688   9.573  0.00  0.00    -0.617 OA
ENDBRANCH  44  45
ENDBRANCH   4  44
TORSDOF 16
