REMARK  0 active torsions:
REMARK  status: ('A' for Active; 'I' for Inactive)
ROOT
ATOM      1  OP  GIO d   1      15.987  43.650 101.185  0.00  0.00    -0.271 OA
ATOM      2  CP  GIO d   1      16.946  43.523 101.946  0.00  0.00     0.241 C 
ATOM      3  CAP GIO d   1      17.308  44.634 102.936  0.00  0.00     0.091 C 
ATOM      4  CBP GIO d   1      17.065  46.015 102.323  0.00  0.00    -0.036 C 
ATOM      5  CGP GIO d   1      17.891  46.871 103.287  0.00  0.00    -0.048 C 
ATOM      6  CDP GIO d   1      19.218  46.108 103.330  0.00  0.00    -0.001 C 
ATOM      7  NP  GIO d   1      18.757  44.708 103.182  0.00  0.00    -0.337 N 
ATOM      8  C   GIO d   1      19.513  43.529 103.150  0.00  0.00     0.238 C 
ATOM      9  O   GIO d   1      20.724  43.579 103.354  0.00  0.00    -0.272 OA
ATOM     10  CA  GIO d   1      18.851  42.178 102.862  0.00  0.00     0.069 C 
ATOM     11  N   GIO d   1      17.732  42.364 101.909  0.00  0.00    -0.351 N 
ATOM     12  H1  GIO d   1      16.744  44.494 103.870  0.00  0.00     0.087 H 
ATOM     13  H2  GIO d   1      16.000  46.290 102.341  0.00  0.00     0.036 H 
ATOM     14  H3  GIO d   1      17.443  46.078 101.292  0.00  0.00     0.036 H 
ATOM     15  H4  GIO d   1      17.424  46.917 104.282  0.00  0.00     0.035 H 
ATOM     16  H5  GIO d   1      18.029  47.891 102.899  0.00  0.00     0.035 H 
ATOM     17  H6  GIO d   1      19.739  46.261 104.287  0.00  0.00     0.064 H 
ATOM     18  H7  GIO d   1      19.879  46.403 102.502  0.00  0.00     0.064 H 
ATOM     19  H8  GIO d   1      18.465  41.752 103.800  0.00  0.00     0.078 H 
ATOM     20  H9  GIO d   1      19.593  41.493 102.426  0.00  0.00     0.078 H 
ATOM     21  H10 GIO d   1      17.536  41.655 101.232  0.00  0.00     0.163 HD
ENDROOT
TORSDOF 0
