REMARK  2 active torsions:
REMARK  status: ('A' for Active; 'I' for Inactive)
REMARK    1  A    between atoms: CB_5  and  CA_2 
REMARK    2  A    between atoms: CG_10  and  CB_5 
ROOT
ATOM      1  N   CHQ d   1      17.597  42.278 101.911  0.00  0.00    -0.346 N 
ATOM      2  CA  CHQ d   1      18.930  42.200 102.531  0.00  0.00     0.095 C 
ATOM      3  C   CHQ d   1      19.477  43.573 102.943  0.00  0.00     0.243 C 
ATOM      4  O   CHQ d   1      20.664  43.674 103.251  0.00  0.00    -0.271 OA
ATOM      5  NP  CHQ d   1      18.679  44.721 103.008  0.00  0.00    -0.337 N 
ATOM      6  CAP CHQ d   1      17.236  44.655 102.727  0.00  0.00     0.091 C 
ATOM      7  CP  CHQ d   1      16.808  43.435 101.906  0.00  0.00     0.241 C 
ATOM      8  OP  CHQ d   1      15.746  43.443 101.283  0.00  0.00    -0.271 OA
ATOM      9  CBP CHQ d   1      17.064  45.970 101.965  0.00  0.00    -0.036 C 
ATOM     10  CGP CHQ d   1      17.843  46.908 102.892  0.00  0.00    -0.048 C 
ATOM     11  CDP CHQ d   1      19.130  46.123 103.165  0.00  0.00    -0.001 C 
ATOM     12  H1  CHQ d   1      17.234  41.458 101.468  0.00  0.00     0.163 HD
ATOM     13  H2  CHQ d   1      18.875  41.557 103.422  0.00  0.00     0.088 H 
ATOM     14  H8  CHQ d   1      16.656  44.661 103.662  0.00  0.00     0.087 H 
ATOM     15  H9  CHQ d   1      16.006  46.261 101.883  0.00  0.00     0.036 H 
ATOM     16  H10 CHQ d   1      17.510  45.923 100.961  0.00  0.00     0.036 H 
ATOM     17  H11 CHQ d   1      17.288  47.096 103.823  0.00  0.00     0.035 H 
ATOM     18  H12 CHQ d   1      18.061  47.865 102.395  0.00  0.00     0.035 H 
ATOM     19  H13 CHQ d   1      19.913  46.374 102.435  0.00  0.00     0.064 H 
ATOM     20  H14 CHQ d   1      19.503  46.310 104.183  0.00  0.00     0.064 H 
ENDROOT
BRANCH   2  21
ATOM     21  CB  CHQ d   1      19.880  41.583 101.500  0.00  0.00     0.004 C 
ATOM     22  H3  CHQ d   1      19.473  40.609 101.191  0.00  0.00     0.046 H 
ATOM     23  H4  CHQ d   1      20.861  41.436 101.975  0.00  0.00     0.046 H 
BRANCH  21  24
ATOM     24  CG  CHQ d   1      20.072  42.448 100.249  0.00  0.00     0.053 A 
ATOM     25  ND1 CHQ d   1      21.219  42.581  99.584  0.00  0.00    -0.247 NA
ATOM     26  CE1 CHQ d   1      20.944  43.434  98.604  0.00  0.00     0.064 A 
ATOM     27  NE2 CHQ d   1      19.680  43.841  98.617  0.00  0.00    -0.359 N 
ATOM     28  H5  CHQ d   1      21.676  43.764  97.869  0.00  0.00     0.143 H 
ATOM     29  CD2 CHQ d   1      19.147  43.207  99.659  0.00  0.00     0.002 A 
ATOM     30  H6  CHQ d   1      19.218  44.496  97.970  0.00  0.00     0.166 HD
ATOM     31  H7  CHQ d   1      18.111  43.295  99.982  0.00  0.00     0.114 H 
ENDBRANCH  21  24
ENDBRANCH   2  21
TORSDOF 2
