REMARK  4 active torsions:
REMARK  status: ('A' for Active; 'I' for Inactive)
REMARK    1  A    between atoms: CA_11  and  CB_12 
REMARK    2  A    between atoms: CB_12  and  CG_13 
REMARK    3  A    between atoms: CG_13  and  CD_14 
REMARK    4  A    between atoms: CD_14  and  NE_15 
REMARK       I    between atoms: NE_15  and  CZ_16 
REMARK       I    between atoms: CZ_16  and  NH1_17 
ROOT
ATOM      1  O   ALJ d   1      20.642  43.344 103.261  0.00  0.00    -0.271 OA
ATOM      2  C   ALJ d   1      19.484  43.342 102.846  0.00  0.00     0.243 C 
ATOM      3  NP  ALJ d   1      18.808  44.554 102.647  0.00  0.00    -0.337 N 
ATOM      4  CDP ALJ d   1      19.250  45.964 102.754  0.00  0.00    -0.001 C 
ATOM      5  CGP ALJ d   1      17.966  46.765 102.522  0.00  0.00    -0.048 C 
ATOM      6  CBP ALJ d   1      17.269  45.901 101.472  0.00  0.00    -0.036 C 
ATOM      7  CAP ALJ d   1      17.417  44.546 102.164  0.00  0.00     0.091 C 
ATOM      8  CP  ALJ d   1      17.200  43.392 101.186  0.00  0.00     0.241 C 
ATOM      9  OP  ALJ d   1      16.441  43.526 100.224  0.00  0.00    -0.271 OA
ATOM     10  N   ALJ d   1      17.866  42.179 101.410  0.00  0.00    -0.346 N 
ATOM     11  CA  ALJ d   1      18.759  42.024 102.569  0.00  0.00     0.089 C 
ATOM     12  H1  ALJ d   1      20.003  46.199 101.987  0.00  0.00     0.064 H 
ATOM     13  H2  ALJ d   1      19.666  46.170 103.751  0.00  0.00     0.064 H 
ATOM     14  H3  ALJ d   1      18.182  47.773 102.137  0.00  0.00     0.035 H 
ATOM     15  H4  ALJ d   1      17.368  46.844 103.442  0.00  0.00     0.035 H 
ATOM     16  H5  ALJ d   1      17.786  45.930 100.501  0.00  0.00     0.036 H 
ATOM     17  H6  ALJ d   1      16.215  46.184 101.335  0.00  0.00     0.036 H 
ATOM     18  H7  ALJ d   1      16.709  44.455 103.001  0.00  0.00     0.087 H 
ATOM     19  H8  ALJ d   1      17.733  41.415 100.779  0.00  0.00     0.163 HD
ATOM     20  H9  ALJ d   1      18.148  41.773 103.449  0.00  0.00     0.087 H 
ENDROOT
BRANCH  11  21
ATOM     21  CB  ALJ d   1      19.751  40.881 102.334  0.00  0.00    -0.036 C 
ATOM     22  H10 ALJ d   1      20.578  40.946 103.056  0.00  0.00     0.036 H 
ATOM     23  H11 ALJ d   1      20.152  40.935 101.311  0.00  0.00     0.036 H 
BRANCH  21  24
ATOM     24  CG  ALJ d   1      18.988  39.569 102.528  0.00  0.00    -0.048 C 
ATOM     25  H12 ALJ d   1      18.254  39.467 101.715  0.00  0.00     0.035 H 
ATOM     26  H13 ALJ d   1      18.463  39.608 103.494  0.00  0.00     0.035 H 
BRANCH  24  27
ATOM     27  CD  ALJ d   1      19.902  38.341 102.518  0.00  0.00     0.009 C 
ATOM     28  H14 ALJ d   1      20.619  38.387 103.351  0.00  0.00     0.064 H 
ATOM     29  H15 ALJ d   1      20.449  38.275 101.566  0.00  0.00     0.064 H 
BRANCH  27  30
ATOM     30  NE  ALJ d   1      19.000  37.189 102.676  0.00  0.00    -0.227 N 
ATOM     31  CZ  ALJ d   1      18.742  36.384 101.648  0.00  0.00     0.665 C 
ATOM     32  NH1 ALJ d   1      19.365  36.554 100.485  0.00  0.00    -0.235 N 
ATOM     33  NH2 ALJ d   1      17.899  35.364 101.800  0.00  0.00    -0.235 N 
ATOM     34  H17 ALJ d   1      19.160  35.927  99.694  0.00  0.00     0.174 HD
ATOM     35  H18 ALJ d   1      20.053  37.313 100.375  0.00  0.00     0.174 HD
ATOM     36  H19 ALJ d   1      17.413  35.227 102.698  0.00  0.00     0.174 HD
ATOM     37  H20 ALJ d   1      17.733  34.713 101.020  0.00  0.00     0.174 HD
ATOM     38  H16 ALJ d   1      18.564  37.004 103.591  0.00  0.00     0.177 HD
ENDBRANCH  27  30
ENDBRANCH  24  27
ENDBRANCH  21  24
ENDBRANCH  11  21
TORSDOF 4
