REMARK  3 active torsions:
REMARK  status: ('A' for Active; 'I' for Inactive)
REMARK    1  A    between atoms: CA_2  and  CB_5 
REMARK    2  A    between atoms: CB_5  and  CG_6 
REMARK    3  A    between atoms: CZ_11  and  OH_12 
ROOT
ATOM      1  N   TYP d   1      17.971  43.016 100.477  0.00  0.00    -0.346 N 
ATOM      2  CA  TYP d   1      18.872  42.586 101.565  0.00  0.00     0.093 C 
ATOM      3  C   TYP d   1      19.497  43.815 102.206  0.00  0.00     0.243 C 
ATOM      4  O   TYP d   1      20.654  43.803 102.585  0.00  0.00    -0.271 OA
ATOM      5  NP  TYP d   1      18.705  44.951 102.399  0.00  0.00    -0.337 N 
ATOM      6  CAP TYP d   1      17.277  44.893 101.993  0.00  0.00     0.091 C 
ATOM      7  CP  TYP d   1      17.189  44.168 100.648  0.00  0.00     0.241 C 
ATOM      8  OP  TYP d   1      16.473  44.583  99.729  0.00  0.00    -0.271 OA
ATOM      9  CBP TYP d   1      16.837  46.358 101.913  0.00  0.00    -0.036 C 
ATOM     10  CGP TYP d   1      18.134  47.168 101.952  0.00  0.00    -0.048 C 
ATOM     11  CDP TYP d   1      19.104  46.324 102.774  0.00  0.00    -0.001 C 
ATOM     12  H1  TYP d   1      17.919  42.492  99.627  0.00  0.00     0.163 HD
ATOM     13  H2  TYP d   1      18.297  42.035 102.324  0.00  0.00     0.088 H 
ATOM     14  H10 TYP d   1      16.674  44.356 102.739  0.00  0.00     0.087 H 
ATOM     15  H11 TYP d   1      16.195  46.615 102.769  0.00  0.00     0.036 H 
ATOM     16  H12 TYP d   1      16.292  46.547 100.976  0.00  0.00     0.036 H 
ATOM     17  H13 TYP d   1      17.966  48.143 102.433  0.00  0.00     0.035 H 
ATOM     18  H14 TYP d   1      18.523  47.323 100.935  0.00  0.00     0.035 H 
ATOM     19  H15 TYP d   1      20.148  46.528 102.494  0.00  0.00     0.064 H 
ATOM     20  H16 TYP d   1      18.972  46.499 103.852  0.00  0.00     0.064 H 
ENDROOT
BRANCH   2  21
ATOM     21  CB  TYP d   1      19.951  41.665 100.984  0.00  0.00    -0.014 C 
ATOM     22  H3  TYP d   1      20.767  41.548 101.713  0.00  0.00     0.043 H 
ATOM     23  H4  TYP d   1      20.348  42.103 100.056  0.00  0.00     0.043 H 
BRANCH  21  24
ATOM     24  CG  TYP d   1      19.338  40.301 100.682  0.00  0.00    -0.056 A 
ATOM     25  CD1 TYP d   1      18.684  40.068  99.447  0.00  0.00    -0.074 A 
ATOM     26  CE1 TYP d   1      18.101  38.810  99.195  0.00  0.00    -0.051 A 
ATOM     27  H5  TYP d   1      18.632  40.852  98.701  0.00  0.00     0.084 H 
ATOM     28  CZ  TYP d   1      18.171  37.790 100.170  0.00  0.00     0.065 A 
ATOM     29  H6  TYP d   1      17.599  38.625  98.252  0.00  0.00     0.087 H 
ATOM     30  CE2 TYP d   1      18.827  38.025 101.396  0.00  0.00    -0.051 A 
ATOM     31  CD2 TYP d   1      19.410  39.279 101.654  0.00  0.00    -0.074 A 
ATOM     32  H7  TYP d   1      18.882  37.239 102.140  0.00  0.00     0.087 H 
ATOM     33  H8  TYP d   1      19.913  39.460 102.597  0.00  0.00     0.084 H 
BRANCH  28  34
ATOM     34  OH  TYP d   1      17.592  36.578  99.930  0.00  0.00    -0.361 OA
ATOM     35  H9  TYP d   1      17.196  36.583  99.067  0.00  0.00     0.217 HD
ENDBRANCH  28  34
ENDBRANCH  21  24
ENDBRANCH   2  21
TORSDOF 3
