REMARK  7 active torsions:
REMARK  status: ('A' for Active; 'I' for Inactive)
REMARK    1  A    between atoms: C6_6  and  C4_7 
REMARK    2  A    between atoms: C1_11  and  S12_12 
REMARK    3  A    between atoms: S12_12  and  N15_15 
REMARK    4  A    between atoms: N15_15  and  C16_16 
REMARK    5  A    between atoms: N15_15  and  C17_17 
REMARK    6  A    between atoms: C20_22  and  C23_23 
REMARK       I    between atoms: C23_23  and  N24_25 
REMARK    7  A    between atoms: N24_25  and  O26_26 
ROOT
ATOM      1  N15 NHB d   1       1.579  13.512  31.163  0.00  0.00    -0.276 N 
ENDROOT
BRANCH   1   2
ATOM      2  S12 NHB d   1       2.802  14.587  30.967  0.00  0.00     0.271 S 
ATOM      3  O13 NHB d   1       2.587  15.844  31.738  0.00  0.00    -0.199 OA
ATOM      4  O14 NHB d   1       4.165  14.027  31.302  0.00  0.00    -0.199 OA
BRANCH   2   5
ATOM      5  C1  NHB d   1       2.655  14.887  29.243  0.00  0.00     0.121 A 
ATOM      6  S5  NHB d   1       1.549  15.951  28.573  0.00  0.00    -0.074 SA
ATOM      7  C4  NHB d   1       2.023  15.677  26.993  0.00  0.00     0.035 A 
ATOM      8  C3  NHB d   1       3.026  14.770  27.028  0.00  0.00    -0.062 A 
ATOM      9  C2  NHB d   1       3.376  14.330  28.265  0.00  0.00    -0.052 A 
ATOM     10  H5  NHB d   1       3.520  14.416  26.125  0.00  0.00     0.085 H 
ATOM     11  H6  NHB d   1       4.163  13.598  28.442  0.00  0.00     0.086 H 
BRANCH   7  12
ATOM     12  C6  NHB d   1       1.425  16.341  25.919  0.00  0.00     0.073 A 
ATOM     13  C7  NHB d   1       0.076  16.733  26.019  0.00  0.00    -0.054 A 
ATOM     14  C8  NHB d   1      -0.538  17.409  24.968  0.00  0.00    -0.079 A 
ATOM     15  H1  NHB d   1      -0.486  16.508  26.918  0.00  0.00     0.087 H 
ATOM     16  C9  NHB d   1       0.223  17.668  23.833  0.00  0.00    -0.066 A 
ATOM     17  H2  NHB d   1      -1.574  17.723  25.032  0.00  0.00     0.083 H 
ATOM     18  C10 NHB d   1       1.568  17.258  23.777  0.00  0.00     0.003 A 
ATOM     19  H3  NHB d   1      -0.221  18.186  22.991  0.00  0.00     0.085 H 
ATOM     20  N11 NHB d   1       2.142  16.623  24.798  0.00  0.00    -0.260 NA
ATOM     21  H4  NHB d   1       2.149  17.463  22.885  0.00  0.00     0.114 H 
ENDBRANCH   7  12
ENDBRANCH   2   5
ENDBRANCH   1   2
BRANCH   1  22
ATOM     22  C16 NHB d   1       0.225  14.017  31.397  0.00  0.00    -0.004 C 
ATOM     23  H7  NHB d   1      -0.469  13.170  31.506  0.00  0.00     0.058 H 
ATOM     24  H8  NHB d   1      -0.087  14.639  30.545  0.00  0.00     0.058 H 
ATOM     25  H9  NHB d   1       0.213  14.621  32.316  0.00  0.00     0.058 H 
ENDBRANCH   1  22
BRANCH   1  26
ATOM     26  C17 NHB d   1       1.790  12.195  31.062  0.00  0.00     0.044 A 
ATOM     27  C18 NHB d   1       1.901  11.401  32.189  0.00  0.00    -0.056 A 
ATOM     28  C19 NHB d   1       2.107  10.030  32.074  0.00  0.00    -0.066 A 
ATOM     29  H10 NHB d   1       1.827  11.852  33.172  0.00  0.00     0.087 H 
ATOM     30  C20 NHB d   1       2.215   9.413  30.833  0.00  0.00     0.034 A 
ATOM     31  H11 NHB d   1       2.185   9.429  32.973  0.00  0.00     0.085 H 
ATOM     32  C21 NHB d   1       2.097  10.223  29.707  0.00  0.00    -0.066 A 
ATOM     33  C22 NHB d   1       1.893  11.598  29.817  0.00  0.00    -0.056 A 
ATOM     34  H13 NHB d   1       2.165   9.775  28.722  0.00  0.00     0.085 H 
ATOM     35  H12 NHB d   1       1.815  12.204  28.922  0.00  0.00     0.087 H 
BRANCH  30  36
ATOM     36  C23 NHB d   1       2.484   7.890  30.709  0.00  0.00     0.275 C 
ATOM     37  O25 NHB d   1       2.622   7.353  29.623  0.00  0.00    -0.265 OA
ATOM     38  N24 NHB d   1       2.613   7.212  31.829  0.00  0.00    -0.233 N 
ATOM     39  H14 NHB d   1       2.422   7.658  32.703  0.00  0.00     0.197 HD
BRANCH  38  40
ATOM     40  O26 NHB d   1       3.003   5.913  31.809  0.00  0.00    -0.287 OA
ATOM     41  H15 NHB d   1       3.043   5.582  32.699  0.00  0.00     0.244 HD
ENDBRANCH  38  40
ENDBRANCH  30  36
ENDBRANCH   1  26
TORSDOF 7
