REMARK  7 active torsions:
REMARK  status: ('A' for Active; 'I' for Inactive)
REMARK    1  A    between atoms: P_1  and  O5_4 
REMARK    2  A    between atoms: O5_4  and  C5_5 
REMARK    3  A    between atoms: C5_5  and  C4_6 
REMARK    4  A    between atoms: C3_8  and  O3_9 
REMARK    5  A    between atoms: C2_10  and  O2_11 
REMARK    6  A    between atoms: C1_12  and  N9_13 
REMARK    7  A    between atoms: C2_20  and  N2_21 
ROOT
ATOM      1  C4  C2E d   1      91.763  17.072  86.334  0.00  0.00     0.089 C 
ATOM      2  O4  C2E d   1      92.971  16.657  85.679  0.00  0.00    -0.353 OA
ATOM      3  C3  C2E d   1      92.159  18.134  87.366  0.00  0.00     0.091 C 
ATOM      4  C2  C2E d   1      93.589  17.738  87.664  0.00  0.00     0.105 C 
ATOM      5  C1  C2E d   1      94.125  17.118  86.385  0.00  0.00     0.139 C 
ATOM      6  H3  C2E d   1      91.327  16.217  86.872  0.00  0.00     0.090 H 
ATOM      7  H4  C2E d   1      92.116  19.143  86.931  0.00  0.00     0.091 H 
ATOM      8  H6  C2E d   1      94.188  18.606  87.975  0.00  0.00     0.093 H 
ATOM      9  H8  C2E d   1      94.775  16.266  86.634  0.00  0.00     0.122 H 
ENDROOT
BRANCH   5  10
ATOM     10  N9  C2E d   1      94.912  18.084  85.566  0.00  0.00    -0.293 N 
ATOM     11  C8  C2E d   1      94.430  18.971  84.673  0.00  0.00     0.071 A 
ATOM     12  N7  C2E d   1      95.436  19.687  84.109  0.00  0.00    -0.234 NA
ATOM     13  H9  C2E d   1      93.375  19.096  84.436  0.00  0.00     0.144 H 
ATOM     14  C5  C2E d   1      96.591  19.258  84.637  0.00  0.00     0.173 A 
ATOM     15  C6  C2E d   1      98.033  19.583  84.483  0.00  0.00     0.292 A 
ATOM     16  C4  C2E d   1      96.240  18.201  85.594  0.00  0.00     0.186 A 
ATOM     17  O6  C2E d   1      98.422  20.468  83.686  0.00  0.00    -0.265 OA
ATOM     18  N1  C2E d   1      98.917  18.898  85.217  0.00  0.00    -0.152 N 
ATOM     19  C2  C2E d   1      98.539  17.938  86.082  0.00  0.00     0.703 A 
ATOM     20  H10 C2E d   1      99.890  19.106  85.120  0.00  0.00     0.187 HD
ATOM     21  N3  C2E d   1      97.238  17.589  86.275  0.00  0.00    -0.044 NA
BRANCH  19  22
ATOM     22  N2  C2E d   1      99.484  17.286  86.799  0.00  0.00    -0.233 N 
ATOM     23  H11 C2E d   1      99.209  16.549  87.464  0.00  0.00     0.174 HD
ATOM     24  H12 C2E d   1     100.478  17.526  86.679  0.00  0.00     0.174 HD
ENDBRANCH  19  22
ENDBRANCH   5  10
BRANCH   4  25
ATOM     25  O2  C2E d   1      93.591  16.728  88.671  0.00  0.00    -0.388 OA
ATOM     26  H7  C2E d   1      93.181  17.067  89.458  0.00  0.00     0.210 HD
ENDBRANCH   4  25
BRANCH   1  27
ATOM     27  C5  C2E d   1      90.749  17.525  85.282  0.00  0.00     0.059 C 
ATOM     28  H1  C2E d   1      90.744  16.806  84.450  0.00  0.00     0.079 H 
ATOM     29  H2  C2E d   1      89.748  17.566  85.737  0.00  0.00     0.079 H 
BRANCH  27  30
ATOM     30  O5  C2E d   1      91.093  18.816  84.786  0.00  0.00    -0.280 OA
BRANCH  30  31
ATOM     31  P   C2E d   1      90.115  19.576  83.765  0.00  0.00     0.422 P 
ATOM     32  O1P C2E d   1      90.783  20.809  83.195  0.00  0.00    -0.617 OA
ATOM     33  O2P C2E d   1      89.763  18.583  82.686  0.00  0.00    -0.617 OA
ATOM     34  O1  C2E d   1      88.875  19.994  84.478  0.00  0.00    -0.617 OA
ENDBRANCH  30  31
ENDBRANCH  27  30
ENDBRANCH   1  27
BRANCH   3  35
ATOM     35  O3  C2E d   1      91.303  18.094  88.537  0.00  0.00    -0.390 OA
ATOM     36  H5  C2E d   1      91.369  17.240  88.947  0.00  0.00     0.210 HD
ENDBRANCH   3  35
TORSDOF 7
