REMARK  6 active torsions:
REMARK  status: ('A' for Active; 'I' for Inactive)
REMARK    1  A    between atoms: P_1  and  O5_5 
REMARK    2  A    between atoms: O5_5  and  C5_6 
REMARK    3  A    between atoms: C5_6  and  C4_7 
REMARK    4  A    between atoms: C3_9  and  N3_10 
REMARK    5  A    between atoms: C1_12  and  N1_13 
REMARK    6  A    between atoms: C5_19  and  C5A_20 
ROOT
ATOM      1  C4  ATM d   1      29.801  23.952 100.293  0.00  0.00     0.089 C 
ATOM      2  O4  ATM d   1      30.190  23.739 101.648  0.00  0.00    -0.357 OA
ATOM      3  C3  ATM d   1      28.426  24.542 100.320  0.00  0.00     0.130 C 
ATOM      4  C2  ATM d   1      28.374  25.298 101.672  0.00  0.00     0.005 C 
ATOM      5  C1  ATM d   1      29.382  24.483 102.529  0.00  0.00     0.116 C 
ATOM      6  H3  ATM d   1      29.744  22.953  99.837  0.00  0.00     0.089 H 
ATOM      7  H4  ATM d   1      28.306  25.256  99.492  0.00  0.00     0.088 H 
ATOM      8  H8  ATM d   1      27.364  25.271 102.108  0.00  0.00     0.042 H 
ATOM      9  H9  ATM d   1      28.697  26.343 101.559  0.00  0.00     0.042 H 
ATOM     10  H10 ATM d   1      28.768  23.781 103.112  0.00  0.00     0.118 H 
ENDROOT
BRANCH   5  11
ATOM     11  N1  ATM d   1      30.299  25.139 103.528  0.00  0.00    -0.282 N 
ATOM     12  C2  ATM d   1      31.175  24.261 104.286  0.00  0.00     0.330 A 
ATOM     13  O2  ATM d   1      31.201  23.030 104.134  0.00  0.00    -0.246 OA
ATOM     14  N3  ATM d   1      31.979  24.915 105.194  0.00  0.00    -0.286 N 
ATOM     15  C4  ATM d   1      31.946  26.314 105.369  0.00  0.00     0.190 A 
ATOM     16  H11 ATM d   1      32.611  24.376 105.751  0.00  0.00     0.172 HD
ATOM     17  O4  ATM d   1      32.776  26.866 106.290  0.00  0.00    -0.171 OA
ATOM     18  C5  ATM d   1      31.021  27.169 104.557  0.00  0.00     0.008 A 
ATOM     19  C6  ATM d   1      30.208  26.514 103.638  0.00  0.00    -0.003 A 
ATOM     20  H15 ATM d   1      29.512  27.075 103.016  0.00  0.00     0.113 H 
BRANCH  18  21
ATOM     21  C5A ATM d   1      31.008  28.649 104.761  0.00  0.00    -0.046 C 
ATOM     22  H12 ATM d   1      30.273  29.106 104.083  0.00  0.00     0.033 H 
ATOM     23  H13 ATM d   1      32.007  29.057 104.548  0.00  0.00     0.033 H 
ATOM     24  H14 ATM d   1      30.735  28.873 105.803  0.00  0.00     0.033 H 
ENDBRANCH  18  21
ENDBRANCH   5  11
BRANCH   1  25
ATOM     25  C5  ATM d   1      30.669  24.806  99.324  0.00  0.00     0.058 C 
ATOM     26  H1  ATM d   1      30.026  25.441  98.696  0.00  0.00     0.079 H 
ATOM     27  H2  ATM d   1      31.365  25.439  99.894  0.00  0.00     0.079 H 
BRANCH  25  28
ATOM     28  O5  ATM d   1      31.414  23.856  98.490  0.00  0.00    -0.280 OA
BRANCH  28  29
ATOM     29  P   ATM d   1      32.404  24.402  97.334  0.00  0.00     0.422 P 
ATOM     30  O1P ATM d   1      33.050  23.269  96.662  0.00  0.00    -0.617 OA
ATOM     31  O2P ATM d   1      31.615  25.322  96.478  0.00  0.00    -0.617 OA
ATOM     32  O3P ATM d   1      33.446  25.239  98.218  0.00  0.00    -0.617 OA
ENDBRANCH  28  29
ENDBRANCH  25  28
ENDBRANCH   1  25
BRANCH   3  33
ATOM     33  N3  ATM d   1      27.362  23.479 100.181  0.00  0.00    -0.072 N 
ATOM     34  H5  ATM d   1      26.451  23.910 100.203  0.00  0.00     0.274 HD
ATOM     35  H6  ATM d   1      27.441  22.823 100.942  0.00  0.00     0.274 HD
ATOM     36  H7  ATM d   1      27.483  22.995  99.305  0.00  0.00     0.274 HD
ENDBRANCH   3  33
TORSDOF 6
