REMARK  12 active torsions:
REMARK  status: ('A' for Active; 'I' for Inactive)
REMARK    1  A    between atoms: C1_1  and  N1_2 
REMARK    2  A    between atoms: C1_1  and  C2_4 
REMARK    3  A    between atoms: C5_7  and  N3_8 
REMARK    4  A    between atoms: N3_8  and  C11_9 
REMARK    5  A    between atoms: C11_9  and  C22_10 
REMARK    6  A    between atoms: C11_9  and  C12_20 
REMARK       I    between atoms: C22_10  and  N24_11 
REMARK    7  A    between atoms: N24_11  and  C25_12 
REMARK    8  A    between atoms: C25_12  and  C26_13 
REMARK    9  A    between atoms: C19_22  and  O2_23 
REMARK   10  A    between atoms: O2_23  and  C24_24 
REMARK   11  A    between atoms: C20_25  and  O3_26 
REMARK   12  A    between atoms: O3_26  and  C32_27 
ROOT
ATOM      1  C11 380 d   1      32.172   6.272   8.889  0.00  0.00     0.113 C 
ATOM      2  H8  380 d   1      32.217   5.348   9.485  0.00  0.00     0.095 H 
ENDROOT
BRANCH   1   3
ATOM      3  N3  380 d   1      30.954   6.983   9.397  0.00  0.00    -0.373 N 
ATOM      4  H7  380 d   1      30.347   7.524   8.765  0.00  0.00     0.161 HD
BRANCH   3   5
ATOM      5  C5  380 d   1      30.672   6.882  10.780  0.00  0.00     0.028 A 
ATOM      6  C4  380 d   1      29.784   7.752  11.431  0.00  0.00    -0.057 A 
ATOM      7  C3  380 d   1      29.736   7.756  12.827  0.00  0.00    -0.067 A 
ATOM      8  H6  380 d   1      29.143   8.412  10.858  0.00  0.00     0.086 H 
ATOM      9  C2  380 d   1      30.566   6.897  13.606  0.00  0.00     0.007 A 
ATOM     10  H5  380 d   1      29.051   8.429  13.331  0.00  0.00     0.085 H 
ATOM     11  C7  380 d   1      31.462   6.053  12.936  0.00  0.00    -0.067 A 
ATOM     12  C6  380 d   1      31.508   6.046  11.546  0.00  0.00    -0.057 A 
ATOM     13  H27 380 d   1      32.120   5.404  13.502  0.00  0.00     0.085 H 
ATOM     14  H26 380 d   1      32.202   5.383  11.041  0.00  0.00     0.086 H 
BRANCH   9  15
ATOM     15  C1  380 d   1      30.340   6.710  15.052  0.00  0.00     0.102 C 
ATOM     16  N2  380 d   1      31.011   5.803  15.798  0.00  0.00    -0.385 N 
ATOM     17  H3  380 d   1      31.799   5.281  15.388  0.00  0.00     0.157 HD
ATOM     18  H4  380 d   1      30.734   5.634  16.776  0.00  0.00     0.157 HD
BRANCH  15  19
ATOM     19  N1  380 d   1      29.336   7.305  15.741  0.00  0.00    -0.385 N 
ATOM     20  H1  380 d   1      28.748   8.017  15.283  0.00  0.00     0.157 HD
ATOM     21  H2  380 d   1      29.160   7.046  16.722  0.00  0.00     0.157 HD
ENDBRANCH  15  19
ENDBRANCH   9  15
ENDBRANCH   3   5
ENDBRANCH   1   3
BRANCH   1  22
ATOM     22  C22 380 d   1      32.032   5.840   7.484  0.00  0.00     0.245 C 
ATOM     23  N24 380 d   1      31.653   6.708   6.515  0.00  0.00    -0.355 N 
ATOM     24  H9  380 d   1      31.295   7.631   6.660  0.00  0.00     0.162 HD
ATOM     25  O23 380 d   1      32.392   4.742   7.086  0.00  0.00    -0.271 OA
BRANCH  23  26
ATOM     26  C25 380 d   1      31.863   6.046   5.195  0.00  0.00     0.019 C 
ATOM     27  H10 380 d   1      30.980   6.215   4.561  0.00  0.00     0.071 H 
ATOM     28  H11 380 d   1      32.002   4.966   5.350  0.00  0.00     0.071 H 
BRANCH  26  29
ATOM     29  C26 380 d   1      33.076   6.607   4.511  0.00  0.00    -0.041 A 
ATOM     30  C27 380 d   1      32.843   7.745   3.750  0.00  0.00    -0.075 A 
ATOM     31  C28 380 d   1      33.815   8.726   3.659  0.00  0.00    -0.082 A 
ATOM     32  H12 380 d   1      31.901   7.865   3.228  0.00  0.00     0.084 H 
ATOM     33  C29 380 d   1      35.029   8.564   4.320  0.00  0.00    -0.083 A 
ATOM     34  H13 380 d   1      33.631   9.620   3.074  0.00  0.00     0.083 H 
ATOM     35  C30 380 d   1      35.295   7.399   5.033  0.00  0.00    -0.082 A 
ATOM     36  H14 380 d   1      35.773   9.351   4.279  0.00  0.00     0.083 H 
ATOM     37  C31 380 d   1      34.315   6.417   5.112  0.00  0.00    -0.075 A 
ATOM     38  H15 380 d   1      36.253   7.260   5.520  0.00  0.00     0.083 H 
ATOM     39  H16 380 d   1      34.518   5.496   5.646  0.00  0.00     0.084 H 
ENDBRANCH  26  29
ENDBRANCH  23  26
ENDBRANCH   1  22
BRANCH   1  40
ATOM     40  C12 380 d   1      33.542   6.946   9.103  0.00  0.00    -0.024 A 
ATOM     41  C17 380 d   1      33.856   8.268   8.743  0.00  0.00    -0.040 A 
ATOM     42  C19 380 d   1      35.175   8.739   8.896  0.00  0.00     0.102 A 
ATOM     43  H17 380 d   1      33.087   8.922   8.349  0.00  0.00     0.088 H 
ATOM     44  C20 380 d   1      36.177   7.916   9.418  0.00  0.00     0.101 A 
ATOM     45  C18 380 d   1      35.868   6.603   9.765  0.00  0.00    -0.047 A 
ATOM     46  C16 380 d   1      34.565   6.141   9.601  0.00  0.00    -0.072 A 
ATOM     47  H25 380 d   1      36.635   5.947  10.159  0.00  0.00     0.087 H 
ATOM     48  H24 380 d   1      34.337   5.116   9.871  0.00  0.00     0.084 H 
BRANCH  42  49
ATOM     49  O2  380 d   1      35.584   9.984   8.447  0.00  0.00    -0.353 OA
BRANCH  49  50
ATOM     50  C24 380 d   1      34.626  10.880   7.890  0.00  0.00     0.010 C 
ATOM     51  H18 380 d   1      35.127  11.812   7.590  0.00  0.00     0.066 H 
ATOM     52  H19 380 d   1      33.853  11.104   8.640  0.00  0.00     0.066 H 
ATOM     53  H20 380 d   1      34.158  10.416   7.009  0.00  0.00     0.066 H 
ENDBRANCH  49  50
ENDBRANCH  42  49
BRANCH  44  54
ATOM     54  O3  380 d   1      37.391   8.516   9.764  0.00  0.00    -0.353 OA
BRANCH  54  55
ATOM     55  C32 380 d   1      38.387   7.846  10.556  0.00  0.00     0.010 C 
ATOM     56  H21 380 d   1      39.251   8.512  10.698  0.00  0.00     0.066 H 
ATOM     57  H22 380 d   1      38.711   6.930  10.040  0.00  0.00     0.066 H 
ATOM     58  H23 380 d   1      37.961   7.584  11.536  0.00  0.00     0.066 H 
ENDBRANCH  54  55
ENDBRANCH  44  54
ENDBRANCH   1  40
TORSDOF 12
