REMARK  3 active torsions:
REMARK  status: ('A' for Active; 'I' for Inactive)
REMARK       I    between atoms: N26_6  and  C26_7 
REMARK    1  A    between atoms: C26_7  and  C25_9 
REMARK    2  A    between atoms: N20_14  and  C20_15 
REMARK       I    between atoms: N15_20  and  C15_21 
REMARK    3  A    between atoms: C15_21  and  C14_23 
ROOT
ATOM      1  C20 RCP d   1      -4.259  30.342 -21.899  0.00  0.00     0.107 C 
ATOM      2  C19 RCP d   1      -3.908  31.634 -22.643  0.00  0.00    -0.023 C 
ATOM      3  C18 RCP d   1      -3.196  31.330 -23.964  0.00  0.00    -0.000 C 
ATOM      4  C17 RCP d   1      -5.184  29.489 -22.773  0.00  0.00    -0.023 C 
ATOM      5  C16 RCP d   1      -4.501  29.127 -24.095  0.00  0.00    -0.000 C 
ATOM      6  N15 RCP d   1      -3.998  30.359 -24.746  0.00  0.00    -0.348 N 
ATOM      7  C15 RCP d   1      -4.274  30.577 -26.031  0.00  0.00     0.255 C 
ATOM      8  O15 RCP d   1      -4.788  29.677 -26.694  0.00  0.00    -0.267 OA
ATOM      9  H19 RCP d   1      -3.333  29.777 -21.718  0.00  0.00     0.084 H 
ATOM     10  H20 RCP d   1      -3.247  32.245 -22.011  0.00  0.00     0.038 H 
ATOM     11  H21 RCP d   1      -4.833  32.191 -22.853  0.00  0.00     0.038 H 
ATOM     12  H22 RCP d   1      -2.204  30.903 -23.756  0.00  0.00     0.064 H 
ATOM     13  H23 RCP d   1      -3.081  32.260 -24.541  0.00  0.00     0.064 H 
ATOM     14  H24 RCP d   1      -6.103  30.055 -22.985  0.00  0.00     0.038 H 
ATOM     15  H25 RCP d   1      -5.439  28.565 -22.234  0.00  0.00     0.038 H 
ATOM     16  H26 RCP d   1      -5.226  28.632 -24.758  0.00  0.00     0.064 H 
ATOM     17  H27 RCP d   1      -3.659  28.447 -23.898  0.00  0.00     0.064 H 
ENDROOT
BRANCH   1  18
ATOM     18  N20 RCP d   1      -4.876  30.646 -20.597  0.00  0.00    -0.066 N 
ATOM     19  C24 RCP d   1      -3.909  31.361 -19.749  0.00  0.00     0.095 C 
ATOM     20  C25 RCP d   1      -4.596  31.871 -18.480  0.00  0.00     0.047 C 
ATOM     21  H10 RCP d   1      -3.094  30.677 -19.471  0.00  0.00     0.077 H 
ATOM     22  H11 RCP d   1      -3.497  32.215 -20.308  0.00  0.00     0.077 H 
ATOM     23  C23 RCP d   1      -5.242  30.704 -17.727  0.00  0.00    -0.051 C 
ATOM     24  H9  RCP d   1      -5.369  32.606 -18.748  0.00  0.00     0.057 H 
ATOM     25  C22 RCP d   1      -6.085  29.808 -18.640  0.00  0.00    -0.042 C 
ATOM     26  H12 RCP d   1      -5.890  31.110 -16.936  0.00  0.00     0.034 H 
ATOM     27  H13 RCP d   1      -4.447  30.095 -17.272  0.00  0.00     0.034 H 
ATOM     28  C21 RCP d   1      -5.310  29.424 -19.903  0.00  0.00     0.084 C 
ATOM     29  H14 RCP d   1      -6.999  30.348 -18.929  0.00  0.00     0.035 H 
ATOM     30  H15 RCP d   1      -6.357  28.893 -18.093  0.00  0.00     0.035 H 
ATOM     31  H16 RCP d   1      -5.959  28.835 -20.568  0.00  0.00     0.076 H 
ATOM     32  H17 RCP d   1      -4.429  28.826 -19.626  0.00  0.00     0.076 H 
ATOM     33  H18 RCP d   1      -5.680  31.234 -20.751  0.00  0.00     0.280 HD
BRANCH  20  34
ATOM     34  C26 RCP d   1      -3.542  32.531 -17.587  0.00  0.00     0.225 C 
ATOM     35  N26 RCP d   1      -3.827  33.609 -16.861  0.00  0.00    -0.348 N 
ATOM     36  C29 RCP d   1      -5.213  34.131 -16.780  0.00  0.00     0.017 C 
ATOM     37  C27 RCP d   1      -2.739  34.293 -16.123  0.00  0.00     0.017 C 
ATOM     38  C30 RCP d   1      -5.219  35.662 -16.738  0.00  0.00     0.034 C 
ATOM     39  H1  RCP d   1      -5.777  33.793 -17.662  0.00  0.00     0.067 H 
ATOM     40  H2  RCP d   1      -5.691  33.744 -15.868  0.00  0.00     0.067 H 
ATOM     41  O28 RCP d   1      -4.271  36.131 -15.764  0.00  0.00    -0.388 OA
ATOM     42  H3  RCP d   1      -6.225  36.015 -16.467  0.00  0.00     0.076 H 
ATOM     43  H4  RCP d   1      -4.947  36.055 -17.729  0.00  0.00     0.076 H 
ATOM     44  C28 RCP d   1      -2.926  35.812 -16.154  0.00  0.00     0.034 C 
ATOM     45  H5  RCP d   1      -2.219  36.284 -15.456  0.00  0.00     0.076 H 
ATOM     46  H6  RCP d   1      -2.740  36.185 -17.172  0.00  0.00     0.076 H 
ATOM     47  H7  RCP d   1      -2.743  33.951 -15.078  0.00  0.00     0.067 H 
ATOM     48  H8  RCP d   1      -1.775  34.040 -16.588  0.00  0.00     0.067 H 
ATOM     49  O26 RCP d   1      -2.403  32.064 -17.541  0.00  0.00    -0.273 OA
ENDBRANCH  20  34
ENDBRANCH   1  18
BRANCH   7  50
ATOM     50  C14 RCP d   1      -3.967  31.927 -26.689  0.00  0.00     0.054 A 
ATOM     51  C1  RCP d   1      -2.806  32.090 -27.441  0.00  0.00    -0.009 A 
ATOM     52  C2  RCP d   1      -1.875  31.058 -27.548  0.00  0.00    -0.071 A 
ATOM     53  C6  RCP d   1      -2.565  33.295 -28.099  0.00  0.00    -0.024 A 
ATOM     54  C3  RCP d   1      -0.719  31.223 -28.305  0.00  0.00    -0.082 A 
ATOM     55  H28 RCP d   1      -2.053  30.119 -27.037  0.00  0.00     0.084 H 
ATOM     56  C4  RCP d   1      -0.485  32.426 -28.963  0.00  0.00    -0.082 A 
ATOM     57  H29 RCP d   1      -0.001  30.414 -28.382  0.00  0.00     0.083 H 
ATOM     58  C5  RCP d   1      -1.409  33.461 -28.859  0.00  0.00    -0.072 A 
ATOM     59  H30 RCP d   1       0.414  32.557 -29.555  0.00  0.00     0.083 H 
ATOM     60  H31 RCP d   1      -1.229  34.400 -29.371  0.00  0.00     0.084 H 
ATOM     61  C7  RCP d   1      -3.478  34.340 -28.001  0.00  0.00    -0.061 A 
ATOM     62  C8  RCP d   1      -4.634  34.182 -27.242  0.00  0.00    -0.024 A 
ATOM     63  H32 RCP d   1      -3.289  35.276 -28.515  0.00  0.00     0.086 H 
ATOM     64  C13 RCP d   1      -4.879  32.976 -26.584  0.00  0.00    -0.009 A 
ATOM     65  C9  RCP d   1      -5.530  35.239 -27.129  0.00  0.00    -0.072 A 
ATOM     66  C12 RCP d   1      -6.030  32.845 -25.813  0.00  0.00    -0.071 A 
ATOM     67  C11 RCP d   1      -6.929  33.902 -25.696  0.00  0.00    -0.082 A 
ATOM     68  H33 RCP d   1      -6.229  31.912 -25.299  0.00  0.00     0.084 H 
ATOM     69  C10 RCP d   1      -6.680  35.102 -26.355  0.00  0.00    -0.082 A 
ATOM     70  H34 RCP d   1      -7.822  33.790 -25.092  0.00  0.00     0.083 H 
ATOM     71  H35 RCP d   1      -7.378  35.927 -26.266  0.00  0.00     0.083 H 
ATOM     72  H36 RCP d   1      -5.333  36.172 -27.645  0.00  0.00     0.084 H 
ENDBRANCH   7  50
TORSDOF 3
