REMARK  12 active torsions:
REMARK  status: ('A' for Active; 'I' for Inactive)
REMARK    1  A    between atoms: C3_3  and  O3_35 
REMARK    2  A    between atoms: C7_7  and  O2_34 
REMARK    3  A    between atoms: O2_34  and  C16_16 
REMARK    4  A    between atoms: C18_18  and  C17_17 
REMARK    5  A    between atoms: C17_17  and  N1_38 
REMARK    6  A    between atoms: C19_19  and  C18_18 
REMARK    7  A    between atoms: C20_20  and  C19_19 
REMARK    8  A    between atoms: C21_21  and  C20_20 
REMARK    9  A    between atoms: C22_22  and  C21_21 
REMARK   10  A    between atoms: C23_23  and  C22_22 
REMARK   11  A    between atoms: C24_24  and  C23_23 
REMARK   12  A    between atoms: N2_39  and  C24_24 
ROOT
ATOM      1  C17 GL8 d   1       1.043  67.113  68.107  0.00  0.00    -0.006 C 
ATOM      2  H17 GL8 d   1       0.299  67.919  68.023  0.00  0.00     0.064 H 
ATOM      3  H18 GL8 d   1       0.532  66.165  68.329  0.00  0.00     0.064 H 
ENDROOT
BRANCH   1   4
ATOM      4  C18 GL8 d   1       2.037  67.450  69.287  0.00  0.00    -0.050 C 
ATOM      5  H19 GL8 d   1       1.481  67.372  70.233  0.00  0.00     0.035 H 
ATOM      6  H20 GL8 d   1       2.388  68.484  69.152  0.00  0.00     0.035 H 
BRANCH   4   7
ATOM      7  C19 GL8 d   1       3.317  66.504  69.388  0.00  0.00    -0.064 C 
ATOM      8  H21 GL8 d   1       3.958  66.845  70.214  0.00  0.00     0.033 H 
ATOM      9  H22 GL8 d   1       3.880  66.550  68.444  0.00  0.00     0.033 H 
BRANCH   7  10
ATOM     10  C20 GL8 d   1       2.879  65.057  69.649  0.00  0.00    -0.065 C 
ATOM     11  H23 GL8 d   1       2.220  64.726  68.833  0.00  0.00     0.033 H 
ATOM     12  H24 GL8 d   1       2.333  65.011  70.603  0.00  0.00     0.033 H 
BRANCH  10  13
ATOM     13  C21 GL8 d   1       4.104  64.126  69.721  0.00  0.00    -0.065 C 
ATOM     14  H25 GL8 d   1       4.624  64.273  70.679  0.00  0.00     0.033 H 
ATOM     15  H26 GL8 d   1       4.790  64.353  68.892  0.00  0.00     0.033 H 
BRANCH  13  16
ATOM     16  C22 GL8 d   1       3.616  62.636  69.609  0.00  0.00    -0.064 C 
ATOM     17  H27 GL8 d   1       4.454  61.997  69.292  0.00  0.00     0.033 H 
ATOM     18  H28 GL8 d   1       2.804  62.569  68.870  0.00  0.00     0.033 H 
BRANCH  16  19
ATOM     19  C23 GL8 d   1       3.094  62.160  71.002  0.00  0.00    -0.050 C 
ATOM     20  H29 GL8 d   1       3.042  62.989  71.724  0.00  0.00     0.035 H 
ATOM     21  H30 GL8 d   1       3.715  61.352  71.416  0.00  0.00     0.035 H 
BRANCH  19  22
ATOM     22  C24 GL8 d   1       1.782  61.691  70.631  0.00  0.00     0.006 C 
ATOM     23  H31 GL8 d   1       1.931  60.922  69.859  0.00  0.00     0.065 H 
ATOM     24  H32 GL8 d   1       1.254  62.552  70.194  0.00  0.00     0.065 H 
BRANCH  22  25
ATOM     25  N2  GL8 d   1       0.900  61.124  71.604  0.00  0.00    -0.280 N 
ATOM     26  C25 GL8 d   1      -0.176  61.749  72.052  0.00  0.00     0.261 A 
ATOM     27  C26 GL8 d   1      -0.903  60.830  72.795  0.00  0.00     0.048 A 
ATOM     28  O25 GL8 d   1      -0.461  62.994  71.899  0.00  0.00    -0.267 OA
ATOM     29  C27 GL8 d   1      -2.152  60.948  73.429  0.00  0.00    -0.067 A 
ATOM     30  C31 GL8 d   1      -0.178  59.654  72.799  0.00  0.00     0.048 A 
ATOM     31  C28 GL8 d   1      -2.664  59.776  74.090  0.00  0.00    -0.082 A 
ATOM     32  H33 GL8 d   1      -2.705  61.880  73.421  0.00  0.00     0.085 H 
ATOM     33  C29 GL8 d   1      -1.912  58.571  74.089  0.00  0.00    -0.082 A 
ATOM     34  H34 GL8 d   1      -3.625  59.813  74.590  0.00  0.00     0.083 H 
ATOM     35  C30 GL8 d   1      -0.641  58.490  73.442  0.00  0.00    -0.067 A 
ATOM     36  H35 GL8 d   1      -2.310  57.696  74.589  0.00  0.00     0.083 H 
ATOM     37  H36 GL8 d   1      -0.060  57.575  73.446  0.00  0.00     0.085 H 
ATOM     38  C32 GL8 d   1       0.965  59.874  72.041  0.00  0.00     0.261 A 
ATOM     39  O32 GL8 d   1       1.903  59.026  71.838  0.00  0.00    -0.267 OA
ENDBRANCH  22  25
ENDBRANCH  19  22
ENDBRANCH  16  19
ENDBRANCH  13  16
ENDBRANCH  10  13
ENDBRANCH   7  10
ENDBRANCH   4   7
ENDBRANCH   1   4
BRANCH   1  40
ATOM     40  N1  GL8 d   1       1.757  66.985  66.827  0.00  0.00    -0.389 N 
ATOM     41  C10 GL8 d   1       1.987  65.769  66.504  0.00  0.00    -0.015 C 
ATOM     42  C15 GL8 d   1       2.810  65.120  65.494  0.00  0.00    -0.011 A 
ATOM     43  H9  GL8 d   1       1.444  65.058  67.125  0.00  0.00     0.112 H 
ATOM     44  C9  GL8 d   1       2.855  63.677  65.522  0.00  0.00    -0.068 A 
ATOM     45  C14 GL8 d   1       3.579  65.769  64.555  0.00  0.00     0.005 A 
ATOM     46  C8  GL8 d   1       3.670  62.944  64.638  0.00  0.00    -0.047 A 
ATOM     47  H8  GL8 d   1       2.245  63.144  66.243  0.00  0.00     0.085 H 
ATOM     48  C7  GL8 d   1       4.488  63.646  63.691  0.00  0.00     0.102 A 
ATOM     49  H7  GL8 d   1       3.679  61.861  64.673  0.00  0.00     0.087 H 
ATOM     50  C13 GL8 d   1       4.406  65.035  63.668  0.00  0.00     0.111 A 
ATOM     51  O1  GL8 d   1       5.115  65.843  62.791  0.00  0.00    -0.341 OA
ATOM     52  C5  GL8 d   1       5.044  67.066  63.510  0.00  0.00     0.062 C 
ATOM     53  C4  GL8 d   1       5.297  68.318  62.591  0.00  0.00    -0.012 C 
ATOM     54  C6  GL8 d   1       3.692  67.198  64.243  0.00  0.00     0.036 C 
ATOM     55  H6  GL8 d   1       5.838  67.047  64.270  0.00  0.00     0.086 H 
ATOM     56  C3  GL8 d   1       4.132  68.302  61.410  0.00  0.00     0.054 C 
ATOM     57  H4  GL8 d   1       5.221  69.242  63.183  0.00  0.00     0.041 H 
ATOM     58  H5  GL8 d   1       6.296  68.256  62.136  0.00  0.00     0.041 H 
ATOM     59  C2  GL8 d   1       2.710  68.092  62.001  0.00  0.00    -0.078 C 
ATOM     60  H3  GL8 d   1       4.204  69.237  60.834  0.00  0.00     0.089 H 
ATOM     61  C1  GL8 d   1       2.536  67.552  63.228  0.00  0.00    -0.089 C 
ATOM     62  H2  GL8 d   1       1.839  68.385  61.417  0.00  0.00     0.080 H 
ATOM     63  H1  GL8 d   1       1.514  67.344  63.542  0.00  0.00     0.078 H 
ATOM     64  C12 GL8 d   1       3.625  68.230  65.432  0.00  0.00    -0.034 C 
ATOM     65  C11 GL8 d   1       2.239  68.248  66.149  0.00  0.00    -0.004 C 
ATOM     66  H12 GL8 d   1       3.827  69.236  65.035  0.00  0.00     0.037 H 
ATOM     67  H13 GL8 d   1       4.397  67.965  66.169  0.00  0.00     0.037 H 
ATOM     68  H10 GL8 d   1       1.487  68.517  65.393  0.00  0.00     0.064 H 
ATOM     69  H11 GL8 d   1       2.283  69.032  66.919  0.00  0.00     0.064 H 
BRANCH  48  70
ATOM     70  O2  GL8 d   1       5.473  63.058  62.869  0.00  0.00    -0.353 OA
BRANCH  70  71
ATOM     71  C16 GL8 d   1       5.710  61.665  63.094  0.00  0.00     0.010 C 
ATOM     72  H14 GL8 d   1       6.491  61.310  62.405  0.00  0.00     0.066 H 
ATOM     73  H15 GL8 d   1       4.782  61.102  62.918  0.00  0.00     0.066 H 
ATOM     74  H16 GL8 d   1       6.040  61.512  64.132  0.00  0.00     0.066 H 
ENDBRANCH  70  71
ENDBRANCH  48  70
BRANCH  56  75
ATOM     75  O3  GL8 d   1       4.159  67.111  60.512  0.00  0.00    -0.392 OA
ATOM     76  H37 GL8 d   1       4.034  66.323  61.029  0.00  0.00     0.210 HD
ENDBRANCH  56  75
ENDBRANCH   1  40
TORSDOF 12
