REMARK  19 active torsions:
REMARK  status: ('A' for Active; 'I' for Inactive)
REMARK    1  A    between atoms: C1_1  and  C2_2 
REMARK    2  A    between atoms: C2_2  and  C3_3 
REMARK    3  A    between atoms: C3_3  and  N4_4 
REMARK    4  A    between atoms: N4_4  and  C5_5 
REMARK       I    between atoms: N4_4  and  C8_8 
REMARK    5  A    between atoms: C5_5  and  C6_6 
REMARK    6  A    between atoms: C6_6  and  C7_7 
REMARK    7  A    between atoms: C8_8  and  C10_10 
REMARK    8  A    between atoms: C14_14  and  C16_16 
REMARK       I    between atoms: C16_16  and  N18_18 
REMARK    9  A    between atoms: N18_18  and  C19_19 
REMARK   10  A    between atoms: C19_19  and  C21_20 
REMARK   11  A    between atoms: C19_19  and  C28_27 
REMARK   12  A    between atoms: C21_20  and  C22_21 
REMARK   13  A    between atoms: C28_27  and  O30_28 
REMARK   14  A    between atoms: C28_27  and  C31_29 
REMARK   15  A    between atoms: C31_29  and  N32_30 
REMARK   16  A    between atoms: N32_30  and  C35_31 
REMARK   17  A    between atoms: C35_31  and  C36_32 
REMARK   18  A    between atoms: C40_36  and  O41_37 
REMARK   19  A    between atoms: O41_37  and  C42_38 
ROOT
ATOM      1  C19 L01 d   1      68.095  48.862   7.541  0.00  0.00     0.042 C 
ATOM      2  H20 L01 d   1      68.198  49.077   8.615  0.00  0.00     0.077 H 
ENDROOT
BRANCH   1   3
ATOM      3  N18 L01 d   1      68.523  47.514   7.245  0.00  0.00    -0.349 N 
ATOM      4  C16 L01 d   1      68.804  46.590   8.188  0.00  0.00     0.252 C 
ATOM      5  O17 L01 d   1      68.482  46.712   9.361  0.00  0.00    -0.268 OA
ATOM      6  H19 L01 d   1      68.617  47.250   6.285  0.00  0.00     0.163 HD
BRANCH   4   7
ATOM      7  C14 L01 d   1      69.493  45.378   7.770  0.00  0.00     0.033 A 
ATOM      8  C13 L01 d   1      69.143  44.190   8.410  0.00  0.00    -0.068 A 
ATOM      9  C12 L01 d   1      69.765  43.018   8.058  0.00  0.00    -0.081 A 
ATOM     10  H17 L01 d   1      68.383  44.192   9.183  0.00  0.00     0.085 H 
ATOM     11  C11 L01 d   1      70.712  43.009   7.059  0.00  0.00    -0.068 A 
ATOM     12  H16 L01 d   1      69.510  42.096   8.569  0.00  0.00     0.083 H 
ATOM     13  C10 L01 d   1      71.071  44.185   6.415  0.00  0.00     0.033 A 
ATOM     14  H15 L01 d   1      71.182  42.075   6.773  0.00  0.00     0.085 H 
ATOM     15  C15 L01 d   1      70.444  45.383   6.756  0.00  0.00    -0.052 A 
ATOM     16  H18 L01 d   1      70.694  46.303   6.239  0.00  0.00     0.086 H 
BRANCH  13  17
ATOM     17  C8  L01 d   1      72.092  44.082   5.351  0.00  0.00     0.253 C 
ATOM     18  N4  L01 d   1      73.140  44.903   5.258  0.00  0.00    -0.348 N 
ATOM     19  O9  L01 d   1      72.000  43.202   4.512  0.00  0.00    -0.267 OA
BRANCH  18  20
ATOM     20  C3  L01 d   1      73.850  44.918   3.966  0.00  0.00    -0.002 C 
ATOM     21  H6  L01 d   1      74.930  44.855   4.165  0.00  0.00     0.064 H 
ATOM     22  H7  L01 d   1      73.532  44.038   3.388  0.00  0.00     0.064 H 
BRANCH  20  23
ATOM     23  C2  L01 d   1      73.590  46.172   3.117  0.00  0.00    -0.053 C 
ATOM     24  H4  L01 d   1      74.472  46.824   3.195  0.00  0.00     0.034 H 
ATOM     25  H5  L01 d   1      73.460  45.854   2.072  0.00  0.00     0.034 H 
BRANCH  23  26
ATOM     26  C1  L01 d   1      72.356  46.992   3.520  0.00  0.00    -0.075 C 
ATOM     27  H1  L01 d   1      72.261  47.862   2.854  0.00  0.00     0.027 H 
ATOM     28  H2  L01 d   1      72.467  47.336   4.559  0.00  0.00     0.027 H 
ATOM     29  H3  L01 d   1      71.456  46.365   3.436  0.00  0.00     0.027 H 
ENDBRANCH  23  26
ENDBRANCH  20  23
ENDBRANCH  18  20
BRANCH  18  30
ATOM     30  C5  L01 d   1      73.615  45.709   6.393  0.00  0.00    -0.002 C 
ATOM     31  H8  L01 d   1      72.805  45.823   7.129  0.00  0.00     0.064 H 
ATOM     32  H9  L01 d   1      73.928  46.701   6.035  0.00  0.00     0.064 H 
BRANCH  30  33
ATOM     33  C6  L01 d   1      74.811  44.996   7.048  0.00  0.00    -0.053 C 
ATOM     34  H10 L01 d   1      75.624  45.720   7.207  0.00  0.00     0.034 H 
ATOM     35  H11 L01 d   1      75.162  44.190   6.386  0.00  0.00     0.034 H 
BRANCH  33  36
ATOM     36  C7  L01 d   1      74.392  44.400   8.394  0.00  0.00    -0.075 C 
ATOM     37  H12 L01 d   1      75.253  43.893   8.854  0.00  0.00     0.027 H 
ATOM     38  H13 L01 d   1      73.580  43.675   8.237  0.00  0.00     0.027 H 
ATOM     39  H14 L01 d   1      74.042  45.204   9.058  0.00  0.00     0.027 H 
ENDBRANCH  33  36
ENDBRANCH  30  33
ENDBRANCH  18  30
ENDBRANCH  13  17
ENDBRANCH   4   7
ENDBRANCH   1   3
BRANCH   1  40
ATOM     40  C21 L01 d   1      68.947  49.815   6.729  0.00  0.00    -0.020 C 
ATOM     41  H21 L01 d   1      68.627  50.845   6.947  0.00  0.00     0.043 H 
ATOM     42  H22 L01 d   1      68.793  49.601   5.661  0.00  0.00     0.043 H 
BRANCH  40  43
ATOM     43  C22 L01 d   1      70.425  49.692   7.038  0.00  0.00    -0.056 A 
ATOM     44  C23 L01 d   1      70.908  49.885   8.315  0.00  0.00    -0.077 A 
ATOM     45  C24 L01 d   1      72.274  49.812   8.550  0.00  0.00    -0.082 A 
ATOM     46  H23 L01 d   1      70.225  50.093   9.131  0.00  0.00     0.084 H 
ATOM     47  C25 L01 d   1      73.172  49.539   7.546  0.00  0.00    -0.083 A 
ATOM     48  H24 L01 d   1      72.644  49.975   9.556  0.00  0.00     0.083 H 
ATOM     49  C26 L01 d   1      72.702  49.343   6.276  0.00  0.00    -0.082 A 
ATOM     50  H25 L01 d   1      74.234  49.480   7.756  0.00  0.00     0.083 H 
ATOM     51  C27 L01 d   1      71.335  49.441   6.027  0.00  0.00    -0.077 A 
ATOM     52  H26 L01 d   1      73.389  49.113   5.469  0.00  0.00     0.083 H 
ATOM     53  H27 L01 d   1      70.974  49.317   5.012  0.00  0.00     0.084 H 
ENDBRANCH  40  43
ENDBRANCH   1  40
BRANCH   1  54
ATOM     54  C28 L01 d   1      66.648  48.984   7.113  0.00  0.00     0.078 C 
ATOM     55  H28 L01 d   1      66.558  48.808   6.031  0.00  0.00     0.088 H 
BRANCH  54  56
ATOM     56  O30 L01 d   1      66.279  50.318   7.410  0.00  0.00    -0.392 OA
ATOM     57  H29 L01 d   1      66.837  50.915   6.925  0.00  0.00     0.210 HD
ENDBRANCH  54  56
BRANCH  54  58
ATOM     58  C31 L01 d   1      65.777  47.949   7.856  0.00  0.00     0.107 C 
ATOM     59  H30 L01 d   1      65.964  48.050   8.935  0.00  0.00     0.079 H 
ATOM     60  H31 L01 d   1      66.075  46.943   7.524  0.00  0.00     0.079 H 
BRANCH  58  61
ATOM     61  N32 L01 d   1      64.322  48.108   7.617  0.00  0.00    -0.069 N 
ATOM     62  H32 L01 d   1      64.060  47.527   6.836  0.00  0.00     0.277 HD
ATOM     63  H33 L01 d   1      64.137  49.074   7.395  0.00  0.00     0.277 HD
BRANCH  61  64
ATOM     64  C35 L01 d   1      63.492  47.725   8.791  0.00  0.00     0.105 C 
ATOM     65  H34 L01 d   1      63.882  46.776   9.186  0.00  0.00     0.083 H 
ATOM     66  H35 L01 d   1      62.459  47.580   8.442  0.00  0.00     0.083 H 
BRANCH  64  67
ATOM     67  C36 L01 d   1      63.463  48.738   9.942  0.00  0.00    -0.030 A 
ATOM     68  C37 L01 d   1      63.604  48.305  11.260  0.00  0.00    -0.075 A 
ATOM     69  C38 L01 d   1      63.595  49.207  12.328  0.00  0.00    -0.080 A 
ATOM     70  H36 L01 d   1      63.723  47.246  11.461  0.00  0.00     0.084 H 
ATOM     71  C39 L01 d   1      63.430  50.576  12.109  0.00  0.00    -0.051 A 
ATOM     72  H37 L01 d   1      63.718  48.839  13.340  0.00  0.00     0.083 H 
ATOM     73  C40 L01 d   1      63.272  51.035  10.795  0.00  0.00     0.068 A 
ATOM     74  H38 L01 d   1      63.424  51.271  12.941  0.00  0.00     0.087 H 
ATOM     75  C43 L01 d   1      63.294  50.107   9.743  0.00  0.00    -0.043 A 
ATOM     76  H42 L01 d   1      63.174  50.471   8.729  0.00  0.00     0.088 H 
BRANCH  73  77
ATOM     77  O41 L01 d   1      63.086  52.342  10.432  0.00  0.00    -0.356 OA
BRANCH  77  78
ATOM     78  C42 L01 d   1      63.181  53.284  11.509  0.00  0.00     0.010 C 
ATOM     79  H39 L01 d   1      63.018  54.301  11.122  0.00  0.00     0.066 H 
ATOM     80  H40 L01 d   1      64.180  53.221  11.965  0.00  0.00     0.066 H 
ATOM     81  H41 L01 d   1      62.417  53.053  12.266  0.00  0.00     0.066 H 
ENDBRANCH  77  78
ENDBRANCH  73  77
ENDBRANCH  64  67
ENDBRANCH  61  64
ENDBRANCH  58  61
ENDBRANCH  54  58
ENDBRANCH   1  54
TORSDOF 19
