REMARK  24 active torsions:
REMARK  status: ('A' for Active; 'I' for Inactive)
REMARK    1  A    between atoms: C21_7  and  C22_1 
REMARK    2  A    between atoms: O07_9  and  C21_7 
REMARK    3  A    between atoms: C20_8  and  O07_9 
REMARK    4  A    between atoms: C08_11  and  C20_8 
REMARK    5  A    between atoms: C08_11  and  C07_12 
REMARK    6  A    between atoms: N04_18  and  C08_11 
REMARK    7  A    between atoms: C07_12  and  C06_13 
REMARK    8  A    between atoms: C07_12  and  O04_16 
REMARK    9  A    between atoms: C06_13  and  C05_14 
REMARK   10  A    between atoms: N02_19  and  C02_20 
REMARK   11  A    between atoms: C02_20  and  C29_21 
REMARK   12  A    between atoms: C02_20  and  C01_25 
REMARK   13  A    between atoms: C29_21  and  C30_22 
REMARK   14  A    between atoms: C30_22  and  C31_23 
REMARK   15  A    between atoms: C30_22  and  C32_24 
REMARK   16  A    between atoms: N03_27  and  C04_28 
REMARK   17  A    between atoms: C04_28  and  C28_29 
REMARK   18  A    between atoms: C04_28  and  C03_30 
REMARK   19  A    between atoms: N05_32  and  C10_33 
REMARK   20  A    between atoms: C10_33  and  C17_34 
REMARK   21  A    between atoms: C10_33  and  C09_37 
REMARK   22  A    between atoms: C17_34  and  C18_35 
REMARK   23  A    between atoms: C17_34  and  C19_36 
REMARK   24  A    between atoms: C12_39  and  C11_44 
ROOT
ATOM      1  C08 TIT d   1      12.250   6.335  23.887  0.00  0.00     0.057 C 
ATOM      2  H9  TIT d   1      11.659   7.166  23.474  0.00  0.00     0.079 H 
ENDROOT
BRANCH   1   3
ATOM      3  C20 TIT d   1      12.574   5.438  22.814  0.00  0.00     0.041 C 
ATOM      4  H7  TIT d   1      13.446   4.833  23.102  0.00  0.00     0.077 H 
ATOM      5  H8  TIT d   1      11.715   4.777  22.626  0.00  0.00     0.077 H 
BRANCH   3   6
ATOM      6  O07 TIT d   1      12.872   6.141  21.648  0.00  0.00    -0.385 OA
BRANCH   6   7
ATOM      7  C21 TIT d   1      14.104   5.998  21.005  0.00  0.00     0.043 C 
ATOM      8  H5  TIT d   1      14.904   6.202  21.732  0.00  0.00     0.081 H 
ATOM      9  H6  TIT d   1      14.192   4.963  20.644  0.00  0.00     0.081 H 
BRANCH   7  10
ATOM     10  C22 TIT d   1      14.264   6.875  19.902  0.00  0.00    -0.035 A 
ATOM     11  C23 TIT d   1      13.789   8.229  19.948  0.00  0.00    -0.073 A 
ATOM     12  C24 TIT d   1      14.028   9.118  18.851  0.00  0.00    -0.066 A 
ATOM     13  H1  TIT d   1      13.246   8.581  20.818  0.00  0.00     0.084 H 
ATOM     14  C25 TIT d   1      14.743   8.662  17.697  0.00  0.00     0.011 A 
ATOM     15  H2  TIT d   1      13.667  10.139  18.894  0.00  0.00     0.085 H 
ATOM     16  C26 TIT d   1      15.217   7.312  17.637  0.00  0.00    -0.066 A 
ATOM     17 BR   TIT d   1      15.000   9.605  16.540  0.00  0.00    -0.051 Br
ATOM     18  C27 TIT d   1      14.973   6.428  18.738  0.00  0.00    -0.073 A 
ATOM     19  H3  TIT d   1      15.757   6.961  16.765  0.00  0.00     0.085 H 
ATOM     20  H4  TIT d   1      15.330   5.405  18.691  0.00  0.00     0.084 H 
ENDBRANCH   7  10
ENDBRANCH   6   7
ENDBRANCH   3   6
ENDBRANCH   1   3
BRANCH   1  21
ATOM     21  C07 TIT d   1      11.442   5.677  24.896  0.00  0.00     0.064 C 
ATOM     22  H10 TIT d   1      10.609   5.162  24.395  0.00  0.00     0.086 H 
BRANCH  21  23
ATOM     23  C06 TIT d   1      10.907   6.597  25.869  0.00  0.00     0.023 C 
ATOM     24  H11 TIT d   1      11.651   7.386  26.055  0.00  0.00     0.049 H 
ATOM     25  H12 TIT d   1      10.712   6.049  26.803  0.00  0.00     0.049 H 
BRANCH  23  26
ATOM     26  C05 TIT d   1       9.705   7.201  25.440  0.00  0.00     0.154 C 
ATOM     27  O03 TIT d   1       9.756   8.430  24.862  0.00  0.00    -0.177 OA
ATOM     28  N03 TIT d   1       8.509   6.585  25.640  0.00  0.00    -0.360 N 
ATOM     29  H28 TIT d   1       8.505   5.685  26.076  0.00  0.00     0.162 HD
BRANCH  28  30
ATOM     30  C04 TIT d   1       7.315   7.134  25.276  0.00  0.00     0.072 C 
ATOM     31  H29 TIT d   1       7.443   7.597  24.287  0.00  0.00     0.085 H 
BRANCH  30  32
ATOM     32  C28 TIT d   1       6.324   6.130  25.181  0.00  0.00    -0.050 C 
ATOM     33  H30 TIT d   1       5.367   6.586  24.887  0.00  0.00     0.030 H 
ATOM     34  H31 TIT d   1       6.210   5.634  26.156  0.00  0.00     0.030 H 
ATOM     35  H32 TIT d   1       6.624   5.389  24.426  0.00  0.00     0.030 H 
ENDBRANCH  30  32
BRANCH  30  36
ATOM     36  C03 TIT d   1       6.875   8.126  26.171  0.00  0.00     0.174 C 
ATOM     37  N02 TIT d   1       6.046   9.078  25.722  0.00  0.00    -0.358 N 
ATOM     38  H17 TIT d   1       5.795   9.078  24.754  0.00  0.00     0.162 HD
ATOM     39  O02 TIT d   1       7.251   8.104  27.486  0.00  0.00    -0.175 OA
BRANCH  37  40
ATOM     40  C02 TIT d   1       5.533  10.041  26.526  0.00  0.00     0.076 C 
ATOM     41  H18 TIT d   1       6.172  10.144  27.415  0.00  0.00     0.085 H 
BRANCH  40  42
ATOM     42  C29 TIT d   1       5.498  11.259  25.851  0.00  0.00    -0.036 C 
ATOM     43  H19 TIT d   1       4.491  11.694  25.932  0.00  0.00     0.037 H 
ATOM     44  H20 TIT d   1       5.743  11.097  24.791  0.00  0.00     0.037 H 
BRANCH  42  45
ATOM     45  C30 TIT d   1       6.432  12.136  26.417  0.00  0.00    -0.059 C 
ATOM     46  H21 TIT d   1       7.031  11.590  27.160  0.00  0.00     0.038 H 
BRANCH  45  47
ATOM     47  C31 TIT d   1       7.277  12.629  25.423  0.00  0.00    -0.073 C 
ATOM     48  H22 TIT d   1       8.009  13.317  25.872  0.00  0.00     0.028 H 
ATOM     49  H23 TIT d   1       6.682  13.166  24.670  0.00  0.00     0.028 H 
ATOM     50  H24 TIT d   1       7.806  11.792  24.944  0.00  0.00     0.028 H 
ENDBRANCH  45  47
BRANCH  45  51
ATOM     51  C32 TIT d   1       5.776  13.205  27.054  0.00  0.00    -0.073 C 
ATOM     52  H25 TIT d   1       5.111  12.812  27.837  0.00  0.00     0.028 H 
ATOM     53  H26 TIT d   1       5.183  13.764  26.315  0.00  0.00     0.028 H 
ATOM     54  H27 TIT d   1       6.521  13.874  27.508  0.00  0.00     0.028 H 
ENDBRANCH  45  51
ENDBRANCH  42  45
ENDBRANCH  40  42
BRANCH  40  55
ATOM     55  C01 TIT d   1       4.239   9.674  26.932  0.00  0.00     0.172 C 
ATOM     56  N01 TIT d   1       3.774  10.071  28.123  0.00  0.00    -0.379 N 
ATOM     57  H14 TIT d   1       2.853   9.810  28.413  0.00  0.00     0.158 HD
ATOM     58  H15 TIT d   1       4.348  10.629  28.723  0.00  0.00     0.158 HD
ATOM     59  O01 TIT d   1       3.452   8.904  26.108  0.00  0.00    -0.175 OA
ENDBRANCH  40  55
ENDBRANCH  37  40
ENDBRANCH  30  36
ENDBRANCH  28  30
ENDBRANCH  23  26
ENDBRANCH  21  23
BRANCH  21  60
ATOM     60  O04 TIT d   1      12.207   4.763  25.574  0.00  0.00    -0.393 OA
ATOM     61  H13 TIT d   1      12.909   5.214  26.028  0.00  0.00     0.210 HD
ENDBRANCH  21  60
ENDBRANCH   1  21
BRANCH   1  62
ATOM     62  N04 TIT d   1      13.397   6.851  24.411  0.00  0.00    -0.361 N 
ATOM     63  C09 TIT d   1      13.775   8.131  24.214  0.00  0.00     0.175 C 
ATOM     64  O05 TIT d   1      13.002   8.967  23.472  0.00  0.00    -0.175 OA
ATOM     65  H16 TIT d   1      13.982   6.257  24.964  0.00  0.00     0.162 HD
BRANCH  63  66
ATOM     66  C10 TIT d   1      14.987   8.610  24.772  0.00  0.00     0.079 C 
ATOM     67  H34 TIT d   1      15.533   7.780  25.243  0.00  0.00     0.086 H 
BRANCH  66  68
ATOM     68  N05 TIT d   1      15.715   9.110  23.735  0.00  0.00    -0.354 N 
ATOM     69  C11 TIT d   1      16.887   8.586  23.298  0.00  0.00     0.204 C 
ATOM     70  O06 TIT d   1      17.432   7.485  23.911  0.00  0.00    -0.170 OA
ATOM     71  H33 TIT d   1      15.361   9.918  23.264  0.00  0.00     0.162 HD
BRANCH  69  72
ATOM     72  C12 TIT d   1      17.472   8.805  22.037  0.00  0.00     0.110 A 
ATOM     73  C13 TIT d   1      18.465   7.948  21.499  0.00  0.00    -0.051 A 
ATOM     74  C14 TIT d   1      18.974   8.215  20.209  0.00  0.00    -0.079 A 
ATOM     75  H44 TIT d   1      18.828   7.101  22.069  0.00  0.00     0.087 H 
ATOM     76  C15 TIT d   1      18.523   9.280  19.495  0.00  0.00    -0.066 A 
ATOM     77  H45 TIT d   1      19.731   7.565  19.785  0.00  0.00     0.083 H 
ATOM     78  C16 TIT d   1      17.530  10.125  20.054  0.00  0.00     0.003 A 
ATOM     79  H43 TIT d   1      18.919   9.482  18.506  0.00  0.00     0.085 H 
ATOM     80  N06 TIT d   1      17.034   9.871  21.301  0.00  0.00    -0.257 NA
ATOM     81  H42 TIT d   1      17.164  10.975  19.490  0.00  0.00     0.114 H 
ENDBRANCH  69  72
ENDBRANCH  66  68
BRANCH  66  82
ATOM     82  C17 TIT d   1      14.730   9.636  25.778  0.00  0.00    -0.034 C 
ATOM     83  H35 TIT d   1      14.069  10.392  25.330  0.00  0.00     0.042 H 
BRANCH  82  84
ATOM     84  C18 TIT d   1      14.108   9.106  26.914  0.00  0.00    -0.071 C 
ATOM     85  H36 TIT d   1      13.933   9.909  27.645  0.00  0.00     0.028 H 
ATOM     86  H37 TIT d   1      14.756   8.338  27.362  0.00  0.00     0.028 H 
ATOM     87  H38 TIT d   1      13.147   8.654  26.628  0.00  0.00     0.028 H 
ENDBRANCH  82  84
BRANCH  82  88
ATOM     88  C19 TIT d   1      15.910  10.263  26.206  0.00  0.00    -0.071 C 
ATOM     89  H39 TIT d   1      16.431  10.695  25.339  0.00  0.00     0.028 H 
ATOM     90  H40 TIT d   1      16.562   9.524  26.695  0.00  0.00     0.028 H 
ATOM     91  H41 TIT d   1      15.662  11.062  26.920  0.00  0.00     0.028 H 
ENDBRANCH  82  88
ENDBRANCH  66  82
ENDBRANCH  63  66
ENDBRANCH   1  62
TORSDOF 24
