REMARK  4 active torsions:
REMARK  status: ('A' for Active; 'I' for Inactive)
REMARK    1  A    between atoms: C3_3  and  O18_20 
REMARK    2  A    between atoms: C6_8  and  O17_19 
REMARK    3  A    between atoms: N10_12  and  C19_21 
REMARK    4  A    between atoms: O17_19  and  C16_18 
ROOT
ATOM      1  C1  GNT d   1       2.650  67.661  63.432  0.00  0.00    -0.089 C 
ATOM      2  C2  GNT d   1       2.799  68.172  62.198  0.00  0.00    -0.078 C 
ATOM      3  C3  GNT d   1       4.193  68.408  61.585  0.00  0.00     0.054 C 
ATOM      4  C4  GNT d   1       5.369  68.459  62.734  0.00  0.00    -0.012 C 
ATOM      5  C41 GNT d   1       5.153  67.227  63.664  0.00  0.00     0.062 C 
ATOM      6  C42 GNT d   1       3.846  67.351  64.430  0.00  0.00     0.036 C 
ATOM      7  O5  GNT d   1       5.190  65.991  62.958  0.00  0.00    -0.341 OA
ATOM      8  C6  GNT d   1       4.589  63.766  63.911  0.00  0.00     0.102 A 
ATOM      9  C7  GNT d   1       3.827  63.105  64.912  0.00  0.00    -0.047 A 
ATOM     10  C8  GNT d   1       3.076  63.847  65.821  0.00  0.00    -0.068 A 
ATOM     11  C9  GNT d   1       2.229  65.965  66.810  0.00  0.00    -0.015 C 
ATOM     12  N10 GNT d   1       1.994  67.220  67.067  0.00  0.00    -0.393 N 
ATOM     13  C11 GNT d   1       2.453  68.431  66.337  0.00  0.00    -0.005 C 
ATOM     14  C12 GNT d   1       3.809  68.424  65.599  0.00  0.00    -0.034 C 
ATOM     15  C13 GNT d   1       4.519  65.185  63.876  0.00  0.00     0.111 A 
ATOM     16  C14 GNT d   1       3.752  65.924  64.785  0.00  0.00     0.005 A 
ATOM     17  C15 GNT d   1       3.029  65.288  65.780  0.00  0.00    -0.011 A 
ATOM     18  H1  GNT d   1       1.638  67.444  63.772  0.00  0.00     0.078 H 
ATOM     19  H2  GNT d   1       1.913  68.425  61.617  0.00  0.00     0.080 H 
ATOM     20  H3  GNT d   1       4.218  69.347  61.013  0.00  0.00     0.089 H 
ATOM     21  H4  GNT d   1       5.289  69.389  63.315  0.00  0.00     0.041 H 
ATOM     22  H5  GNT d   1       6.361  68.406  62.262  0.00  0.00     0.041 H 
ATOM     23  H6  GNT d   1       5.975  67.217  64.395  0.00  0.00     0.086 H 
ATOM     24  H7  GNT d   1       3.830  62.023  64.968  0.00  0.00     0.087 H 
ATOM     25  H8  GNT d   1       2.509  63.325  66.583  0.00  0.00     0.085 H 
ATOM     26  H9  GNT d   1       1.733  65.280  67.496  0.00  0.00     0.112 H 
ATOM     27  H10 GNT d   1       2.497  69.247  67.073  0.00  0.00     0.064 H 
ATOM     28  H11 GNT d   1       1.684  68.658  65.584  0.00  0.00     0.064 H 
ATOM     29  H12 GNT d   1       3.985  69.422  65.171  0.00  0.00     0.037 H 
ATOM     30  H13 GNT d   1       4.605  68.189  66.321  0.00  0.00     0.037 H 
ENDROOT
BRANCH   8  31
ATOM     31  O17 GNT d   1       5.487  63.133  63.006  0.00  0.00    -0.353 OA
BRANCH  31  32
ATOM     32  C16 GNT d   1       5.824  61.785  63.306  0.00  0.00     0.010 C 
ATOM     33  H14 GNT d   1       6.519  61.403  62.544  0.00  0.00     0.066 H 
ATOM     34  H15 GNT d   1       4.911  61.171  63.311  0.00  0.00     0.066 H 
ATOM     35  H16 GNT d   1       6.303  61.738  64.295  0.00  0.00     0.066 H 
ENDBRANCH  31  32
ENDBRANCH   8  31
BRANCH  12  36
ATOM     36  C19 GNT d   1       1.212  67.431  68.271  0.00  0.00    -0.019 C 
ATOM     37  H18 GNT d   1       0.941  66.458  68.707  0.00  0.00     0.056 H 
ATOM     38  H19 GNT d   1       0.297  67.989  68.021  0.00  0.00     0.056 H 
ATOM     39  H20 GNT d   1       1.805  68.006  68.998  0.00  0.00     0.056 H 
ENDBRANCH  12  36
BRANCH   3  40
ATOM     40  O18 GNT d   1       4.318  67.249  60.690  0.00  0.00    -0.392 OA
ATOM     41  H17 GNT d   1       4.261  66.449  61.199  0.00  0.00     0.210 HD
ENDBRANCH   3  40
TORSDOF 4
