REMARK  2 active torsions:
REMARK  status: ('A' for Active; 'I' for Inactive)
REMARK    1  A    between atoms: C1_1  and  O1_19 
REMARK    2  A    between atoms: C17_12  and  C27_18 
ROOT
ATOM      1  C1  EQU d   1      12.805  59.457   4.445  0.00  0.00     0.066 A 
ATOM      2  C2  EQU d   1      12.554  58.553   5.528  0.00  0.00    -0.040 A 
ATOM      3  C3  EQU d   1      13.097  58.877   6.843  0.00  0.00    -0.023 A 
ATOM      4  C4  EQU d   1      13.922  60.170   7.051  0.00  0.00    -0.019 A 
ATOM      5  C5  EQU d   1      14.129  61.026   5.901  0.00  0.00    -0.069 A 
ATOM      6  C6  EQU d   1      13.586  60.680   4.634  0.00  0.00    -0.050 A 
ATOM      7  C10 EQU d   1      12.837  57.948   7.953  0.00  0.00    -0.072 A 
ATOM      8  C11 EQU d   1      13.370  58.261   9.275  0.00  0.00    -0.075 A 
ATOM      9  C12 EQU d   1      14.165  59.492   9.512  0.00  0.00    -0.046 A 
ATOM     10  C13 EQU d   1      14.451  60.461   8.401  0.00  0.00    -0.040 A 
ATOM     11  C16 EQU d   1      14.709  59.771  10.921  0.00  0.00    -0.014 C 
ATOM     12  C17 EQU d   1      14.941  61.334  11.242  0.00  0.00     0.025 C 
ATOM     13  C18 EQU d   1      15.825  61.998  10.120  0.00  0.00    -0.047 C 
ATOM     14  C19 EQU d   1      15.286  61.751   8.647  0.00  0.00    -0.038 C 
ATOM     15  C24 EQU d   1      13.845  59.347  12.157  0.00  0.00    -0.051 C 
ATOM     16  C25 EQU d   1      14.806  59.824  13.308  0.00  0.00    -0.008 C 
ATOM     17  C26 EQU d   1      15.482  61.100  12.659  0.00  0.00     0.136 C 
ATOM     18  O26 EQU d   1      16.310  61.795  13.197  0.00  0.00    -0.297 OA
ATOM     19  H1  EQU d   1      11.975  57.650   5.374  0.00  0.00     0.089 H 
ATOM     20  H2  EQU d   1      14.704  61.939   6.008  0.00  0.00     0.085 H 
ATOM     21  H3  EQU d   1      13.754  61.337   3.788  0.00  0.00     0.087 H 
ATOM     22  H4  EQU d   1      12.259  57.045   7.792  0.00  0.00     0.084 H 
ATOM     23  H5  EQU d   1      13.182  57.582  10.099  0.00  0.00     0.084 H 
ATOM     24  H6  EQU d   1      15.673  59.244  10.978  0.00  0.00     0.049 H 
ATOM     25  H7  EQU d   1      16.842  61.585  10.191  0.00  0.00     0.035 H 
ATOM     26  H8  EQU d   1      15.856  63.083  10.300  0.00  0.00     0.035 H 
ATOM     27  H9  EQU d   1      14.654  62.610   8.378  0.00  0.00     0.040 H 
ATOM     28  H10 EQU d   1      16.158  61.713   7.978  0.00  0.00     0.040 H 
ATOM     29  H11 EQU d   1      13.674  58.261  12.187  0.00  0.00     0.034 H 
ATOM     30  H12 EQU d   1      12.879  59.871  12.184  0.00  0.00     0.034 H 
ATOM     31  H13 EQU d   1      15.554  59.054  13.550  0.00  0.00     0.044 H 
ATOM     32  H14 EQU d   1      14.243  60.087  14.216  0.00  0.00     0.044 H 
ENDROOT
BRANCH  12  33
ATOM     33  C27 EQU d   1      13.650  62.234  11.427  0.00  0.00    -0.062 C 
ATOM     34  H15 EQU d   1      13.008  61.798  12.206  0.00  0.00     0.029 H 
ATOM     35  H16 EQU d   1      13.096  62.280  10.478  0.00  0.00     0.029 H 
ATOM     36  H17 EQU d   1      13.950  63.249  11.725  0.00  0.00     0.029 H 
ENDBRANCH  12  33
BRANCH   1  37
ATOM     37  O1  EQU d   1      12.305  59.143   3.284  0.00  0.00    -0.361 OA
ATOM     38  H18 EQU d   1      11.710  59.827   3.001  0.00  0.00     0.217 HD
ENDBRANCH   1  37
TORSDOF 2
