REMARK  1 active torsions:
REMARK  status: ('A' for Active; 'I' for Inactive)
REMARK    1  A    between atoms: C1_1  and  C2_2 
ROOT
ATOM      1  C2  NON d   1       8.410  39.535   4.639  0.00  0.00     0.480 C 
ATOM      2  F1  NON d   1       9.455  40.320   4.698  0.00  0.00    -0.161 F 
ATOM      3  F2  NON d   1       7.374  40.321   4.909  0.00  0.00    -0.161 F 
ATOM      4  F3  NON d   1       8.543  38.765   5.808  0.00  0.00    -0.161 F 
ENDROOT
BRANCH   1   5
ATOM      5  C1  NON d   1       8.132  38.810   3.306  0.00  0.00     0.286 C 
ATOM      6  O   NON d   1       7.031  38.184   3.176  0.00  0.00    -0.641 OA
ATOM      7  OXT NON d   1       9.001  38.870   2.466  0.00  0.00    -0.641 OA
ENDBRANCH   1   5
TORSDOF 1
