REMARK  4 active torsions:
REMARK  status: ('A' for Active; 'I' for Inactive)
REMARK    1  A    between atoms: C3_3  and  O18_20 
REMARK    2  A    between atoms: C6_8  and  O17_19 
REMARK    3  A    between atoms: N10_12  and  C19_21 
REMARK    4  A    between atoms: O17_19  and  C16_18 
ROOT
ATOM      1  C1  GNT d   1      93.026  49.492  19.846  0.00  0.00    -0.089 C 
ATOM      2  C2  GNT d   1      91.860  48.888  19.454  0.00  0.00    -0.078 C 
ATOM      3  C3  GNT d   1      91.069  47.926  20.381  0.00  0.00     0.054 C 
ATOM      4  C4  GNT d   1      91.965  47.378  21.594  0.00  0.00    -0.012 C 
ATOM      5  C41 GNT d   1      92.695  48.584  22.203  0.00  0.00     0.062 C 
ATOM      6  C42 GNT d   1      93.726  49.176  21.218  0.00  0.00     0.036 C 
ATOM      7  O5  GNT d   1      91.828  49.698  22.624  0.00  0.00    -0.341 OA
ATOM      8  C6  GNT d   1      92.653  51.899  23.441  0.00  0.00     0.102 A 
ATOM      9  C7  GNT d   1      93.732  52.819  23.395  0.00  0.00    -0.047 A 
ATOM     10  C8  GNT d   1      94.899  52.534  22.633  0.00  0.00    -0.068 A 
ATOM     11  C9  GNT d   1      96.303  51.146  21.114  0.00  0.00    -0.015 C 
ATOM     12  N10 GNT d   1      96.709  50.165  20.322  0.00  0.00    -0.393 N 
ATOM     13  C11 GNT d   1      95.974  48.923  19.932  0.00  0.00    -0.005 C 
ATOM     14  C12 GNT d   1      94.958  48.277  20.921  0.00  0.00    -0.034 C 
ATOM     15  C13 GNT d   1      92.792  50.730  22.699  0.00  0.00     0.111 A 
ATOM     16  C14 GNT d   1      93.951  50.452  21.928  0.00  0.00     0.005 A 
ATOM     17  C15 GNT d   1      95.037  51.348  21.886  0.00  0.00    -0.011 A 
ATOM     18  H1  GNT d   1      93.487  50.220  19.180  0.00  0.00     0.078 H 
ATOM     19  H2  GNT d   1      91.474  49.090  18.456  0.00  0.00     0.080 H 
ATOM     20  H3  GNT d   1      90.682  47.072  19.805  0.00  0.00     0.089 H 
ATOM     21  H4  GNT d   1      92.695  46.645  21.221  0.00  0.00     0.041 H 
ATOM     22  H5  GNT d   1      91.324  46.904  22.352  0.00  0.00     0.041 H 
ATOM     23  H6  GNT d   1      93.229  48.218  23.093  0.00  0.00     0.086 H 
ATOM     24  H7  GNT d   1      93.666  53.750  23.947  0.00  0.00     0.087 H 
ATOM     25  H8  GNT d   1      95.709  53.254  22.627  0.00  0.00     0.085 H 
ATOM     26  H9  GNT d   1      97.024  51.955  21.224  0.00  0.00     0.112 H 
ATOM     27  H10 GNT d   1      96.735  48.159  19.714  0.00  0.00     0.064 H 
ATOM     28  H11 GNT d   1      95.417  49.159  19.013  0.00  0.00     0.064 H 
ATOM     29  H12 GNT d   1      94.602  47.331  20.486  0.00  0.00     0.037 H 
ATOM     30  H13 GNT d   1      95.477  48.073  21.869  0.00  0.00     0.037 H 
ENDROOT
BRANCH   8  31
ATOM     31  O17 GNT d   1      91.458  52.082  24.207  0.00  0.00    -0.353 OA
BRANCH  31  32
ATOM     32  C16 GNT d   1      91.624  52.647  25.521  0.00  0.00     0.010 C 
ATOM     33  H14 GNT d   1      90.642  52.738  26.008  0.00  0.00     0.066 H 
ATOM     34  H15 GNT d   1      92.085  53.642  25.437  0.00  0.00     0.066 H 
ATOM     35  H16 GNT d   1      92.272  51.992  26.122  0.00  0.00     0.066 H 
ENDBRANCH  31  32
ENDBRANCH   8  31
BRANCH  12  36
ATOM     36  C19 GNT d   1      98.060  50.292  19.787  0.00  0.00    -0.019 C 
ATOM     37  H18 GNT d   1      98.505  51.236  20.135  0.00  0.00     0.056 H 
ATOM     38  H19 GNT d   1      98.021  50.288  18.688  0.00  0.00     0.056 H 
ATOM     39  H20 GNT d   1      98.673  49.448  20.135  0.00  0.00     0.056 H 
ENDBRANCH  12  36
BRANCH   3  40
ATOM     40  O18 GNT d   1      89.998  48.729  20.877  0.00  0.00    -0.392 OA
ATOM     41  H17 GNT d   1      90.353  49.467  21.358  0.00  0.00     0.210 HD
ENDBRANCH   3  40
TORSDOF 4
