REMARK  4 active torsions:
REMARK  status: ('A' for Active; 'I' for Inactive)
REMARK    1  A    between atoms: N1_1  and  C2_2 
REMARK    2  A    between atoms: C7_7  and  O8_8 
REMARK    3  A    between atoms: O8_8  and  C9_9 
REMARK    4  A    between atoms: C9_9  and  C10_10 
ROOT
ATOM      1  C9  3IP d   1      19.541  30.911  29.490  0.00  0.00     0.050 C 
ATOM      2  H6  3IP d   1      20.048  29.936  29.536  0.00  0.00     0.082 H 
ATOM      3  H7  3IP d   1      19.530  31.270  28.450  0.00  0.00     0.082 H 
ENDROOT
BRANCH   1   4
ATOM      4  O8  3IP d   1      20.252  31.883  30.344  0.00  0.00    -0.343 OA
BRANCH   4   5
ATOM      5  C7  3IP d   1      21.383  32.613  29.901  0.00  0.00     0.114 A 
ATOM      6  C2  3IP d   1      21.646  33.914  30.530  0.00  0.00     0.154 A 
ATOM      7  N3  3IP d   1      22.727  34.677  30.147  0.00  0.00    -0.241 NA
ATOM      8  C4  3IP d   1      23.630  34.294  29.167  0.00  0.00     0.005 A 
ATOM      9  C5  3IP d   1      23.470  33.026  28.478  0.00  0.00    -0.063 A 
ATOM     10  H3  3IP d   1      24.459  34.944  28.914  0.00  0.00     0.114 H 
ATOM     11  C6  3IP d   1      22.330  32.176  28.849  0.00  0.00    -0.046 A 
ATOM     12  H4  3IP d   1      24.171  32.715  27.712  0.00  0.00     0.085 H 
ATOM     13  H5  3IP d   1      22.181  31.225  28.351  0.00  0.00     0.088 H 
BRANCH   6  14
ATOM     14  N1  3IP d   1      20.813  34.398  31.528  0.00  0.00    -0.382 N 
ATOM     15  H1  3IP d   1      19.998  33.846  31.832  0.00  0.00     0.157 HD
ATOM     16  H2  3IP d   1      21.009  35.310  31.965  0.00  0.00     0.157 HD
ENDBRANCH   6  14
ENDBRANCH   4   5
ENDBRANCH   1   4
BRANCH   1  17
ATOM     17  C10 3IP d   1      18.104  30.771  30.004  0.00  0.00    -0.034 A 
ATOM     18  C11 3IP d   1      17.035  31.657  29.508  0.00  0.00    -0.075 A 
ATOM     19  C12 3IP d   1      15.659  31.548  30.002  0.00  0.00    -0.082 A 
ATOM     20  H8  3IP d   1      17.272  32.406  28.761  0.00  0.00     0.084 H 
ATOM     21  C13 3IP d   1      15.293  30.543  31.016  0.00  0.00    -0.083 A 
ATOM     22  H9  3IP d   1      14.899  32.217  29.615  0.00  0.00     0.083 H 
ATOM     23  C14 3IP d   1      16.356  29.635  31.532  0.00  0.00    -0.082 A 
ATOM     24  H10 3IP d   1      14.274  30.466  31.378  0.00  0.00     0.083 H 
ATOM     25  C15 3IP d   1      17.749  29.757  31.021  0.00  0.00    -0.075 A 
ATOM     26  H11 3IP d   1      16.115  28.887  32.278  0.00  0.00     0.083 H 
ATOM     27  H12 3IP d   1      18.516  29.092  31.401  0.00  0.00     0.084 H 
ENDBRANCH   1  17
TORSDOF 4
