REMARK  14 active torsions:
REMARK  status: ('A' for Active; 'I' for Inactive)
REMARK       I    between atoms: C31_2  and  N4_3 
REMARK    1  A    between atoms: C31_2  and  C8_14 
REMARK    2  A    between atoms: N4_3  and  C23_4 
REMARK    3  A    between atoms: C23_4  and  C24_5 
REMARK    4  A    between atoms: C23_4  and  C30_11 
REMARK    5  A    between atoms: C8_14  and  N3_15 
REMARK    6  A    between atoms: C8_14  and  C9_25 
REMARK    7  A    between atoms: N3_15  and  C5_16 
REMARK    8  A    between atoms: C2_21  and  C1_22 
REMARK    9  A    between atoms: C1_22  and  N2_23 
REMARK   10  A    between atoms: C13_27  and  O3_28 
REMARK   11  A    between atoms: O3_28  and  C15_29 
REMARK   12  A    between atoms: C12_30  and  O4_33 
REMARK   13  A    between atoms: O4_33  and  C16_34 
REMARK   14  A    between atoms: C16_34  and  C17_35 
ROOT
ATOM      1  C8  413 d   1      10.010  40.125  32.289  0.00  0.00     0.113 C 
ATOM      2  H8  413 d   1       9.409  39.771  31.439  0.00  0.00     0.095 H 
ENDROOT
BRANCH   1   3
ATOM      3  C31 413 d   1       9.190  40.034  33.544  0.00  0.00     0.246 C 
ATOM      4  O31 413 d   1       9.651  39.613  34.601  0.00  0.00    -0.271 OA
ATOM      5  N4  413 d   1       7.925  40.453  33.455  0.00  0.00    -0.341 N 
ATOM      6  H1  413 d   1       7.567  40.753  32.571  0.00  0.00     0.163 HD
BRANCH   5   7
ATOM      7  C23 413 d   1       7.061  40.480  34.621  0.00  0.00     0.122 C 
ATOM      8  H2  413 d   1       7.046  39.493  35.108  0.00  0.00     0.097 H 
BRANCH   7   9
ATOM      9  C24 413 d   1       7.588  41.532  35.540  0.00  0.00    -0.025 A 
ATOM     10  C25 413 d   1       8.214  42.678  35.024  0.00  0.00    -0.074 A 
ATOM     11  C26 413 d   1       8.723  43.665  35.870  0.00  0.00    -0.082 A 
ATOM     12  H3  413 d   1       8.304  42.798  33.950  0.00  0.00     0.084 H 
ATOM     13  C27 413 d   1       8.587  43.510  37.249  0.00  0.00    -0.083 A 
ATOM     14  H4  413 d   1       9.217  44.539  35.461  0.00  0.00     0.083 H 
ATOM     15  C28 413 d   1       7.975  42.368  37.778  0.00  0.00    -0.082 A 
ATOM     16  H5  413 d   1       8.958  44.280  37.916  0.00  0.00     0.083 H 
ATOM     17  C29 413 d   1       7.477  41.376  36.921  0.00  0.00    -0.074 A 
ATOM     18  H6  413 d   1       7.886  42.250  38.852  0.00  0.00     0.083 H 
ATOM     19  H7  413 d   1       7.007  40.490  37.331  0.00  0.00     0.084 H 
ENDBRANCH   7   9
BRANCH   7  20
ATOM     20  C30 413 d   1       5.673  40.908  34.260  0.00  0.00     0.201 C 
ATOM     21  O30 413 d   1       5.466  41.304  33.092  0.00  0.00    -0.646 OA
ATOM     22  O40 413 d   1       4.795  40.851  35.153  0.00  0.00    -0.646 OA
ENDBRANCH   7  20
ENDBRANCH   5   7
ENDBRANCH   1   3
BRANCH   1  23
ATOM     23  N3  413 d   1      11.201  39.287  32.388  0.00  0.00    -0.373 N 
ATOM     24  H9  413 d   1      11.518  39.023  33.332  0.00  0.00     0.161 HD
BRANCH  23  25
ATOM     25  C5  413 d   1      11.927  38.826  31.331  0.00  0.00     0.028 A 
ATOM     26  C4  413 d   1      11.521  39.027  30.009  0.00  0.00    -0.057 A 
ATOM     27  C3  413 d   1      12.288  38.550  28.961  0.00  0.00    -0.067 A 
ATOM     28  H10 413 d   1      10.600  39.560  29.803  0.00  0.00     0.086 H 
ATOM     29  C2  413 d   1      13.502  37.890  29.206  0.00  0.00     0.007 A 
ATOM     30  H11 413 d   1      11.948  38.687  27.941  0.00  0.00     0.085 H 
ATOM     31  C7  413 d   1      13.933  37.684  30.524  0.00  0.00    -0.067 A 
ATOM     32  C6  413 d   1      13.144  38.166  31.570  0.00  0.00    -0.057 A 
ATOM     33  H13 413 d   1      14.861  37.161  30.727  0.00  0.00     0.085 H 
ATOM     34  H12 413 d   1      13.479  38.028  32.592  0.00  0.00     0.086 H 
BRANCH  29  35
ATOM     35  C1  413 d   1      14.290  37.400  28.032  0.00  0.00     0.102 C 
ATOM     36  N1  413 d   1      13.773  37.604  26.810  0.00  0.00    -0.385 N 
ATOM     37  H16 413 d   1      12.866  38.082  26.708  0.00  0.00     0.157 HD
ATOM     38  H17 413 d   1      14.283  37.282  25.975  0.00  0.00     0.157 HD
BRANCH  35  39
ATOM     39  N2  413 d   1      15.468  36.780  28.185  0.00  0.00    -0.385 N 
ATOM     40  H14 413 d   1      15.989  36.453  27.359  0.00  0.00     0.157 HD
ATOM     41  H15 413 d   1      15.852  36.630  29.129  0.00  0.00     0.157 HD
ENDBRANCH  35  39
ENDBRANCH  29  35
ENDBRANCH  23  25
ENDBRANCH   1  23
BRANCH   1  42
ATOM     42  C9  413 d   1      10.353  41.562  32.072  0.00  0.00    -0.024 A 
ATOM     43  C14 413 d   1      11.240  42.245  32.910  0.00  0.00    -0.040 A 
ATOM     44  C13 413 d   1      11.528  43.590  32.707  0.00  0.00     0.102 A 
ATOM     45  H18 413 d   1      11.711  41.717  33.731  0.00  0.00     0.088 H 
ATOM     46  C12 413 d   1      10.935  44.274  31.640  0.00  0.00     0.102 A 
ATOM     47  C11 413 d   1      10.045  43.598  30.800  0.00  0.00    -0.047 A 
ATOM     48  C10 413 d   1       9.747  42.255  31.006  0.00  0.00    -0.072 A 
ATOM     49  H22 413 d   1       9.581  44.128  29.976  0.00  0.00     0.087 H 
ATOM     50  H23 413 d   1       9.052  41.744  30.349  0.00  0.00     0.084 H 
BRANCH  44  51
ATOM     51  O3  413 d   1      12.417  44.259  33.519  0.00  0.00    -0.353 OA
BRANCH  51  52
ATOM     52  C15 413 d   1      12.906  43.662  34.729  0.00  0.00     0.010 C 
ATOM     53  H19 413 d   1      13.600  44.356  35.226  0.00  0.00     0.066 H 
ATOM     54  H20 413 d   1      13.433  42.727  34.489  0.00  0.00     0.066 H 
ATOM     55  H21 413 d   1      12.061  43.446  35.399  0.00  0.00     0.066 H 
ENDBRANCH  51  52
ENDBRANCH  44  51
BRANCH  46  56
ATOM     56  O4  413 d   1      11.246  45.607  31.443  0.00  0.00    -0.344 OA
BRANCH  56  57
ATOM     57  C16 413 d   1      10.442  46.491  30.659  0.00  0.00     0.050 C 
ATOM     58  H24 413 d   1      10.665  47.529  30.949  0.00  0.00     0.082 H 
ATOM     59  H25 413 d   1       9.381  46.276  30.853  0.00  0.00     0.082 H 
BRANCH  57  60
ATOM     60  C17 413 d   1      10.715  46.324  29.178  0.00  0.00    -0.034 A 
ATOM     61  C22 413 d   1      11.771  45.542  28.707  0.00  0.00    -0.075 A 
ATOM     62  C21 413 d   1      11.992  45.398  27.337  0.00  0.00    -0.082 A 
ATOM     63  H26 413 d   1      12.425  45.042  29.412  0.00  0.00     0.084 H 
ATOM     64  C20 413 d   1      11.168  46.045  26.416  0.00  0.00    -0.083 A 
ATOM     65  H27 413 d   1      12.810  44.779  26.986  0.00  0.00     0.083 H 
ATOM     66  C19 413 d   1      10.112  46.829  26.880  0.00  0.00    -0.082 A 
ATOM     67  H28 413 d   1      11.346  45.940  25.352  0.00  0.00     0.083 H 
ATOM     68  C18 413 d   1       9.888  46.978  28.251  0.00  0.00    -0.075 A 
ATOM     69  H29 413 d   1       9.460  47.327  26.171  0.00  0.00     0.083 H 
ATOM     70  H30 413 d   1       9.072  47.601  28.600  0.00  0.00     0.084 H 
ENDBRANCH  57  60
ENDBRANCH  56  57
ENDBRANCH  46  56
ENDBRANCH   1  42
TORSDOF 14
