REMARK WARNING: 32 MAX_TORS EXCEEDED!!!
REMARK  33 active torsions:
REMARK  status: ('A' for Active; 'I' for Inactive)
REMARK    1  A    between atoms: CA_2  and  C_3 
REMARK       I    between atoms: C_3  and  N_8 
REMARK    2  A    between atoms: N_8  and  CA_9 
REMARK    3  A    between atoms: CA_9  and  C_10 
REMARK    4  A    between atoms: CA_9  and  CB_12 
REMARK       I    between atoms: C_10  and  N_17 
REMARK    5  A    between atoms: CB_12  and  CG_13 
REMARK    6  A    between atoms: CG_13  and  CD_14 
REMARK    7  A    between atoms: CD_14  and  CE_15 
REMARK    8  A    between atoms: CE_15  and  NZ_16 
REMARK    9  A    between atoms: N_17  and  CA_18 
REMARK   10  A    between atoms: CA_18  and  C_19 
REMARK       I    between atoms: C_19  and  N_21 
REMARK   11  A    between atoms: N_21  and  CA_22 
REMARK   12  A    between atoms: CA_22  and  C_23 
REMARK   13  A    between atoms: CA_22  and  CB_25 
REMARK       I    between atoms: C_23  and  N_35 
REMARK   14  A    between atoms: CB_25  and  CG_26 
REMARK   15  A    between atoms: N_35  and  CA_36 
REMARK   16  A    between atoms: CA_36  and  C_37 
REMARK   17  A    between atoms: CA_36  and  CB_39 
REMARK       I    between atoms: C_37  and  N_42 
REMARK   18  A    between atoms: CB_39  and  CG1_40 
REMARK   19  A    between atoms: CB_39  and  CG2_41 
REMARK   20  A    between atoms: N_42  and  CA_43 
REMARK   21  A    between atoms: CA_43  and  C_44 
REMARK   22  A    between atoms: CA_43  and  CB_46 
REMARK       I    between atoms: C_44  and  N_49 
REMARK   23  A    between atoms: CB_46  and  OG1_47 
REMARK   24  A    between atoms: CB_46  and  CG2_48 
REMARK   25  A    between atoms: N_49  and  CA_50 
REMARK   26  A    between atoms: CA_50  and  C_51 
REMARK   27  A    between atoms: CA_50  and  CB_53 
REMARK       I    between atoms: C_51  and  N_60 
REMARK   28  A    between atoms: CB_53  and  CG_54 
REMARK   29  A    between atoms: N_60  and  CA_61 
REMARK   30  A    between atoms: CA_61  and  C_62 
REMARK   31  A    between atoms: CA_61  and  CB_64 
REMARK   32  A    between atoms: CB_64  and  CG_65 
REMARK   33  A    between atoms: CG_65  and  CD_66 
ROOT
ATOM      1  C   PRO d   1      26.040 -13.351  -7.693  0.00  0.00     0.241 C 
ATOM      2  O   PRO d   1      26.919 -14.084  -7.234  0.00  0.00    -0.271 OA
ATOM      3  N   PRO d   1      25.970 -12.040  -7.394  0.00  0.00    -0.346 N 
ATOM      4  H36 PRO d   1      25.332 -11.443  -7.881  0.00  0.00     0.163 HD
ENDROOT
BRANCH   1   5
ATOM      5  CA  PRO d   1      24.826 -13.905  -8.426  0.00  0.00     0.093 C 
ATOM      6  H27 PRO d   1      24.384 -13.081  -9.005  0.00  0.00     0.088 H 
BRANCH   5   7
ATOM      7  N   PRO d   1      25.152 -14.982  -9.407  0.00  0.00    -0.346 N 
ATOM      8  C   PRO d   1      25.455 -14.656 -10.672  0.00  0.00     0.236 C 
ATOM      9  O   PRO d   1      25.541 -13.471 -11.025  0.00  0.00    -0.272 OA
ATOM     10  H26 PRO d   1      25.145 -15.941  -9.123  0.00  0.00     0.163 HD
BRANCH   8  11
ATOM     11  CA  PRO d   1      25.596 -15.782 -11.737  0.00  0.00     0.069 C 
ATOM     12  H24 PRO d   1      24.863 -15.597 -12.536  0.00  0.00     0.078 H 
ATOM     13  H25 PRO d   1      26.613 -15.738 -12.155  0.00  0.00     0.078 H 
BRANCH  11  14
ATOM     14  N   PRO d   1      25.371 -17.138 -11.205  0.00  0.00    -0.351 N 
ATOM     15  C   PRO d   1      26.299 -17.685 -10.423  0.00  0.00     0.240 C 
ATOM     16  O   PRO d   1      27.365 -17.113 -10.221  0.00  0.00    -0.271 OA
ATOM     17  H23 PRO d   1      24.535 -17.639 -11.428  0.00  0.00     0.163 HD
BRANCH  15  18
ATOM     18  CA  PRO d   1      26.036 -19.065  -9.758  0.00  0.00     0.089 C 
ATOM     19  H11 PRO d   1      26.421 -19.005  -8.729  0.00  0.00     0.087 H 
BRANCH  18  20
ATOM     20  N   PRO d   1      24.612 -19.421  -9.670  0.00  0.00    -0.346 N 
ATOM     21  C   PRO d   1      23.786 -18.708  -8.912  0.00  0.00     0.249 C 
ATOM     22  O   PRO d   1      24.131 -17.650  -8.370  0.00  0.00    -0.271 OA
ATOM     23  H10 PRO d   1      24.263 -20.205 -10.184  0.00  0.00     0.163 HD
BRANCH  21  24
ATOM     24  CA  PRO d   1      22.377 -19.269  -8.715  0.00  0.00     0.178 C 
ATOM     25  N   PRO d   1      22.018 -19.377  -7.298  0.00  0.00    -0.062 N 
ATOM     26  CD  PRO d   1      20.614 -18.979  -7.055  0.00  0.00     0.083 C 
ATOM     27  H1  PRO d   1      22.625 -18.777  -6.761  0.00  0.00     0.278 HD
ATOM     28  H2  PRO d   1      22.142 -20.332  -7.002  0.00  0.00     0.278 HD
ATOM     29  CG  PRO d   1      20.085 -18.681  -8.442  0.00  0.00    -0.040 C 
ATOM     30  H8  PRO d   1      20.564 -18.086  -6.415  0.00  0.00     0.075 H 
ATOM     31  H9  PRO d   1      20.049 -19.798  -6.586  0.00  0.00     0.075 H 
ATOM     32  CB  PRO d   1      21.303 -18.333  -9.272  0.00  0.00    -0.028 C 
ATOM     33  H6  PRO d   1      19.576 -19.563  -8.857  0.00  0.00     0.035 H 
ATOM     34  H7  PRO d   1      19.385 -17.833  -8.413  0.00  0.00     0.035 H 
ATOM     35  H4  PRO d   1      21.123 -18.528 -10.339  0.00  0.00     0.036 H 
ATOM     36  H5  PRO d   1      21.587 -17.279  -9.135  0.00  0.00     0.036 H 
ATOM     37  H3  PRO d   1      22.319 -20.254  -9.202  0.00  0.00     0.099 H 
ENDBRANCH  21  24
ENDBRANCH  18  20
BRANCH  18  38
ATOM     38  CB  PRO d   1      26.809 -20.176 -10.485  0.00  0.00    -0.038 C 
ATOM     39  H12 PRO d   1      26.736 -19.986 -11.566  0.00  0.00     0.036 H 
ATOM     40  H13 PRO d   1      26.326 -21.135 -10.248  0.00  0.00     0.036 H 
BRANCH  38  41
ATOM     41  CG  PRO d   1      28.297 -20.296 -10.126  0.00  0.00    -0.061 C 
ATOM     42  H14 PRO d   1      28.425 -20.119  -9.048  0.00  0.00     0.033 H 
ATOM     43  H15 PRO d   1      28.868 -19.545 -10.692  0.00  0.00     0.033 H 
BRANCH  41  44
ATOM     44  CD  PRO d   1      28.824 -21.710 -10.477  0.00  0.00    -0.043 C 
ATOM     45  H16 PRO d   1      29.924 -21.681 -10.463  0.00  0.00     0.035 H 
ATOM     46  H17 PRO d   1      28.477 -21.966 -11.489  0.00  0.00     0.035 H 
BRANCH  44  47
ATOM     47  CE  PRO d   1      28.346 -22.846  -9.488  0.00  0.00     0.080 C 
ATOM     48  H18 PRO d   1      27.298 -23.091  -9.716  0.00  0.00     0.075 H 
ATOM     49  H19 PRO d   1      28.419 -22.467  -8.458  0.00  0.00     0.075 H 
BRANCH  47  50
ATOM     50  NZ  PRO d   1      29.186 -24.134  -9.598  0.00  0.00    -0.079 N 
ATOM     51  H20 PRO d   1      28.837 -24.820  -8.947  0.00  0.00     0.274 HD
ATOM     52  H21 PRO d   1      30.149 -23.927  -9.383  0.00  0.00     0.274 HD
ATOM     53  H22 PRO d   1      29.122 -24.498 -10.536  0.00  0.00     0.274 HD
ENDBRANCH  47  50
ENDBRANCH  44  47
ENDBRANCH  41  44
ENDBRANCH  38  41
ENDBRANCH  18  38
ENDBRANCH  15  18
ENDBRANCH  11  14
ENDBRANCH   8  11
ENDBRANCH   5   7
BRANCH   5  54
ATOM     54  CB  PRO d   1      23.782 -14.341  -7.354  0.00  0.00    -0.012 C 
ATOM     55  H28 PRO d   1      23.683 -13.525  -6.623  0.00  0.00     0.044 H 
ATOM     56  H29 PRO d   1      24.166 -15.240  -6.850  0.00  0.00     0.044 H 
BRANCH  54  57
ATOM     57  CG  PRO d   1      22.439 -14.650  -7.878  0.00  0.00    -0.028 A 
ATOM     58  CD1 PRO d   1      21.984 -14.531  -9.165  0.00  0.00    -0.015 A 
ATOM     59  NE1 PRO d   1      20.613 -14.845  -9.205  0.00  0.00    -0.365 N 
ATOM     60  H30 PRO d   1      22.589 -14.239 -10.022  0.00  0.00     0.112 H 
ATOM     61  CE2 PRO d   1      20.203 -15.169  -7.931  0.00  0.00     0.042 A 
ATOM     62  H31 PRO d   1      20.017 -14.834 -10.045  0.00  0.00     0.165 HD
ATOM     63  CD2 PRO d   1      21.302 -15.010  -7.071  0.00  0.00    -0.002 A 
ATOM     64  CZ2 PRO d   1      18.914 -15.564  -7.453  0.00  0.00    -0.056 A 
ATOM     65  CE3 PRO d   1      21.151 -15.262  -5.713  0.00  0.00    -0.070 A 
ATOM     66  CZ3 PRO d   1      19.915 -15.617  -5.231  0.00  0.00    -0.082 A 
ATOM     67  H32 PRO d   1      21.998 -15.179  -5.042  0.00  0.00     0.084 H 
ATOM     68  CH2 PRO d   1      18.812 -15.766  -6.115  0.00  0.00    -0.081 A 
ATOM     69  H34 PRO d   1      19.780 -15.785  -4.169  0.00  0.00     0.083 H 
ATOM     70  H35 PRO d   1      17.851 -16.052  -5.704  0.00  0.00     0.083 H 
ATOM     71  H33 PRO d   1      18.069 -15.694  -8.120  0.00  0.00     0.086 H 
ENDBRANCH  54  57
ENDBRANCH   5  54
ENDBRANCH   1   5
BRANCH   3  72
ATOM     72  CA  PRO d   1      26.849 -11.493  -6.335  0.00  0.00     0.092 C 
ATOM     73  H37 PRO d   1      27.900 -11.629  -6.629  0.00  0.00     0.088 H 
BRANCH  72  74
ATOM     74  C   PRO d   1      26.600 -12.239  -5.049  0.00  0.00     0.241 C 
ATOM     75  O   PRO d   1      25.453 -12.529  -4.722  0.00  0.00    -0.271 OA
ATOM     76  N   PRO d   1      27.650 -12.523  -4.282  0.00  0.00    -0.344 N 
ATOM     77  H45 PRO d   1      28.551 -12.227  -4.600  0.00  0.00     0.163 HD
BRANCH  76  78
ATOM     78  CA  PRO d   1      27.583 -13.223  -3.031  0.00  0.00     0.113 C 
ATOM     79  H46 PRO d   1      26.538 -13.481  -2.805  0.00  0.00     0.091 H 
BRANCH  78  80
ATOM     80  C   PRO d   1      28.136 -12.371  -1.971  0.00  0.00     0.243 C 
ATOM     81  O   PRO d   1      28.680 -11.281  -2.247  0.00  0.00    -0.271 OA
ATOM     82  N   PRO d   1      27.941 -12.790  -0.743  0.00  0.00    -0.346 N 
ATOM     83  H52 PRO d   1      27.663 -13.740  -0.603  0.00  0.00     0.163 HD
BRANCH  82  84
ATOM     84  CA  PRO d   1      28.115 -11.912   0.459  0.00  0.00     0.093 C 
ATOM     85  H53 PRO d   1      28.669 -11.024   0.120  0.00  0.00     0.088 H 
BRANCH  84  86
ATOM     86  C   PRO d   1      28.988 -12.566   1.534  0.00  0.00     0.241 C 
ATOM     87  O   PRO d   1      28.931 -12.234   2.716  0.00  0.00    -0.271 OA
ATOM     88  N   PRO d   1      29.900 -13.437   1.095  0.00  0.00    -0.345 N 
ATOM     89  H61 PRO d   1      29.994 -13.628   0.118  0.00  0.00     0.163 HD
BRANCH  88  90
ATOM     90  CA  PRO d   1      30.772 -14.116   2.088  0.00  0.00     0.097 C 
ATOM     91  H62 PRO d   1      30.156 -14.503   2.913  0.00  0.00     0.089 H 
BRANCH  90  92
ATOM     92  C   PRO d   1      31.719 -13.039   2.622  0.00  0.00     0.196 C 
ATOM     93  O   PRO d   1      32.327 -12.316   1.804  0.00  0.00    -0.646 OA
ATOM     94  OXT PRO d   1      31.853 -12.918   3.858  0.00  0.00    -0.646 OA
ENDBRANCH  90  92
BRANCH  90  95
ATOM     95  CB  PRO d   1      31.534 -15.293   1.462  0.00  0.00    -0.028 C 
ATOM     96  H63 PRO d   1      32.024 -15.862   2.266  0.00  0.00     0.037 H 
ATOM     97  H64 PRO d   1      32.297 -14.893   0.778  0.00  0.00     0.037 H 
BRANCH  95  98
ATOM     98  CG  PRO d   1      30.623 -16.241   0.678  0.00  0.00     0.018 C 
ATOM     99  H65 PRO d   1      30.391 -15.766  -0.287  0.00  0.00     0.049 H 
ATOM    100  H66 PRO d   1      29.695 -16.372   1.254  0.00  0.00     0.049 H 
BRANCH  98 101
ATOM    101  CD  PRO d   1      31.210 -17.658   0.386  0.00  0.00     0.172 C 
ATOM    102  OE1 PRO d   1      31.182 -18.036  -0.840  0.00  0.00    -0.648 OA
ATOM    103  OE2 PRO d   1      31.656 -18.403   1.354  0.00  0.00    -0.648 OA
ENDBRANCH  98 101
ENDBRANCH  95  98
ENDBRANCH  90  95
ENDBRANCH  88  90
ENDBRANCH  84  86
BRANCH  84 104
ATOM    104  CB  PRO d   1      26.755 -11.397   0.976  0.00  0.00    -0.014 C 
ATOM    105  H54 PRO d   1      26.933 -10.630   1.745  0.00  0.00     0.043 H 
ATOM    106  H55 PRO d   1      26.200 -12.238   1.418  0.00  0.00     0.043 H 
BRANCH 104 107
ATOM    107  CG  PRO d   1      25.941 -10.804  -0.116  0.00  0.00    -0.056 A 
ATOM    108  CD1 PRO d   1      25.047 -11.566  -0.811  0.00  0.00    -0.077 A 
ATOM    109  CE1 PRO d   1      24.371 -11.027  -1.897  0.00  0.00    -0.082 A 
ATOM    110  H56 PRO d   1      24.865 -12.593  -0.515  0.00  0.00     0.084 H 
ATOM    111  CZ  PRO d   1      24.603  -9.780  -2.270  0.00  0.00    -0.083 A 
ATOM    112  H58 PRO d   1      23.652 -11.629  -2.440  0.00  0.00     0.083 H 
ATOM    113  CE2 PRO d   1      25.495  -8.990  -1.566  0.00  0.00    -0.082 A 
ATOM    114  H60 PRO d   1      24.090  -9.373  -3.134  0.00  0.00     0.083 H 
ATOM    115  CD2 PRO d   1      26.175  -9.506  -0.513  0.00  0.00    -0.077 A 
ATOM    116  H59 PRO d   1      25.650  -7.957  -1.857  0.00  0.00     0.083 H 
ATOM    117  H57 PRO d   1      26.901  -8.899   0.015  0.00  0.00     0.084 H 
ENDBRANCH 104 107
ENDBRANCH  84 104
ENDBRANCH  82  84
ENDBRANCH  78  80
BRANCH  78 118
ATOM    118  CB  PRO d   1      28.450 -14.515  -3.099  0.00  0.00     0.060 C 
ATOM    119  H47 PRO d   1      28.587 -14.930  -2.090  0.00  0.00     0.086 H 
BRANCH 118 120
ATOM    120  OG1 PRO d   1      29.750 -14.139  -3.643  0.00  0.00    -0.393 OA
ATOM    121  H48 PRO d   1      30.156 -13.495  -3.075  0.00  0.00     0.210 HD
ENDBRANCH 118 120
BRANCH 118 122
ATOM    122  CG2 PRO d   1      27.738 -15.523  -3.945  0.00  0.00    -0.050 C 
ATOM    123  H49 PRO d   1      28.338 -16.443  -4.003  0.00  0.00     0.031 H 
ATOM    124  H50 PRO d   1      27.593 -15.116  -4.956  0.00  0.00     0.031 H 
ATOM    125  H51 PRO d   1      26.759 -15.752  -3.498  0.00  0.00     0.031 H 
ENDBRANCH 118 122
ENDBRANCH  78 118
ENDBRANCH  76  78
ENDBRANCH  72  74
BRANCH  72 126
ATOM    126  CB  PRO d   1      26.560  -9.944  -6.159  0.00  0.00    -0.033 C 
ATOM    127  H38 PRO d   1      25.504  -9.807  -5.884  0.00  0.00     0.042 H 
BRANCH 126 128
ATOM    128  CG1 PRO d   1      27.391  -9.394  -5.075  0.00  0.00    -0.071 C 
ATOM    129  H39 PRO d   1      27.182  -8.320  -4.962  0.00  0.00     0.028 H 
ATOM    130  H40 PRO d   1      28.454  -9.537  -5.319  0.00  0.00     0.028 H 
ATOM    131  H41 PRO d   1      27.157  -9.914  -4.134  0.00  0.00     0.028 H 
ENDBRANCH 126 128
BRANCH 126 132
ATOM    132  CG2 PRO d   1      26.799  -9.263  -7.469  0.00  0.00    -0.071 C 
ATOM    133  H42 PRO d   1      26.154  -9.712  -8.239  0.00  0.00     0.028 H 
ATOM    134  H43 PRO d   1      27.854  -9.383  -7.758  0.00  0.00     0.028 H 
ATOM    135  H44 PRO d   1      26.565  -8.193  -7.374  0.00  0.00     0.028 H 
ENDBRANCH 126 132
ENDBRANCH  72 126
ENDBRANCH   3  72
TORSDOF 33
