REMARK  7 active torsions:
REMARK  status: ('A' for Active; 'I' for Inactive)
REMARK    1  A    between atoms: C12_7  and  N11_8 
REMARK       I    between atoms: N11_8  and  C9_9 
REMARK       I    between atoms: C9_9  and  N8_11 
REMARK    2  A    between atoms: N8_11  and  C7_12 
REMARK    3  A    between atoms: N19_14  and  C21_21 
REMARK    4  A    between atoms: C5_16  and  C2_17 
REMARK    5  A    between atoms: C2_17  and  C4_18 
REMARK    6  A    between atoms: C2_17  and  C3_19 
REMARK    7  A    between atoms: C2_17  and  C1_20 
ROOT
ATOM      1  C7  L10 d   1       7.609  15.452  37.844  0.00  0.00     0.135 A 
ATOM      2  C6  L10 d   1       7.380  14.773  38.988  0.00  0.00    -0.012 A 
ATOM      3  N19 L10 d   1       7.882  16.754  38.166  0.00  0.00    -0.217 N 
ATOM      4  N20 L10 d   1       7.784  16.843  39.549  0.00  0.00    -0.169 NA
ATOM      5  C5  L10 d   1       7.476  15.671  40.035  0.00  0.00     0.066 A 
ATOM      6  H7  L10 d   1       7.159  13.710  39.071  0.00  0.00     0.092 H 
ENDROOT
BRANCH   1   7
ATOM      7  N8  L10 d   1       7.624  14.926  36.554  0.00  0.00    -0.293 N 
ATOM      8  C9  L10 d   1       6.891  13.889  36.064  0.00  0.00     0.326 C 
ATOM      9  N11 L10 d   1       7.284  13.423  34.849  0.00  0.00    -0.309 N 
ATOM     10  O10 L10 d   1       5.987  13.385  36.703  0.00  0.00    -0.247 OA
ATOM     11  H5  L10 d   1       8.181  13.744  34.544  0.00  0.00     0.170 HD
ATOM     12  H6  L10 d   1       8.250  15.364  35.909  0.00  0.00     0.172 HD
BRANCH   9  13
ATOM     13  C12 L10 d   1       6.628  12.562  33.957  0.00  0.00     0.036 A 
ATOM     14  C13 L10 d   1       7.456  11.921  33.021  0.00  0.00    -0.056 A 
ATOM     15  C14 L10 d   1       6.922  11.056  32.107  0.00  0.00    -0.060 A 
ATOM     16  H2  L10 d   1       8.523  12.113  33.023  0.00  0.00     0.087 H 
ATOM     17  C15 L10 d   1       5.558  10.832  32.120  0.00  0.00     0.034 A 
ATOM     18  H1  L10 d   1       7.557  10.555  31.385  0.00  0.00     0.086 H 
ATOM     19 CL16 L10 d   1       4.890   9.771  30.951  0.00  0.00    -0.084 Cl
ATOM     20  C17 L10 d   1       4.718  11.449  33.030  0.00  0.00    -0.060 A 
ATOM     21  C18 L10 d   1       5.255  12.319  33.951  0.00  0.00    -0.056 A 
ATOM     22  H3  L10 d   1       3.652  11.250  33.018  0.00  0.00     0.086 H 
ATOM     23  H4  L10 d   1       4.612  12.814  34.670  0.00  0.00     0.087 H 
ENDBRANCH   9  13
ENDBRANCH   1   7
BRANCH   3  24
ATOM     24  C21 L10 d   1       8.196  17.828  37.286  0.00  0.00     0.060 A 
ATOM     25  C26 L10 d   1       7.482  18.047  36.106  0.00  0.00    -0.055 A 
ATOM     26  C25 L10 d   1       7.798  19.084  35.253  0.00  0.00    -0.081 A 
ATOM     27  H17 L10 d   1       6.660  17.387  35.854  0.00  0.00     0.087 H 
ATOM     28  C24 L10 d   1       8.834  19.935  35.566  0.00  0.00    -0.083 A 
ATOM     29  H18 L10 d   1       7.233  19.228  34.340  0.00  0.00     0.083 H 
ATOM     30  C23 L10 d   1       9.552  19.747  36.729  0.00  0.00    -0.081 A 
ATOM     31  H19 L10 d   1       9.085  20.752  34.899  0.00  0.00     0.083 H 
ATOM     32  C22 L10 d   1       9.236  18.702  37.571  0.00  0.00    -0.055 A 
ATOM     33  H20 L10 d   1      10.364  20.420  36.980  0.00  0.00     0.083 H 
ATOM     34  H21 L10 d   1       9.813  18.559  38.477  0.00  0.00     0.087 H 
ENDBRANCH   3  24
BRANCH   5  35
ATOM     35  C2  L10 d   1       7.291  15.314  41.489  0.00  0.00    -0.005 C 
BRANCH  35  36
ATOM     36  C4  L10 d   1       7.055  16.596  42.289  0.00  0.00    -0.064 C 
ATOM     37  H8  L10 d   1       6.919  16.345  43.351  0.00  0.00     0.028 H 
ATOM     38  H9  L10 d   1       6.154  17.102  41.913  0.00  0.00     0.028 H 
ATOM     39  H10 L10 d   1       7.923  17.263  42.178  0.00  0.00     0.028 H 
ENDBRANCH  35  36
BRANCH  35  40
ATOM     40  C3  L10 d   1       8.589  14.627  41.922  0.00  0.00    -0.064 C 
ATOM     41  H11 L10 d   1       8.733  13.710  41.332  0.00  0.00     0.028 H 
ATOM     42  H12 L10 d   1       8.529  14.370  42.990  0.00  0.00     0.028 H 
ATOM     43  H13 L10 d   1       9.437  15.307  41.755  0.00  0.00     0.028 H 
ENDBRANCH  35  40
BRANCH  35  44
ATOM     44  C1  L10 d   1       6.122  14.352  41.714  0.00  0.00    -0.064 C 
ATOM     45  H14 L10 d   1       5.184  14.837  41.406  0.00  0.00     0.028 H 
ATOM     46  H15 L10 d   1       6.065  14.087  42.780  0.00  0.00     0.028 H 
ATOM     47  H16 L10 d   1       6.277  13.441  41.118  0.00  0.00     0.028 H 
ENDBRANCH  35  44
ENDBRANCH   5  35
TORSDOF 7
