REMARK  6 active torsions:
REMARK  status: ('A' for Active; 'I' for Inactive)
REMARK    1  A    between atoms: C16_5  and  C17_6 
REMARK    2  A    between atoms: C17_6  and  O18_7 
REMARK    3  A    between atoms: O18_7  and  C19_8 
REMARK    4  A    between atoms: C11_15  and  N10_16 
REMARK       I    between atoms: N10_16  and  C8_17 
REMARK    5  A    between atoms: C8_17  and  C6_19 
REMARK    6  A    between atoms: C4_24  and  N26_26 
ROOT
ATOM      1  N10 L11 d   1       6.354  13.806  34.758  0.00  0.00    -0.323 N 
ATOM      2  C8  L11 d   1       5.806  13.805  36.002  0.00  0.00     0.256 C 
ATOM      3  O9  L11 d   1       4.937  13.036  36.345  0.00  0.00    -0.267 OA
ATOM      4  H10 L11 d   1       6.925  14.595  34.533  0.00  0.00     0.169 HD
ENDROOT
BRANCH   1   5
ATOM      5  C11 L11 d   1       6.219  12.837  33.748  0.00  0.00     0.035 A 
ATOM      6  C12 L11 d   1       7.360  12.337  33.129  0.00  0.00    -0.056 A 
ATOM      7  C13 L11 d   1       7.265  11.393  32.121  0.00  0.00    -0.059 A 
ATOM      8  H2  L11 d   1       8.336  12.691  33.440  0.00  0.00     0.087 H 
ATOM      9  C14 L11 d   1       6.027  10.937  31.687  0.00  0.00     0.042 A 
ATOM     10  H1  L11 d   1       8.168  11.005  31.665  0.00  0.00     0.086 H 
ATOM     11 CL15 L11 d   1       5.936   9.758  30.388  0.00  0.00    -0.084 Cl
ATOM     12  C16 L11 d   1       4.880  11.435  32.302  0.00  0.00    -0.010 A 
ATOM     13  C25 L11 d   1       4.976  12.386  33.308  0.00  0.00    -0.047 A 
ATOM     14  H9  L11 d   1       4.073  12.783  33.757  0.00  0.00     0.088 H 
BRANCH  12  15
ATOM     15  C17 L11 d   1       3.510  11.028  31.838  0.00  0.00     0.051 C 
ATOM     16  H3  L11 d   1       3.485  11.085  30.740  0.00  0.00     0.082 H 
ATOM     17  H4  L11 d   1       2.778  11.733  32.258  0.00  0.00     0.082 H 
BRANCH  15  18
ATOM     18  O18 L11 d   1       3.141   9.720  32.225  0.00  0.00    -0.345 OA
BRANCH  18  19
ATOM     19  C19 L11 d   1       2.019   9.316  31.543  0.00  0.00     0.086 A 
ATOM     20  C24 L11 d   1       1.399   8.114  31.919  0.00  0.00     0.034 A 
ATOM     21  N23 L11 d   1       0.317   7.685  31.259  0.00  0.00    -0.270 NA
ATOM     22  H5  L11 d   1       1.797   7.534  32.744  0.00  0.00     0.119 H 
ATOM     23  C22 L11 d   1      -0.218   8.374  30.238  0.00  0.00     0.002 A 
ATOM     24  C21 L11 d   1       0.344   9.577  29.822  0.00  0.00    -0.063 A 
ATOM     25  H6  L11 d   1      -1.097   7.989  29.733  0.00  0.00     0.114 H 
ATOM     26  C20 L11 d   1       1.481  10.060  30.473  0.00  0.00    -0.048 A 
ATOM     27  H7  L11 d   1      -0.096  10.133  29.002  0.00  0.00     0.085 H 
ATOM     28  H8  L11 d   1       1.942  10.990  30.161  0.00  0.00     0.087 H 
ENDBRANCH  18  19
ENDBRANCH  15  18
ENDBRANCH  12  15
ENDBRANCH   1   5
BRANCH   2  29
ATOM     29  C6  L11 d   1       6.242  14.794  36.997  0.00  0.00     0.036 A 
ATOM     30  C7  L11 d   1       7.043  15.863  36.602  0.00  0.00    -0.030 A 
ATOM     31  C2  L11 d   1       7.441  16.781  37.559  0.00  0.00     0.119 A 
ATOM     32  H11 L11 d   1       7.348  15.974  35.568  0.00  0.00     0.089 H 
ATOM     33  F1  L11 d   1       8.207  17.805  37.174  0.00  0.00    -0.206 F 
ATOM     34  C3  L11 d   1       7.059  16.660  38.893  0.00  0.00    -0.025 A 
ATOM     35  C4  L11 d   1       6.274  15.574  39.296  0.00  0.00     0.014 A 
ATOM     36  H13 L11 d   1       7.369  17.405  39.617  0.00  0.00     0.091 H 
ATOM     37  C5  L11 d   1       5.863  14.652  38.331  0.00  0.00    -0.047 A 
ATOM     38  H12 L11 d   1       5.240  13.814  38.623  0.00  0.00     0.087 H 
BRANCH  35  39
ATOM     39  N26 L11 d   1       5.845  15.437  40.634  0.00  0.00    -0.279 NA
ATOM     40  C31 L11 d   1       5.853  14.064  41.158  0.00  0.00     0.003 C 
ATOM     41  C30 L11 d   1       5.101  14.095  42.499  0.00  0.00     0.031 C 
ATOM     42  H14 L11 d   1       6.888  13.724  41.312  0.00  0.00     0.059 H 
ATOM     43  H15 L11 d   1       5.345  13.387  40.455  0.00  0.00     0.059 H 
ATOM     44  O29 L11 d   1       5.678  15.035  43.418  0.00  0.00    -0.389 OA
ATOM     45  H16 L11 d   1       5.136  13.092  42.949  0.00  0.00     0.076 H 
ATOM     46  H17 L11 d   1       4.054  14.377  42.313  0.00  0.00     0.076 H 
ATOM     47  C28 L11 d   1       5.778  16.355  42.880  0.00  0.00     0.031 C 
ATOM     48  C27 L11 d   1       6.523  16.354  41.559  0.00  0.00     0.003 C 
ATOM     49  H18 L11 d   1       6.317  16.994  43.595  0.00  0.00     0.076 H 
ATOM     50  H19 L11 d   1       4.766  16.755  42.721  0.00  0.00     0.076 H 
ATOM     51  H20 L11 d   1       6.527  17.369  41.136  0.00  0.00     0.059 H 
ATOM     52  H21 L11 d   1       7.559  16.019  41.719  0.00  0.00     0.059 H 
ENDBRANCH  35  39
ENDBRANCH   2  29
TORSDOF 6
