REMARK  3 active torsions:
REMARK  status: ('A' for Active; 'I' for Inactive)
REMARK    1  A    between atoms: C4_1  and  C5_2 
REMARK    2  A    between atoms: C5_2  and  C6_3 
REMARK    3  A    between atoms: C6_3  and  C7_4 
ROOT
ATOM      1  C5  L12 d   1       2.935  12.927  29.382  0.00  0.00    -0.035 C 
ATOM      2  H1  L12 d   1       2.469  12.649  28.425  0.00  0.00     0.040 H 
ATOM      3  H2  L12 d   1       3.126  14.010  29.396  0.00  0.00     0.040 H 
ENDROOT
BRANCH   1   4
ATOM      4  C4  L12 d   1       4.261  12.202  29.501  0.00  0.00    -0.030 A 
ATOM      5  C11 L12 d   1       4.693  11.206  28.708  0.00  0.00    -0.016 A 
ATOM      6  N11 L12 d   1       5.951  10.804  29.096  0.00  0.00    -0.365 N 
ATOM      7  H9  L12 d   1       4.130  10.779  27.879  0.00  0.00     0.112 H 
ATOM      8  C22 L12 d   1       6.379  11.527  30.167  0.00  0.00     0.042 A 
ATOM      9  H13 L12 d   1       6.494  10.058  28.639  0.00  0.00     0.165 HD
ATOM     10  C21 L12 d   1       5.343  12.450  30.472  0.00  0.00    -0.002 A 
ATOM     11  C24 L12 d   1       7.561  11.498  30.917  0.00  0.00    -0.056 A 
ATOM     12  C20 L12 d   1       5.518  13.336  31.544  0.00  0.00    -0.070 A 
ATOM     13  C28 L12 d   1       6.683  13.303  32.275  0.00  0.00    -0.082 A 
ATOM     14  H10 L12 d   1       4.738  14.045  31.796  0.00  0.00     0.084 H 
ATOM     15  C26 L12 d   1       7.703  12.392  31.971  0.00  0.00    -0.081 A 
ATOM     16  H14 L12 d   1       6.814  13.994  33.100  0.00  0.00     0.083 H 
ATOM     17  H12 L12 d   1       8.611  12.385  32.563  0.00  0.00     0.083 H 
ATOM     18  H11 L12 d   1       8.349  10.793  30.680  0.00  0.00     0.086 H 
ENDBRANCH   1   4
BRANCH   1  19
ATOM     19  C6  L12 d   1       1.957  12.588  30.518  0.00  0.00    -0.037 C 
ATOM     20  H3  L12 d   1       1.062  13.219  30.418  0.00  0.00     0.040 H 
ATOM     21  H4  L12 d   1       2.445  12.794  31.482  0.00  0.00     0.040 H 
BRANCH  19  22
ATOM     22  C7  L12 d   1       1.540  11.138  30.481  0.00  0.00    -0.055 A 
ATOM     23  C8  L12 d   1       2.036  10.248  31.419  0.00  0.00    -0.060 A 
ATOM     24  C10 L12 d   1       1.656   8.919  31.368  0.00  0.00     0.002 A 
ATOM     25  H5  L12 d   1       2.718  10.591  32.189  0.00  0.00     0.086 H 
ATOM     26  N12 L12 d   1       0.823   8.465  30.442  0.00  0.00    -0.273 NA
ATOM     27  H6  L12 d   1       2.050   8.229  32.106  0.00  0.00     0.114 H 
ATOM     28  C13 L12 d   1       0.328   9.289  29.530  0.00  0.00     0.002 A 
ATOM     29  C15 L12 d   1       0.668  10.640  29.515  0.00  0.00    -0.060 A 
ATOM     30  H7  L12 d   1      -0.355   8.905  28.781  0.00  0.00     0.114 H 
ATOM     31  H8  L12 d   1       0.258  11.298  28.758  0.00  0.00     0.086 H 
ENDBRANCH  19  22
ENDBRANCH   1  19
TORSDOF 3
