REMARK  2 active torsions:
REMARK  status: ('A' for Active; 'I' for Inactive)
REMARK    1  A    between atoms: C2_1  and  C3_2 
REMARK       I    between atoms: N1_6  and  C10_9 
REMARK    2  A    between atoms: C10_9  and  C7_8 
ROOT
ATOM      1  C3  1P3 d   1       2.420  57.455  54.574  0.00  0.00    -0.042 C 
ATOM      2  C20 1P3 d   1       3.850  57.934  54.452  0.00  0.00     0.001 C 
ATOM      3  C4  1P3 d   1       2.181  56.854  55.954  0.00  0.00    -0.059 C 
ATOM      4  C5  1P3 d   1       3.180  55.749  56.256  0.00  0.00    -0.050 C 
ATOM      5  N1  1P3 d   1       4.775  56.844  54.751  0.00  0.00    -0.352 N 
ATOM      6  C6  1P3 d   1       4.617  56.219  56.063  0.00  0.00    -0.002 C 
ATOM      7  C10 1P3 d   1       5.707  56.440  53.873  0.00  0.00     0.215 C 
ATOM      8  O11 1P3 d   1       6.498  55.532  54.101  0.00  0.00    -0.274 OA
ATOM      9  H4  1P3 d   1       2.230  56.686  53.811  0.00  0.00     0.042 H 
ATOM     10  H5  1P3 d   1       4.019  58.758  55.161  0.00  0.00     0.065 H 
ATOM     11  H6  1P3 d   1       4.028  58.290  53.426  0.00  0.00     0.065 H 
ATOM     12  H7  1P3 d   1       1.164  56.437  55.992  0.00  0.00     0.033 H 
ATOM     13  H8  1P3 d   1       2.282  57.645  56.712  0.00  0.00     0.033 H 
ATOM     14  H9  1P3 d   1       2.989  54.901  55.581  0.00  0.00     0.035 H 
ATOM     15  H10 1P3 d   1       3.048  55.425  57.299  0.00  0.00     0.035 H 
ATOM     16  H11 1P3 d   1       5.294  55.355  56.137  0.00  0.00     0.064 H 
ATOM     17  H12 1P3 d   1       4.868  56.950  56.846  0.00  0.00     0.064 H 
ENDROOT
BRANCH   7  18
ATOM     18  C7  1P3 d   1       5.753  57.094  52.495  0.00  0.00    -0.003 C 
ATOM     19  H13 1P3 d   1       6.569  56.650  51.906  0.00  0.00     0.040 H 
ATOM     20  H14 1P3 d   1       5.928  58.174  52.607  0.00  0.00     0.040 H 
ATOM     21  H15 1P3 d   1       4.796  56.929  51.979  0.00  0.00     0.040 H 
ENDBRANCH   7  18
BRANCH   1  22
ATOM     22  C2  1P3 d   1       1.488  58.617  54.349  0.00  0.00    -0.071 C 
ATOM     23  H1  1P3 d   1       1.668  59.044  53.351  0.00  0.00     0.028 H 
ATOM     24  H2  1P3 d   1       1.669  59.386  55.114  0.00  0.00     0.028 H 
ATOM     25  H3  1P3 d   1       0.446  58.270  54.417  0.00  0.00     0.028 H 
ENDBRANCH   1  22
TORSDOF 2
