REMARK  4 active torsions:
REMARK  status: ('A' for Active; 'I' for Inactive)
REMARK       I    between atoms: N1_6  and  C6_7 
REMARK    1  A    between atoms: C6_7  and  C7_9 
REMARK    2  A    between atoms: C7_9  and  O4_11 
REMARK    3  A    between atoms: O4_11  and  C8_12 
REMARK    4  A    between atoms: C8_12  and  C9_13 
ROOT
ATOM      1  C3  E1P d   1       5.900  58.891  51.307  0.00  0.00    -0.002 C 
ATOM      2  C2  E1P d   1       6.618  58.153  50.167  0.00  0.00    -0.050 C 
ATOM      3  C1  E1P d   1       5.808  56.957  49.662  0.00  0.00    -0.062 C 
ATOM      4  C5  E1P d   1       5.416  55.992  50.778  0.00  0.00    -0.050 C 
ATOM      5  C4  E1P d   1       4.737  56.719  51.924  0.00  0.00    -0.002 C 
ATOM      6  N1  E1P d   1       5.571  57.875  52.333  0.00  0.00    -0.344 N 
ATOM      7  C6  E1P d   1       6.007  57.971  53.580  0.00  0.00     0.319 C 
ATOM      8  O2  E1P d   1       6.721  58.883  54.007  0.00  0.00    -0.262 OA
ATOM      9  H1  E1P d   1       4.980  59.363  50.932  0.00  0.00     0.064 H 
ATOM     10  H2  E1P d   1       6.559  59.661  51.734  0.00  0.00     0.064 H 
ATOM     11  H3  E1P d   1       7.591  57.794  50.533  0.00  0.00     0.035 H 
ATOM     12  H4  E1P d   1       6.775  58.853  49.334  0.00  0.00     0.035 H 
ATOM     13  H5  E1P d   1       6.412  56.411  48.922  0.00  0.00     0.033 H 
ATOM     14  H6  E1P d   1       4.891  57.331  49.183  0.00  0.00     0.033 H 
ATOM     15  H7  E1P d   1       6.322  55.495  51.156  0.00  0.00     0.035 H 
ATOM     16  H8  E1P d   1       4.725  55.238  50.373  0.00  0.00     0.035 H 
ATOM     17  H9  E1P d   1       4.617  56.033  52.775  0.00  0.00     0.064 H 
ATOM     18  H10 E1P d   1       3.749  57.076  51.599  0.00  0.00     0.064 H 
ENDROOT
BRANCH   7  19
ATOM     19  C7  E1P d   1       5.606  56.839  54.500  0.00  0.00     0.351 C 
ATOM     20  O3  E1P d   1       6.306  55.841  54.547  0.00  0.00    -0.254 OA
BRANCH  19  21
ATOM     21  O4  E1P d   1       4.484  57.039  55.240  0.00  0.00    -0.314 OA
BRANCH  21  22
ATOM     22  C8  E1P d   1       4.171  56.054  56.245  0.00  0.00     0.026 C 
ATOM     23  H11 E1P d   1       4.907  56.123  57.059  0.00  0.00     0.074 H 
ATOM     24  H12 E1P d   1       4.216  55.052  55.794  0.00  0.00     0.074 H 
BRANCH  22  25
ATOM     25  C9  E1P d   1       2.771  56.286  56.814  0.00  0.00    -0.056 C 
ATOM     26  H13 E1P d   1       2.555  55.524  57.577  0.00  0.00     0.030 H 
ATOM     27  H14 E1P d   1       2.030  56.215  56.004  0.00  0.00     0.030 H 
ATOM     28  H15 E1P d   1       2.721  57.286  57.270  0.00  0.00     0.030 H 
ENDBRANCH  22  25
ENDBRANCH  21  22
ENDBRANCH  19  21
ENDBRANCH   7  19
TORSDOF 4
