REMARK  12 active torsions:
REMARK  status: ('A' for Active; 'I' for Inactive)
REMARK    1  A    between atoms: C1B_1  and  C0B_2 
REMARK       I    between atoms: C0B_2  and  NH2_4 
REMARK       I    between atoms: NH2_4  and  CZ_5 
REMARK       I    between atoms: CZ_5  and  NH1_6 
REMARK    2  A    between atoms: NE_7  and  CD_8 
REMARK    3  A    between atoms: CD_8  and  CG_9 
REMARK    4  A    between atoms: CG_9  and  CB_10 
REMARK    5  A    between atoms: CB_10  and  CA_11 
REMARK    6  A    between atoms: CAX_29  and  OAY_30 
REMARK    7  A    between atoms: CBA_32  and  CBD_33 
REMARK    8  A    between atoms: CBD_33  and  CBE_34 
REMARK    9  A    between atoms: CBP_42  and  CBQ_43 
REMARK   10  A    between atoms: CBQ_43  and  CBR_44 
REMARK   11  A    between atoms: CBR_44  and  CBN_45 
REMARK   12  A    between atoms: CBN_45  and  CBJ_46 
ROOT
ATOM      1  CA  0AR d   1       7.548  -9.863  17.754  0.00  0.00     0.089 C 
ATOM      2  N   0AR d   1       7.946  -8.517  18.197  0.00  0.00    -0.346 N 
ATOM      3  C   0AR d   1       6.201 -10.198  18.401  0.00  0.00     0.243 C 
ATOM      4  O   0AR d   1       6.082 -10.110  19.622  0.00  0.00    -0.271 OA
ATOM      5  H14 0AR d   1       7.472  -9.896  16.657  0.00  0.00     0.087 H 
ATOM      6  H15 0AR d   1       8.764  -8.400  18.761  0.00  0.00     0.163 HD
ATOM      7  CBO UN1 d   1       7.223  -7.454  17.851  0.00  0.00     0.241 C 
ATOM      8  OBM UN1 d   1       6.203  -7.540  17.170  0.00  0.00    -0.271 OA
ATOM      9  NBS UN1 d   1       6.417  -5.483  18.869  0.00  0.00    -0.346 N 
ATOM     10  CBP UN1 d   1       7.664  -6.081  18.366  0.00  0.00     0.089 C 
ATOM     11  H35 UN1 d   1       5.960  -5.917  19.645  0.00  0.00     0.163 HD
ATOM     12  H36 UN1 d   1       8.041  -5.480  17.525  0.00  0.00     0.087 H 
ATOM     13  NAL DPR d   1       5.160 -10.564  17.654  0.00  0.00    -0.337 N 
ATOM     14  CAR DPR d   1       5.025 -10.743  16.198  0.00  0.00    -0.001 C 
ATOM     15  CAQ DPR d   1       3.520 -10.904  15.980  0.00  0.00    -0.048 C 
ATOM     16  CAP DPR d   1       3.193 -11.749  17.211  0.00  0.00    -0.036 C 
ATOM     17  CAM DPR d   1       3.880 -10.916  18.296  0.00  0.00     0.091 C 
ATOM     18  CAN DPR d   1       2.990  -9.712  18.628  0.00  0.00     0.241 C 
ATOM     19  OAO DPR d   1       1.811  -9.900  18.926  0.00  0.00    -0.271 OA
ATOM     20  H16 DPR d   1       5.566 -11.640  15.863  0.00  0.00     0.064 H 
ATOM     21  H17 DPR d   1       5.406  -9.863  15.659  0.00  0.00     0.064 H 
ATOM     22  H18 DPR d   1       3.293 -11.434  15.043  0.00  0.00     0.035 H 
ATOM     23  H19 DPR d   1       2.995  -9.937  15.991  0.00  0.00     0.035 H 
ATOM     24  H20 DPR d   1       3.623 -12.759  17.139  0.00  0.00     0.036 H 
ATOM     25  H21 DPR d   1       2.108 -11.823  17.379  0.00  0.00     0.036 H 
ATOM     26  H22 DPR d   1       4.055 -11.502  19.210  0.00  0.00     0.087 H 
ATOM     27  NAS HSE d   1       3.539  -8.500  18.628  0.00  0.00    -0.346 N 
ATOM     28  CAT HSE d   1       2.703  -7.327  18.933  0.00  0.00     0.093 C 
ATOM     29  CAU HSE d   1       3.333  -6.053  18.372  0.00  0.00     0.245 C 
ATOM     30  OAV HSE d   1       3.381  -5.797  17.170  0.00  0.00    -0.271 OA
ATOM     31  CAW HSE d   1       2.612  -7.003  20.425  0.00  0.00     0.003 C 
ATOM     32  CAX HSE d   1       3.706  -5.952  20.627  0.00  0.00     0.108 C 
ATOM     33  H23 HSE d   1       4.511  -8.387  18.423  0.00  0.00     0.163 HD
ATOM     34  H24 HSE d   1       1.699  -7.490  18.514  0.00  0.00     0.087 H 
ATOM     35  H25 HSE d   1       2.808  -7.897  21.035  0.00  0.00     0.043 H 
ATOM     36  H26 HSE d   1       1.623  -6.595  20.680  0.00  0.00     0.043 H 
ATOM     37  H27 HSE d   1       3.386  -5.220  21.383  0.00  0.00     0.118 H 
ATOM     38  NAZ HIS d   1       3.877  -5.293  19.323  0.00  0.00    -0.310 N 
ATOM     39  CBA HIS d   1       4.510  -4.021  18.942  0.00  0.00     0.099 C 
ATOM     40  CBB HIS d   1       5.868  -4.392  18.340  0.00  0.00     0.241 C 
ATOM     41  OBC HIS d   1       6.378  -3.715  17.447  0.00  0.00    -0.271 OA
ATOM     42  H29 HIS d   1       3.895  -3.505  18.190  0.00  0.00     0.088 H 
ENDROOT
BRANCH   1  43
ATOM     43  CB  0AR d   1       8.565 -10.895  18.248  0.00  0.00    -0.036 C 
ATOM     44  H12 0AR d   1       8.876 -10.622  19.267  0.00  0.00     0.036 H 
ATOM     45  H13 0AR d   1       8.083 -11.884  18.264  0.00  0.00     0.036 H 
BRANCH  43  46
ATOM     46  CG  0AR d   1       9.810 -10.972  17.361  0.00  0.00    -0.048 C 
ATOM     47  H10 0AR d   1       9.528 -11.367  16.374  0.00  0.00     0.035 H 
ATOM     48  H11 0AR d   1      10.236  -9.964  17.245  0.00  0.00     0.035 H 
BRANCH  46  49
ATOM     49  CD  0AR d   1      10.856 -11.893  17.994  0.00  0.00     0.009 C 
ATOM     50  H8  0AR d   1      10.401 -12.868  18.223  0.00  0.00     0.064 H 
ATOM     51  H9  0AR d   1      11.695 -12.035  17.297  0.00  0.00     0.064 H 
BRANCH  49  52
ATOM     52  NE  0AR d   1      11.340 -11.268  19.233  0.00  0.00    -0.226 N 
ATOM     53  CZ  0AR d   1      12.325 -11.796  19.954  0.00  0.00     0.674 C 
ATOM     54  NH2 0AR d   1      12.712 -11.150  21.051  0.00  0.00    -0.161 N 
ATOM     55  NH1 0AR d   1      12.878 -12.955  19.601  0.00  0.00    -0.235 N 
ATOM     56  C0B 0AR d   1      13.700 -11.563  21.857  0.00  0.00     0.231 C 
ATOM     57  H4  0AR d   1      12.236 -10.303  21.289  0.00  0.00     0.187 HD
ATOM     58  O0C 0AR d   1      14.333 -12.589  21.608  0.00  0.00    -0.273 OA
ATOM     59  H5  0AR d   1      12.562 -13.437  18.747  0.00  0.00     0.174 HD
ATOM     60  H6  0AR d   1      13.621 -13.369  20.182  0.00  0.00     0.174 HD
ATOM     61  H7  0AR d   1      10.902 -10.393  19.553  0.00  0.00     0.177 HD
BRANCH  56  62
ATOM     62  C1B 0AR d   1      14.044 -10.718  23.085  0.00  0.00    -0.002 C 
ATOM     63  H1  0AR d   1      13.370  -9.850  23.133  0.00  0.00     0.040 H 
ATOM     64  H2  0AR d   1      15.085 -10.371  23.011  0.00  0.00     0.040 H 
ATOM     65  H3  0AR d   1      13.924 -11.326  23.994  0.00  0.00     0.040 H 
ENDBRANCH  56  62
ENDBRANCH  49  52
ENDBRANCH  46  49
ENDBRANCH  43  46
ENDBRANCH   1  43
BRANCH  10  66
ATOM     66  CBQ UN1 d   1       8.781  -6.155  19.412  0.00  0.00    -0.037 C 
ATOM     67  H37 UN1 d   1       9.102  -5.130  19.647  0.00  0.00     0.036 H 
ATOM     68  H38 UN1 d   1       9.624  -6.713  18.978  0.00  0.00     0.036 H 
BRANCH  66  69
ATOM     69  CBR UN1 d   1       8.371  -6.842  20.718  0.00  0.00    -0.054 C 
ATOM     70  H39 UN1 d   1       7.870  -7.792  20.480  0.00  0.00     0.033 H 
ATOM     71  H40 UN1 d   1       7.675  -6.187  21.263  0.00  0.00     0.033 H 
BRANCH  69  72
ATOM     72  CBN UN1 d   1       9.584  -7.129  21.608  0.00  0.00     0.016 C 
ATOM     73  H41 UN1 d   1       9.229  -7.393  22.615  0.00  0.00     0.049 H 
ATOM     74  H42 UN1 d   1      10.203  -6.222  21.664  0.00  0.00     0.049 H 
BRANCH  72  75
ATOM     75  CBJ UN1 d   1      10.443  -8.278  21.073  0.00  0.00     0.172 C 
ATOM     76  OBL UN1 d   1      11.489  -8.592  21.638  0.00  0.00    -0.648 OA
ATOM     77  OBK UN1 d   1      10.092  -8.911  20.077  0.00  0.00    -0.648 OA
ENDBRANCH  72  75
ENDBRANCH  69  72
ENDBRANCH  66  69
ENDBRANCH  10  66
BRANCH  39  78
ATOM     78  CBD HIS d   1       4.674  -3.110  20.162  0.00  0.00     0.004 C 
ATOM     79  H30 HIS d   1       5.597  -3.392  20.690  0.00  0.00     0.046 H 
ATOM     80  H31 HIS d   1       3.811  -3.256  20.828  0.00  0.00     0.046 H 
BRANCH  78  81
ATOM     81  CBE HIS d   1       4.758  -1.626  19.788  0.00  0.00     0.053 A 
ATOM     82  CBG HIS d   1       5.178  -1.107  18.638  0.00  0.00     0.002 A 
ATOM     83  NBI HIS d   1       5.070   0.218  18.716  0.00  0.00    -0.359 N 
ATOM     84  H32 HIS d   1       5.546  -1.668  17.781  0.00  0.00     0.114 H 
ATOM     85  CBH HIS d   1       4.583   0.518  19.916  0.00  0.00     0.064 A 
ATOM     86  H33 HIS d   1       5.320   0.891  17.977  0.00  0.00     0.166 HD
ATOM     87  NBF HIS d   1       4.393  -0.620  20.578  0.00  0.00    -0.247 NA
ATOM     88  H34 HIS d   1       4.376   1.519  20.291  0.00  0.00     0.143 H 
ENDBRANCH  78  81
ENDBRANCH  39  78
BRANCH  32  89
ATOM     89  OAY HSE d   1       4.938  -6.546  21.045  0.00  0.00    -0.377 OA
ATOM     90  H28 HSE d   1       5.603  -5.872  21.121  0.00  0.00     0.212 HD
ENDBRANCH  32  89
TORSDOF 12
