REMARK  4 active torsions:
REMARK  status: ('A' for Active; 'I' for Inactive)
REMARK    1  A    between atoms: C2_4  and  C1_1 
REMARK       I    between atoms: N7_14  and  C2_4 
REMARK    2  A    between atoms: C1'_6  and  N7_14 
REMARK    3  A    between atoms: C4'_9  and  C_12 
REMARK    4  A    between atoms: C_12  and  N1_13 
ROOT
ATOM      1  C1' LO1 d   1      42.603  14.060  66.772  0.00  0.00     0.035 A 
ATOM      2  C2' LO1 d   1      43.500  13.971  67.827  0.00  0.00    -0.057 A 
ATOM      3  C3' LO1 d   1      43.486  12.869  68.661  0.00  0.00    -0.073 A 
ATOM      4  C4' LO1 d   1      42.577  11.859  68.451  0.00  0.00    -0.033 A 
ATOM      5  C5' LO1 d   1      41.669  11.940  67.413  0.00  0.00    -0.073 A 
ATOM      6  C6' LO1 d   1      41.673  13.035  66.568  0.00  0.00    -0.057 A 
ATOM      7  H1  LO1 d   1      44.214  14.768  67.998  0.00  0.00     0.086 H 
ATOM      8  H2  LO1 d   1      44.192  12.801  69.481  0.00  0.00     0.084 H 
ATOM      9  H3  LO1 d   1      40.951  11.143  67.260  0.00  0.00     0.084 H 
ATOM     10  H4  LO1 d   1      40.961  13.098  65.754  0.00  0.00     0.086 H 
ENDROOT
BRANCH   1  11
ATOM     11  N7  LO1 d   1      42.673  15.207  65.965  0.00  0.00    -0.318 N 
ATOM     12  C2  LO1 d   1      42.250  15.377  64.680  0.00  0.00     0.322 C 
ATOM     13  O2  LO1 d   1      41.702  14.561  63.960  0.00  0.00    -0.261 OA
ATOM     14  H10 LO1 d   1      43.090  16.009  66.391  0.00  0.00     0.169 HD
BRANCH  12  15
ATOM     15  C1  LO1 d   1      42.489  16.710  64.108  0.00  0.00     0.270 C 
ATOM     16  O1  LO1 d   1      43.698  17.138  64.107  0.00  0.00    -0.640 OA
ATOM     17  OXT LO1 d   1      41.468  17.354  63.665  0.00  0.00    -0.640 OA
ENDBRANCH  12  15
ENDBRANCH   1  11
BRANCH   4  18
ATOM     18  C   LO1 d   1      42.573  10.675  69.368  0.00  0.00     0.103 C 
ATOM     19  H5  LO1 d   1      43.549  10.569  69.865  0.00  0.00     0.082 H 
ATOM     20  H6  LO1 d   1      42.345   9.755  68.809  0.00  0.00     0.082 H 
BRANCH  18  21
ATOM     21  N1  LO1 d   1      41.526  10.951  70.349  0.00  0.00    -0.075 N 
ATOM     22  H7  LO1 d   1      41.469  10.187  71.003  0.00  0.00     0.274 HD
ATOM     23  H8  LO1 d   1      40.642  11.056  69.876  0.00  0.00     0.274 HD
ATOM     24  H9  LO1 d   1      41.745  11.801  70.844  0.00  0.00     0.274 HD
ENDBRANCH  18  21
ENDBRANCH   4  18
TORSDOF 4
