REMARK  2 active torsions:
REMARK  status: ('A' for Active; 'I' for Inactive)
REMARK    1  A    between atoms: C4_3  and  C21_13 
REMARK    2  A    between atoms: C6_5  and  C7_6 
ROOT
ATOM      1  N1  L02 d   1       9.438  19.834  51.944  0.00  0.00    -0.281 N 
ATOM      2  N3  L02 d   1       9.461  21.080  51.335  0.00  0.00    -0.174 NA
ATOM      3  C4  L02 d   1       9.879  20.936  50.098  0.00  0.00     0.089 A 
ATOM      4  C5  L02 d   1      10.147  19.561  49.881  0.00  0.00    -0.029 A 
ATOM      5  C6  L02 d   1       9.862  18.933  51.043  0.00  0.00     0.034 A 
ATOM      6  H1  L02 d   1       9.148  19.636  52.912  0.00  0.00     0.189 HD
ATOM      7  H2  L02 d   1      10.510  19.103  48.962  0.00  0.00     0.090 H 
ENDROOT
BRANCH   5   8
ATOM      8  C7  L02 d   1       9.979  17.484  51.389  0.00  0.00    -0.009 C 
ATOM      9  C8  L02 d   1      10.670  16.640  50.327  0.00  0.00    -0.034 C 
ATOM     10  C10 L02 d   1      10.768  15.203  50.861  0.00  0.00     0.082 C 
ATOM     11  H4  L02 d   1      11.677  17.036  50.131  0.00  0.00     0.036 H 
ATOM     12  H5  L02 d   1      10.083  16.654  49.397  0.00  0.00     0.036 H 
ATOM     13  N12 L02 d   1       9.415  14.686  51.117  0.00  0.00    -0.075 N 
ATOM     14  H6  L02 d   1      11.347  15.197  51.797  0.00  0.00     0.075 H 
ATOM     15  H7  L02 d   1      11.269  14.568  50.116  0.00  0.00     0.075 H 
ATOM     16  C13 L02 d   1       8.810  15.470  52.218  0.00  0.00     0.082 C 
ATOM     17  H8  L02 d   1       9.467  13.714  51.381  0.00  0.00     0.277 HD
ATOM     18  H9  L02 d   1       8.853  14.779  50.285  0.00  0.00     0.277 HD
ATOM     19  C15 L02 d   1       8.607  16.922  51.755  0.00  0.00    -0.034 C 
ATOM     20  H10 L02 d   1       9.478  15.453  53.092  0.00  0.00     0.075 H 
ATOM     21  H11 L02 d   1       7.838  15.032  52.490  0.00  0.00     0.075 H 
ATOM     22  H12 L02 d   1       7.945  16.947  50.877  0.00  0.00     0.036 H 
ATOM     23  H13 L02 d   1       8.162  17.516  52.567  0.00  0.00     0.036 H 
ATOM     24  H3  L02 d   1      10.607  17.424  52.290  0.00  0.00     0.049 H 
ENDBRANCH   5   8
BRANCH   3  25
ATOM     25  C21 L02 d   1       9.998  22.059  49.142  0.00  0.00    -0.006 A 
ATOM     26  C20 L02 d   1      10.936  22.064  48.098  0.00  0.00    -0.069 A 
ATOM     27  C28 L02 d   1      10.956  23.163  47.236  0.00  0.00    -0.061 A 
ATOM     28  H14 L02 d   1      11.626  21.238  47.964  0.00  0.00     0.085 H 
ATOM     29  C26 L02 d   1      10.064  24.236  47.419  0.00  0.00     0.034 A 
ATOM     30  H17 L02 d   1      11.666  23.190  46.417  0.00  0.00     0.086 H 
ATOM     31  C24 L02 d   1       9.144  24.211  48.466  0.00  0.00    -0.061 A 
ATOM     32 CL1  L02 d   1      10.090  25.624  46.362  0.00  0.00    -0.084 Cl
ATOM     33  C22 L02 d   1       9.107  23.133  49.319  0.00  0.00    -0.069 A 
ATOM     34  H16 L02 d   1       8.459  25.039  48.607  0.00  0.00     0.086 H 
ATOM     35  H15 L02 d   1       8.389  23.111  50.131  0.00  0.00     0.085 H 
ENDBRANCH   3  25
TORSDOF 2
