REMARK  11 active torsions:
REMARK  status: ('A' for Active; 'I' for Inactive)
REMARK    1  A    between atoms: C26_1  and  N25_2 
REMARK       I    between atoms: N25_2  and  C24_3 
REMARK       I    between atoms: C24_3  and  N23_5 
REMARK       I    between atoms: N23_5  and  C22_6 
REMARK       I    between atoms: C22_6  and  N27_7 
REMARK    2  A    between atoms: N21_8  and  C20_9 
REMARK    3  A    between atoms: C20_9  and  C19_10 
REMARK    4  A    between atoms: C19_10  and  C18_11 
REMARK    5  A    between atoms: C18_11  and  C17_12 
REMARK    6  A    between atoms: N32_15  and  C31_16 
REMARK    7  A    between atoms: C13_20  and  C12_21 
REMARK    8  A    between atoms: C54_26  and  C53_27 
REMARK    9  A    between atoms: C45_34  and  C46_35 
REMARK   10  A    between atoms: C40_41  and  C39_42 
REMARK   11  A    between atoms: C39_42  and  C38_43 
ROOT
ATOM      1  C17 VR0 d   1      21.662   3.774   9.470  0.00  0.00     0.089 C 
ATOM      2  C30 VR0 d   1      22.999   4.301  10.026  0.00  0.00     0.243 C 
ATOM      3  O29 VR0 d   1      23.418   3.854  11.100  0.00  0.00    -0.271 OA
ATOM      4  N16 VR0 d   1      21.629   2.316   9.650  0.00  0.00    -0.346 N 
ATOM      5  H15 VR0 d   1      21.558   4.038   8.407  0.00  0.00     0.087 H 
ATOM      6  H19 VR0 d   1      21.059   1.933  10.377  0.00  0.00     0.163 HD
ATOM      7  N32 MEA d   1      23.687   5.201   9.270  0.00  0.00    -0.341 N 
ATOM      8  C42 MEA d   1      24.264   5.358   6.842  0.00  0.00     0.241 C 
ATOM      9  O41 MEA d   1      24.776   6.265   6.180  0.00  0.00    -0.271 OA
ATOM     10  C40 MEA d   1      23.210   5.673   7.938  0.00  0.00     0.095 C 
ATOM     11  H33 MEA d   1      22.270   5.157   7.693  0.00  0.00     0.088 H 
ATOM     12  C15 DAL d   1      22.326   1.489   8.884  0.00  0.00     0.240 C 
ATOM     13  O14 DAL d   1      23.067   1.861   7.977  0.00  0.00    -0.271 OA
ATOM     14  C13 DAL d   1      22.177  -0.001   9.225  0.00  0.00     0.086 C 
ATOM     15  N11 DAL d   1      23.468  -0.670   8.975  0.00  0.00    -0.348 N 
ATOM     16  H20 DAL d   1      21.899  -0.113  10.283  0.00  0.00     0.086 H 
ATOM     17  H24 DAL d   1      23.529  -1.340   8.235  0.00  0.00     0.163 HD
ATOM     18  C58 IAS d   1      24.559  -0.412   9.703  0.00  0.00     0.220 C 
ATOM     19  O57 IAS d   1      24.600   0.396  10.639  0.00  0.00    -0.274 OA
ATOM     20  C56 IAS d   1      25.803  -1.185   9.280  0.00  0.00     0.037 C 
ATOM     21  C54 IAS d   1      26.798  -0.237   8.605  0.00  0.00     0.104 C 
ATOM     22  N51 IAS d   1      26.182   0.359   7.399  0.00  0.00    -0.346 N 
ATOM     23  C50 IAS d   1      26.387   1.629   7.040  0.00  0.00     0.220 C 
ATOM     24  O49 IAS d   1      27.110   2.420   7.655  0.00  0.00    -0.274 OA
ATOM     25  C48 IAS d   1      25.665   2.054   5.757  0.00  0.00     0.037 C 
ATOM     26  C45 IAS d   1      25.534   3.575   5.658  0.00  0.00     0.104 C 
ATOM     27  N43 IAS d   1      24.548   4.062   6.669  0.00  0.00    -0.344 N 
ATOM     28  H25 IAS d   1      25.517  -1.978   8.573  0.00  0.00     0.051 H 
ATOM     29  H26 IAS d   1      26.272  -1.636  10.167  0.00  0.00     0.051 H 
ATOM     30  H27 IAS d   1      27.063   0.566   9.308  0.00  0.00     0.090 H 
ATOM     31  H28 IAS d   1      25.589  -0.211   6.830  0.00  0.00     0.163 HD
ATOM     32  H29 IAS d   1      24.659   1.609   5.750  0.00  0.00     0.051 H 
ATOM     33  H30 IAS d   1      26.234   1.688   4.890  0.00  0.00     0.051 H 
ATOM     34  H31 IAS d   1      26.510   4.036   5.869  0.00  0.00     0.090 H 
ATOM     35  H32 IAS d   1      24.079   3.389   7.242  0.00  0.00     0.163 HD
ENDROOT
BRANCH   1  36
ATOM     36  C18 VR0 d   1      20.505   4.361  10.287  0.00  0.00    -0.036 C 
ATOM     37  H13 VR0 d   1      20.659   4.127  11.351  0.00  0.00     0.036 H 
ATOM     38  H14 VR0 d   1      20.484   5.452  10.151  0.00  0.00     0.036 H 
BRANCH  36  39
ATOM     39  C19 VR0 d   1      19.164   3.771   9.830  0.00  0.00    -0.048 C 
ATOM     40  H11 VR0 d   1      18.935   4.134   8.817  0.00  0.00     0.035 H 
ATOM     41  H12 VR0 d   1      19.236   2.674   9.819  0.00  0.00     0.035 H 
BRANCH  39  42
ATOM     42  C20 VR0 d   1      18.048   4.190  10.777  0.00  0.00     0.009 C 
ATOM     43  H9  VR0 d   1      18.243   3.774  11.776  0.00  0.00     0.064 H 
ATOM     44  H10 VR0 d   1      18.014   5.288  10.837  0.00  0.00     0.064 H 
BRANCH  42  45
ATOM     45  N21 VR0 d   1      16.753   3.688  10.283  0.00  0.00    -0.226 N 
ATOM     46  C22 VR0 d   1      15.841   3.208  11.121  0.00  0.00     0.675 C 
ATOM     47  N23 VR0 d   1      14.668   2.791  10.625  0.00  0.00    -0.142 N 
ATOM     48  N27 VR0 d   1      16.124   3.064  12.423  0.00  0.00    -0.235 N 
ATOM     49  C24 VR0 d   1      13.666   2.348  11.397  0.00  0.00     0.334 C 
ATOM     50  H5  VR0 d   1      14.534   2.811   9.634  0.00  0.00     0.189 HD
ATOM     51  N25 VR0 d   1      12.559   1.980  10.756  0.00  0.00    -0.347 N 
ATOM     52  O28 VR0 d   1      13.740   2.334  12.628  0.00  0.00    -0.247 OA
ATOM     53  H4  VR0 d   1      12.508   2.018   9.758  0.00  0.00     0.163 HD
ATOM     54  H6  VR0 d   1      17.029   3.389  12.792  0.00  0.00     0.174 HD
ATOM     55  H7  VR0 d   1      15.436   2.629  13.054  0.00  0.00     0.174 HD
ATOM     56  H8  VR0 d   1      16.552   3.710   9.273  0.00  0.00     0.177 HD
BRANCH  51  57
ATOM     57  C26 VR0 d   1      11.407   1.514  11.558  0.00  0.00    -0.017 C 
ATOM     58  H1  VR0 d   1      10.577   1.249  10.887  0.00  0.00     0.056 H 
ATOM     59  H2  VR0 d   1      11.086   2.316  12.239  0.00  0.00     0.056 H 
ATOM     60  H3  VR0 d   1      11.701   0.631  12.144  0.00  0.00     0.056 H 
ENDBRANCH  51  57
ENDBRANCH  42  45
ENDBRANCH  39  42
ENDBRANCH  36  39
ENDBRANCH   1  36
BRANCH   7  61
ATOM     61  C31 MEA d   1      24.931   5.709   9.899  0.00  0.00    -0.015 C 
ATOM     62  H16 MEA d   1      25.076   5.218  10.873  0.00  0.00     0.056 H 
ATOM     63  H17 MEA d   1      24.851   6.796  10.045  0.00  0.00     0.056 H 
ATOM     64  H18 MEA d   1      25.788   5.489   9.246  0.00  0.00     0.056 H 
ENDBRANCH   7  61
BRANCH  10  65
ATOM     65  C39 MEA d   1      22.958   7.192   7.971  0.00  0.00    -0.014 C 
ATOM     66  H34 MEA d   1      22.682   7.527   6.960  0.00  0.00     0.043 H 
ATOM     67  H35 MEA d   1      23.883   7.697   8.285  0.00  0.00     0.043 H 
BRANCH  65  68
ATOM     68  C38 MEA d   1      21.838   7.573   8.938  0.00  0.00    -0.056 A 
ATOM     69  C33 MEA d   1      22.140   7.942  10.269  0.00  0.00    -0.077 A 
ATOM     70  C34 MEA d   1      21.105   8.312  11.143  0.00  0.00    -0.082 A 
ATOM     71  H36 MEA d   1      23.168   7.939  10.614  0.00  0.00     0.084 H 
ATOM     72  C35 MEA d   1      19.767   8.312  10.698  0.00  0.00    -0.083 A 
ATOM     73  H37 MEA d   1      21.335   8.598  12.163  0.00  0.00     0.083 H 
ATOM     74  C36 MEA d   1      19.466   7.943   9.374  0.00  0.00    -0.082 A 
ATOM     75  H38 MEA d   1      18.970   8.596  11.376  0.00  0.00     0.083 H 
ATOM     76  C37 MEA d   1      20.504   7.574   8.494  0.00  0.00    -0.077 A 
ATOM     77  H39 MEA d   1      18.438   7.942   9.031  0.00  0.00     0.083 H 
ATOM     78  H40 MEA d   1      20.273   7.291   7.473  0.00  0.00     0.084 H 
ENDBRANCH  65  68
ENDBRANCH  10  65
BRANCH  14  79
ATOM     79  C12 DAL d   1      21.092  -0.633   8.340  0.00  0.00    -0.049 C 
ATOM     80  H21 DAL d   1      20.991  -1.700   8.589  0.00  0.00     0.030 H 
ATOM     81  H22 DAL d   1      21.375  -0.529   7.282  0.00  0.00     0.030 H 
ATOM     82  H23 DAL d   1      20.133  -0.123   8.515  0.00  0.00     0.030 H 
ENDBRANCH  14  79
BRANCH  26  83
ATOM     83  C46 IAS d   1      25.109   3.947   4.231  0.00  0.00     0.197 C 
ATOM     84  O44 IAS d   1      23.885   4.003   3.994  0.00  0.00    -0.646 OA
ATOM     85  O47 IAS d   1      26.030   4.162   3.402  0.00  0.00    -0.646 OA
ENDBRANCH  26  83
BRANCH  21  86
ATOM     86  C53 IAS d   1      28.071  -1.002   8.214  0.00  0.00     0.197 C 
ATOM     87  O52 IAS d   1      27.965  -1.873   7.324  0.00  0.00    -0.646 OA
ATOM     88  O55 IAS d   1      29.124  -0.690   8.814  0.00  0.00    -0.646 OA
ENDBRANCH  21  86
TORSDOF 11
