REMARK  3 active torsions:
REMARK  status: ('A' for Active; 'I' for Inactive)
REMARK    1  A    between atoms: C1_1  and  S2_2 
REMARK    2  A    between atoms: S2_2  and  C3_3 
REMARK    3  A    between atoms: C6_6  and  C8_8 
ROOT
ATOM      1  C3  L03 d   1       9.384  19.563  51.062  0.00  0.00     0.189 A 
ATOM      2  N4  L03 d   1      10.179  18.949  50.219  0.00  0.00    -0.122 NA
ATOM      3  N5  L03 d   1      10.576  19.778  49.313  0.00  0.00    -0.129 NA
ATOM      4  C6  L03 d   1      10.087  20.981  49.562  0.00  0.00     0.162 A 
ATOM      5  N7  L03 d   1       9.279  20.861  50.664  0.00  0.00    -0.317 N 
ATOM      6  H4  L03 d   1       8.710  21.600  51.100  0.00  0.00     0.169 HD
ENDROOT
BRANCH   4   7
ATOM      7  C8  L03 d   1      10.217  22.184  48.722  0.00  0.00     0.012 A 
ATOM      8  C9  L03 d   1      11.147  22.249  47.672  0.00  0.00    -0.068 A 
ATOM      9  C10 L03 d   1      11.169  23.375  46.846  0.00  0.00    -0.061 A 
ATOM     10  H5  L03 d   1      11.841  21.433  47.504  0.00  0.00     0.085 H 
ATOM     11  C11 L03 d   1      10.267  24.417  47.044  0.00  0.00     0.034 A 
ATOM     12  H6  L03 d   1      11.895  23.438  46.044  0.00  0.00     0.086 H 
ATOM     13 CL12 L03 d   1      10.292  25.845  46.024  0.00  0.00    -0.084 Cl
ATOM     14  C13 L03 d   1       9.337  24.323  48.076  0.00  0.00    -0.061 A 
ATOM     15  C14 L03 d   1       9.298  23.220  48.904  0.00  0.00    -0.068 A 
ATOM     16  H7  L03 d   1       8.631  25.131  48.232  0.00  0.00     0.086 H 
ATOM     17  H8  L03 d   1       8.557  23.158  49.693  0.00  0.00     0.085 H 
ENDBRANCH   4   7
BRANCH   1  18
ATOM     18  S2  L03 d   1       8.577  18.860  52.457  0.00  0.00    -0.095 SA
BRANCH  18  19
ATOM     19  C1  L03 d   1       7.519  20.221  53.021  0.00  0.00    -0.027 C 
ATOM     20  H1  L03 d   1       6.951  19.901  53.907  0.00  0.00     0.042 H 
ATOM     21  H2  L03 d   1       6.821  20.500  52.218  0.00  0.00     0.042 H 
ATOM     22  H3  L03 d   1       8.144  21.088  53.280  0.00  0.00     0.042 H 
ENDBRANCH  18  19
ENDBRANCH   1  18
TORSDOF 3
