REMARK  9 active torsions:
REMARK  status: ('A' for Active; 'I' for Inactive)
REMARK    1  A    between atoms: C1_1  and  C2_2 
REMARK    2  A    between atoms: C2_2  and  C3_3 
REMARK    3  A    between atoms: C2_2  and  C4_4 
REMARK    4  A    between atoms: C2_2  and  C5_5 
REMARK    5  A    between atoms: C7_7  and  N8_8 
REMARK       I    between atoms: N8_8  and  C9_9 
REMARK       I    between atoms: C9_9  and  N11_11 
REMARK    6  A    between atoms: N11_11  and  C12_12 
REMARK    7  A    between atoms: C17_17  and  C18_18 
REMARK    8  A    between atoms: C18_18  and  O19_19 
REMARK    9  A    between atoms: O19_19  and  C20_20 
ROOT
ATOM      1  N8  L09 d   1       6.390  15.774  36.502  0.00  0.00    -0.292 N 
ATOM      2  C9  L09 d   1       6.100  14.606  35.816  0.00  0.00     0.326 C 
ATOM      3  O10 L09 d   1       5.561  13.652  36.343  0.00  0.00    -0.247 OA
ATOM      4  N11 L09 d   1       6.422  14.583  34.477  0.00  0.00    -0.309 N 
ATOM      5  H11 L09 d   1       6.687  16.554  35.951  0.00  0.00     0.172 HD
ATOM      6  H12 L09 d   1       6.822  15.423  34.109  0.00  0.00     0.170 HD
ENDROOT
BRANCH   4   7
ATOM      7  C12 L09 d   1       6.257  13.510  33.547  0.00  0.00     0.037 A 
ATOM      8  C13 L09 d   1       7.300  13.364  32.567  0.00  0.00    -0.056 A 
ATOM      9  C14 L09 d   1       7.245  12.361  31.582  0.00  0.00    -0.059 A 
ATOM     10  H13 L09 d   1       8.146  14.041  32.588  0.00  0.00     0.087 H 
ATOM     11  C15 L09 d   1       6.115  11.467  31.539  0.00  0.00     0.042 A 
ATOM     12  H14 L09 d   1       8.047  12.261  30.860  0.00  0.00     0.086 H 
ATOM     13 CL16 L09 d   1       6.129  10.273  30.285  0.00  0.00    -0.084 Cl
ATOM     14  C17 L09 d   1       5.054  11.583  32.510  0.00  0.00    -0.010 A 
ATOM     15  C26 L09 d   1       5.117  12.609  33.507  0.00  0.00    -0.047 A 
ATOM     16  H21 L09 d   1       4.316  12.713  34.230  0.00  0.00     0.088 H 
BRANCH  14  17
ATOM     17  C18 L09 d   1       3.835  10.657  32.493  0.00  0.00     0.051 C 
ATOM     18  H15 L09 d   1       3.233  10.809  33.401  0.00  0.00     0.082 H 
ATOM     19  H16 L09 d   1       4.159   9.607  32.440  0.00  0.00     0.082 H 
BRANCH  17  20
ATOM     20  O19 L09 d   1       3.061  10.996  31.323  0.00  0.00    -0.345 OA
BRANCH  20  21
ATOM     21  C20 L09 d   1       2.059  10.099  30.997  0.00  0.00     0.086 A 
ATOM     22  C21 L09 d   1       1.146  10.482  29.955  0.00  0.00    -0.048 A 
ATOM     23  C22 L09 d   1       0.082   9.605  29.555  0.00  0.00    -0.063 A 
ATOM     24  H17 L09 d   1       1.262  11.443  29.466  0.00  0.00     0.087 H 
ATOM     25  C23 L09 d   1      -0.040   8.363  30.204  0.00  0.00     0.002 A 
ATOM     26  H18 L09 d   1      -0.610   9.893  28.772  0.00  0.00     0.085 H 
ATOM     27  N24 L09 d   1       0.835   8.004  31.196  0.00  0.00    -0.270 NA
ATOM     28  H19 L09 d   1      -0.834   7.683  29.917  0.00  0.00     0.114 H 
ATOM     29  C25 L09 d   1       1.860   8.796  31.614  0.00  0.00     0.034 A 
ATOM     30  H20 L09 d   1       2.524   8.458  32.401  0.00  0.00     0.119 H 
ENDBRANCH  20  21
ENDBRANCH  17  20
ENDBRANCH  14  17
ENDBRANCH   4   7
BRANCH   1  31
ATOM     31  C7  L09 d   1       6.310  15.984  37.915  0.00  0.00     0.153 A 
ATOM     32  C6  L09 d   1       6.061  15.072  38.934  0.00  0.00    -0.013 A 
ATOM     33  C5  L09 d   1       6.056  15.764  40.120  0.00  0.00     0.039 A 
ATOM     34  H10 L09 d   1       5.899  14.002  38.813  0.00  0.00     0.092 H 
ATOM     35  N28 L09 d   1       6.294  17.056  39.830  0.00  0.00    -0.280 N 
ATOM     36  N27 L09 d   1       6.448  17.166  38.464  0.00  0.00    -0.156 NA
ATOM     37  H22 L09 d   1       6.351  17.828  40.509  0.00  0.00     0.189 HD
BRANCH  33  38
ATOM     38  C2  L09 d   1       5.845  15.193  41.534  0.00  0.00    -0.007 C 
BRANCH  38  39
ATOM     39  C1  L09 d   1       4.614  14.261  41.592  0.00  0.00    -0.064 C 
ATOM     40  H1  L09 d   1       4.495  13.873  42.615  0.00  0.00     0.028 H 
ATOM     41  H2  L09 d   1       4.757  13.421  40.896  0.00  0.00     0.028 H 
ATOM     42  H3  L09 d   1       3.713  14.825  41.307  0.00  0.00     0.028 H 
ENDBRANCH  38  39
BRANCH  38  43
ATOM     43  C3  L09 d   1       5.674  16.320  42.557  0.00  0.00    -0.064 C 
ATOM     44  H4  L09 d   1       6.549  16.986  42.519  0.00  0.00     0.028 H 
ATOM     45  H5  L09 d   1       5.585  15.889  43.565  0.00  0.00     0.028 H 
ATOM     46  H6  L09 d   1       4.766  16.894  42.322  0.00  0.00     0.028 H 
ENDBRANCH  38  43
BRANCH  38  47
ATOM     47  C4  L09 d   1       7.104  14.352  41.925  0.00  0.00    -0.064 C 
ATOM     48  H7  L09 d   1       7.241  13.537  41.199  0.00  0.00     0.028 H 
ATOM     49  H8  L09 d   1       6.964  13.928  42.930  0.00  0.00     0.028 H 
ATOM     50  H9  L09 d   1       7.993  14.999  41.921  0.00  0.00     0.028 H 
ENDBRANCH  38  47
ENDBRANCH  33  38
ENDBRANCH   1  31
TORSDOF 9
