REMARK  1 active torsions:
REMARK  status: ('A' for Active; 'I' for Inactive)
REMARK    1  A    between atoms: C1_1  and  O_7 
ROOT
ATOM      1  C1  2CH d   1       5.150  12.734  31.765  0.00  0.00     0.087 A 
ATOM      2  C2  2CH d   1       6.272  12.715  32.628  0.00  0.00    -0.049 A 
ATOM      3  C3  2CH d   1       7.426  11.957  32.244  0.00  0.00    -0.080 A 
ATOM      4  C4  2CH d   1       7.444  11.240  31.032  0.00  0.00    -0.081 A 
ATOM      5  C5  2CH d   1       6.346  11.225  30.155  0.00  0.00    -0.059 A 
ATOM      6  C6  2CH d   1       5.191  11.988  30.540  0.00  0.00     0.067 A 
ATOM      7 CL8  2CH d   1       3.809  12.058  29.521  0.00  0.00    -0.081 Cl
ATOM      8  H1  2CH d   1       6.258  13.264  33.563  0.00  0.00     0.087 H 
ATOM      9  H2  2CH d   1       8.294  11.935  32.893  0.00  0.00     0.083 H 
ATOM     10  H3  2CH d   1       8.334  10.681  30.767  0.00  0.00     0.083 H 
ATOM     11  H4  2CH d   1       6.369  10.662  29.229  0.00  0.00     0.086 H 
ENDROOT
BRANCH   1  12
ATOM     12  O   2CH d   1       4.022  13.459  32.086  0.00  0.00    -0.359 OA
ATOM     13  H5  2CH d   1       4.153  13.893  32.921  0.00  0.00     0.217 HD
ENDBRANCH   1  12
TORSDOF 1
