REMARK  6 active torsions:
REMARK  status: ('A' for Active; 'I' for Inactive)
REMARK    1  A    between atoms: C4_4  and  N29_28 
REMARK    2  A    between atoms: C6_6  and  C8_8 
REMARK       I    between atoms: C8_8  and  N10_10 
REMARK    3  A    between atoms: N10_10  and  C11_11 
REMARK    4  A    between atoms: C18_17  and  C19_18 
REMARK    5  A    between atoms: C19_18  and  C20_19 
REMARK    6  A    between atoms: C20_19  and  C21_20 
ROOT
ATOM      1  C11 LI2 d   1       6.807  12.769  33.956  0.00  0.00     0.035 A 
ATOM      2  C12 LI2 d   1       7.860  11.917  33.582  0.00  0.00    -0.055 A 
ATOM      3  C13 LI2 d   1       7.729  11.001  32.553  0.00  0.00    -0.054 A 
ATOM      4  C14 LI2 d   1       6.535  10.923  31.854  0.00  0.00     0.043 A 
ATOM      5  N15 LI2 d   1       6.100  10.127  30.813  0.00  0.00    -0.365 N 
ATOM      6  C17 LI2 d   1       4.803  10.460  30.502  0.00  0.00    -0.016 A 
ATOM      7  C18 LI2 d   1       4.371  11.452  31.307  0.00  0.00    -0.030 A 
ATOM      8  C27 LI2 d   1       5.471  11.779  32.217  0.00  0.00     0.000 A 
ATOM      9  C28 LI2 d   1       5.613  12.713  33.262  0.00  0.00    -0.044 A 
ATOM     10  H5  LI2 d   1       8.802  11.979  34.115  0.00  0.00     0.087 H 
ATOM     11  H6  LI2 d   1       8.555  10.348  32.295  0.00  0.00     0.087 H 
ATOM     12  H7  LI2 d   1       6.658   9.399  30.344  0.00  0.00     0.165 HD
ATOM     13  H8  LI2 d   1       4.210   9.991  29.719  0.00  0.00     0.112 H 
ATOM     14  H17 LI2 d   1       4.797  13.379  33.518  0.00  0.00     0.088 H 
ENDROOT
BRANCH   1  15
ATOM     15  N10 LI2 d   1       7.009  13.681  35.011  0.00  0.00    -0.323 N 
ATOM     16  C8  LI2 d   1       6.227  13.811  36.122  0.00  0.00     0.256 C 
ATOM     17  O9  LI2 d   1       5.239  13.131  36.343  0.00  0.00    -0.267 OA
ATOM     18  H4  LI2 d   1       7.799  14.290  34.939  0.00  0.00     0.169 HD
BRANCH  16  19
ATOM     19  C6  LI2 d   1       6.651  14.793  37.156  0.00  0.00     0.036 A 
ATOM     20  C5  LI2 d   1       6.423  14.508  38.510  0.00  0.00    -0.047 A 
ATOM     21  C4  LI2 d   1       6.800  15.392  39.529  0.00  0.00     0.014 A 
ATOM     22  H2  LI2 d   1       5.940  13.575  38.776  0.00  0.00     0.087 H 
ATOM     23  C3  LI2 d   1       7.469  16.554  39.131  0.00  0.00    -0.025 A 
ATOM     24  C2  LI2 d   1       7.697  16.847  37.791  0.00  0.00     0.119 A 
ATOM     25  H1  LI2 d   1       7.820  17.246  39.889  0.00  0.00     0.091 H 
ATOM     26  F1  LI2 d   1       8.318  17.993  37.445  0.00  0.00    -0.206 F 
ATOM     27  C7  LI2 d   1       7.295  15.976  36.794  0.00  0.00    -0.030 A 
ATOM     28  H3  LI2 d   1       7.477  16.209  35.751  0.00  0.00     0.089 H 
BRANCH  21  29
ATOM     29  N29 LI2 d   1       6.592  15.076  40.908  0.00  0.00    -0.279 NA
ATOM     30  C30 LI2 d   1       5.680  13.952  41.182  0.00  0.00     0.003 C 
ATOM     31  C31 LI2 d   1       5.833  13.530  42.641  0.00  0.00     0.031 C 
ATOM     32  H18 LI2 d   1       5.931  13.106  40.526  0.00  0.00     0.059 H 
ATOM     33  H19 LI2 d   1       4.642  14.266  40.996  0.00  0.00     0.059 H 
ATOM     34  O32 LI2 d   1       5.474  14.629  43.495  0.00  0.00    -0.389 OA
ATOM     35  H20 LI2 d   1       6.877  13.242  42.832  0.00  0.00     0.076 H 
ATOM     36  H21 LI2 d   1       5.173  12.674  42.847  0.00  0.00     0.076 H 
ATOM     37  C33 LI2 d   1       6.389  15.708  43.281  0.00  0.00     0.031 C 
ATOM     38  C34 LI2 d   1       6.320  16.201  41.831  0.00  0.00     0.003 C 
ATOM     39  H22 LI2 d   1       7.411  15.362  43.496  0.00  0.00     0.076 H 
ATOM     40  H23 LI2 d   1       6.133  16.538  43.956  0.00  0.00     0.076 H 
ATOM     41  H24 LI2 d   1       5.317  16.605  41.630  0.00  0.00     0.059 H 
ATOM     42  H25 LI2 d   1       7.071  16.990  41.677  0.00  0.00     0.059 H 
ENDBRANCH  21  29
ENDBRANCH  16  19
ENDBRANCH   1  15
BRANCH   7  43
ATOM     43  C19 LI2 d   1       3.011  12.106  31.305  0.00  0.00    -0.035 C 
ATOM     44  H9  LI2 d   1       2.478  11.837  30.381  0.00  0.00     0.040 H 
ATOM     45  H10 LI2 d   1       3.131  13.198  31.354  0.00  0.00     0.040 H 
BRANCH  43  46
ATOM     46  C20 LI2 d   1       2.204  11.629  32.514  0.00  0.00    -0.037 C 
ATOM     47  H11 LI2 d   1       1.319  12.272  32.629  0.00  0.00     0.040 H 
ATOM     48  H12 LI2 d   1       2.831  11.704  33.414  0.00  0.00     0.040 H 
BRANCH  46  49
ATOM     49  C21 LI2 d   1       1.753  10.199  32.349  0.00  0.00    -0.055 A 
ATOM     50  C22 LI2 d   1       0.699   9.862  31.503  0.00  0.00    -0.060 A 
ATOM     51  C23 LI2 d   1       0.319   8.532  31.385  0.00  0.00     0.002 A 
ATOM     52  H13 LI2 d   1       0.180  10.631  30.942  0.00  0.00     0.086 H 
ATOM     53  N24 LI2 d   1       0.939   7.584  32.077  0.00  0.00    -0.273 NA
ATOM     54  H14 LI2 d   1      -0.494   8.264  30.720  0.00  0.00     0.114 H 
ATOM     55  C25 LI2 d   1       1.941   7.870  32.889  0.00  0.00     0.002 A 
ATOM     56  C26 LI2 d   1       2.377   9.175  33.056  0.00  0.00    -0.060 A 
ATOM     57  H15 LI2 d   1       2.430   7.071  33.434  0.00  0.00     0.114 H 
ATOM     58  H16 LI2 d   1       3.196   9.396  33.731  0.00  0.00     0.086 H 
ENDBRANCH  46  49
ENDBRANCH  43  46
ENDBRANCH   7  43
TORSDOF 6
