REMARK  6 active torsions:
REMARK  status: ('A' for Active; 'I' for Inactive)
REMARK    1  A    between atoms: C4_4  and  N28_28 
REMARK    2  A    between atoms: C6_6  and  C8_8 
REMARK       I    between atoms: C8_8  and  N10_10 
REMARK    3  A    between atoms: N10_10  and  C11_11 
REMARK    4  A    between atoms: N17_17  and  C18_18 
REMARK    5  A    between atoms: C18_18  and  C19_19 
REMARK    6  A    between atoms: C19_19  and  C20_20 
ROOT
ATOM      1  C11 WBT d   1       6.604  12.800  33.792  0.00  0.00     0.037 A 
ATOM      2  C12 WBT d   1       7.623  11.927  33.383  0.00  0.00    -0.056 A 
ATOM      3  C13 WBT d   1       7.447  10.974  32.407  0.00  0.00    -0.069 A 
ATOM      4  C14 WBT d   1       6.213  10.913  31.757  0.00  0.00    -0.008 A 
ATOM      5  C15 WBT d   1       5.664  10.075  30.682  0.00  0.00    -0.056 A 
ATOM      6  C16 WBT d   1       4.393  10.514  30.503  0.00  0.00    -0.019 A 
ATOM      7  N17 WBT d   1       4.086  11.553  31.369  0.00  0.00    -0.356 N 
ATOM      8  C26 WBT d   1       5.178  11.821  32.144  0.00  0.00     0.046 A 
ATOM      9  C27 WBT d   1       5.380  12.769  33.151  0.00  0.00    -0.030 A 
ATOM     10  H5  WBT d   1       8.594  12.007  33.858  0.00  0.00     0.086 H 
ATOM     11  H6  WBT d   1       8.246  10.288  32.149  0.00  0.00     0.085 H 
ATOM     12  H7  WBT d   1       6.169   9.274  30.145  0.00  0.00     0.086 H 
ATOM     13  H8  WBT d   1       3.700  10.102  29.771  0.00  0.00     0.111 H 
ATOM     14  H17 WBT d   1       4.594  13.464  33.423  0.00  0.00     0.090 H 
ENDROOT
BRANCH   1  15
ATOM     15  N10 WBT d   1       6.864  13.740  34.801  0.00  0.00    -0.323 N 
ATOM     16  C8  WBT d   1       6.169  13.820  35.985  0.00  0.00     0.256 C 
ATOM     17  O9  WBT d   1       5.192  13.117  36.215  0.00  0.00    -0.267 OA
ATOM     18  H4  WBT d   1       7.604  14.395  34.649  0.00  0.00     0.169 HD
BRANCH  16  19
ATOM     19  C6  WBT d   1       6.601  14.797  37.030  0.00  0.00     0.037 A 
ATOM     20  C5  WBT d   1       6.239  14.584  38.383  0.00  0.00    -0.042 A 
ATOM     21  C4  WBT d   1       6.634  15.446  39.404  0.00  0.00     0.034 A 
ATOM     22  H2  WBT d   1       5.633  13.720  38.633  0.00  0.00     0.088 H 
ATOM     23  C3  WBT d   1       7.396  16.571  39.015  0.00  0.00    -0.020 A 
ATOM     24  C2  WBT d   1       7.778  16.786  37.680  0.00  0.00     0.119 A 
ATOM     25  H1  WBT d   1       7.695  17.290  39.769  0.00  0.00     0.091 H 
ATOM     26  F1  WBT d   1       8.517  17.871  37.342  0.00  0.00    -0.206 F 
ATOM     27  C7  WBT d   1       7.377  15.907  36.691  0.00  0.00    -0.030 A 
ATOM     28  H3  WBT d   1       7.663  16.078  35.660  0.00  0.00     0.089 H 
BRANCH  21  29
ATOM     29  N28 WBT d   1       6.198  15.236  40.758  0.00  0.00    -0.377 N 
ATOM     30  C29 WBT d   1       6.157  13.864  41.269  0.00  0.00     0.015 C 
ATOM     31  C30 WBT d   1       5.399  13.895  42.593  0.00  0.00     0.034 C 
ATOM     32  H18 WBT d   1       7.179  13.491  41.429  0.00  0.00     0.067 H 
ATOM     33  H19 WBT d   1       5.637  13.211  40.553  0.00  0.00     0.067 H 
ATOM     34  O31 WBT d   1       6.073  14.695  43.561  0.00  0.00    -0.388 OA
ATOM     35  H20 WBT d   1       5.309  12.868  42.978  0.00  0.00     0.076 H 
ATOM     36  H21 WBT d   1       4.396  14.312  42.421  0.00  0.00     0.076 H 
ATOM     37  C32 WBT d   1       6.214  16.043  43.135  0.00  0.00     0.034 C 
ATOM     38  C33 WBT d   1       6.752  16.199  41.722  0.00  0.00     0.015 C 
ATOM     39  H22 WBT d   1       6.904  16.552  43.824  0.00  0.00     0.076 H 
ATOM     40  H23 WBT d   1       5.226  16.525  43.183  0.00  0.00     0.076 H 
ATOM     41  H24 WBT d   1       6.513  17.214  41.372  0.00  0.00     0.067 H 
ATOM     42  H25 WBT d   1       7.844  16.068  41.752  0.00  0.00     0.067 H 
ENDBRANCH  21  29
ENDBRANCH  16  19
ENDBRANCH   1  15
BRANCH   7  43
ATOM     43  C18 WBT d   1       2.802  12.272  31.477  0.00  0.00     0.003 C 
ATOM     44  H9  WBT d   1       2.220  12.130  30.554  0.00  0.00     0.065 H 
ATOM     45  H10 WBT d   1       2.991  13.345  31.630  0.00  0.00     0.065 H 
BRANCH  43  46
ATOM     46  C19 WBT d   1       2.016  11.711  32.674  0.00  0.00    -0.026 C 
ATOM     47  H11 WBT d   1       1.085  12.283  32.804  0.00  0.00     0.042 H 
ATOM     48  H12 WBT d   1       2.626  11.792  33.586  0.00  0.00     0.042 H 
BRANCH  46  49
ATOM     49  C20 WBT d   1       1.687  10.269  32.417  0.00  0.00    -0.054 A 
ATOM     50  C21 WBT d   1       0.630   9.918  31.566  0.00  0.00    -0.060 A 
ATOM     51  C22 WBT d   1       0.378   8.567  31.338  0.00  0.00     0.002 A 
ATOM     52  H13 WBT d   1       0.021  10.682  31.095  0.00  0.00     0.086 H 
ATOM     53  N23 WBT d   1       1.114   7.629  31.909  0.00  0.00    -0.273 NA
ATOM     54  H14 WBT d   1      -0.435   8.280  30.681  0.00  0.00     0.114 H 
ATOM     55  C24 WBT d   1       2.139   7.934  32.700  0.00  0.00     0.002 A 
ATOM     56  C25 WBT d   1       2.456   9.253  32.981  0.00  0.00    -0.060 A 
ATOM     57  H15 WBT d   1       2.735   7.138  33.131  0.00  0.00     0.114 H 
ATOM     58  H16 WBT d   1       3.291   9.491  33.630  0.00  0.00     0.086 H 
ENDBRANCH  46  49
ENDBRANCH  43  46
ENDBRANCH   7  43
TORSDOF 6
