REMARK  3 active torsions:
REMARK  status: ('A' for Active; 'I' for Inactive)
REMARK    1  A    between atoms: C4_4  and  N21_20 
REMARK    2  A    between atoms: C6_6  and  C8_8 
REMARK       I    between atoms: C8_8  and  N10_10 
REMARK    3  A    between atoms: N10_10  and  C11_11 
ROOT
ATOM      1  F1  LI3 d   1       8.405  18.491  36.483  0.00  0.00    -0.206 F 
ATOM      2  C2  LI3 d   1       7.635  17.441  36.840  0.00  0.00     0.119 A 
ATOM      3  C3  LI3 d   1       7.403  17.195  38.181  0.00  0.00    -0.020 A 
ATOM      4  C4  LI3 d   1       6.585  16.128  38.584  0.00  0.00     0.034 A 
ATOM      5  C5  LI3 d   1       6.037  15.296  37.602  0.00  0.00    -0.042 A 
ATOM      6  C6  LI3 d   1       6.271  15.539  36.244  0.00  0.00     0.037 A 
ATOM      7  C7  LI3 d   1       7.081  16.618  35.869  0.00  0.00    -0.030 A 
ATOM      8  H1  LI3 d   1       7.858  17.834  38.929  0.00  0.00     0.091 H 
ATOM      9  H2  LI3 d   1       5.423  14.452  37.897  0.00  0.00     0.088 H 
ATOM     10  H3  LI3 d   1       7.276  16.811  34.820  0.00  0.00     0.089 H 
ENDROOT
BRANCH   6  11
ATOM     11  C8  LI3 d   1       5.670  14.610  35.240  0.00  0.00     0.256 C 
ATOM     12  O9  LI3 d   1       4.717  13.915  35.576  0.00  0.00    -0.267 OA
ATOM     13  N10 LI3 d   1       6.231  14.522  34.000  0.00  0.00    -0.323 N 
ATOM     14  H4  LI3 d   1       7.015  15.110  33.800  0.00  0.00     0.169 HD
BRANCH  13  15
ATOM     15  C11 LI3 d   1       5.777  13.653  32.975  0.00  0.00     0.035 A 
ATOM     16  C12 LI3 d   1       4.425  13.569  32.622  0.00  0.00    -0.055 A 
ATOM     17  C13 LI3 d   1       3.995  12.719  31.621  0.00  0.00    -0.054 A 
ATOM     18  H5  LI3 d   1       3.701  14.183  33.145  0.00  0.00     0.087 H 
ATOM     19  C14 LI3 d   1       4.924  11.935  30.926  0.00  0.00     0.042 A 
ATOM     20  H6  LI3 d   1       2.941  12.659  31.374  0.00  0.00     0.087 H 
ATOM     21  N15 LI3 d   1       4.822  11.018  29.894  0.00  0.00    -0.365 N 
ATOM     22  C19 LI3 d   1       6.288  12.029  31.262  0.00  0.00    -0.006 A 
ATOM     23  C17 LI3 d   1       6.063  10.535  29.584  0.00  0.00    -0.022 A 
ATOM     24  H7  LI3 d   1       3.945  10.742  29.430  0.00  0.00     0.165 HD
ATOM     25  C18 LI3 d   1       6.981  11.111  30.367  0.00  0.00    -0.056 A 
ATOM     26  H8  LI3 d   1       6.272   9.793  28.815  0.00  0.00     0.111 H 
ATOM     27  H9  LI3 d   1       8.054  10.927  30.341  0.00  0.00     0.086 H 
ATOM     28  C20 LI3 d   1       6.710  12.889  32.289  0.00  0.00    -0.045 A 
ATOM     29  H10 LI3 d   1       7.761  12.956  32.545  0.00  0.00     0.088 H 
ENDBRANCH  13  15
ENDBRANCH   6  11
BRANCH   4  30
ATOM     30  N21 LI3 d   1       6.375  15.882  39.959  0.00  0.00    -0.377 N 
ATOM     31  C22 LI3 d   1       5.461  14.778  40.313  0.00  0.00     0.015 C 
ATOM     32  C23 LI3 d   1       5.599  14.492  41.804  0.00  0.00     0.034 C 
ATOM     33  H11 LI3 d   1       5.725  13.879  39.737  0.00  0.00     0.067 H 
ATOM     34  H12 LI3 d   1       4.425  15.068  40.086  0.00  0.00     0.067 H 
ATOM     35  O24 LI3 d   1       5.360  15.682  42.574  0.00  0.00    -0.388 OA
ATOM     36  H13 LI3 d   1       6.616  14.128  42.009  0.00  0.00     0.076 H 
ATOM     37  H14 LI3 d   1       4.869  13.722  42.093  0.00  0.00     0.076 H 
ATOM     38  C25 LI3 d   1       6.344  16.672  42.246  0.00  0.00     0.034 C 
ATOM     39  C26 LI3 d   1       6.145  17.080  40.789  0.00  0.00     0.015 C 
ATOM     40  H15 LI3 d   1       7.352  16.253  42.381  0.00  0.00     0.076 H 
ATOM     41  H16 LI3 d   1       6.221  17.549  42.898  0.00  0.00     0.076 H 
ATOM     42  H17 LI3 d   1       5.120  17.450  40.639  0.00  0.00     0.067 H 
ATOM     43  H18 LI3 d   1       6.863  17.868  40.518  0.00  0.00     0.067 H 
ENDBRANCH   4  30
TORSDOF 3
