REMARK  4 active torsions:
REMARK  status: ('A' for Active; 'I' for Inactive)
REMARK    1  A    between atoms: O10_6  and  C3_3 
REMARK    2  A    between atoms: C4_4  and  N12_7 
REMARK    3  A    between atoms: C9_19  and  O10_6 
REMARK    4  A    between atoms: C23_14  and  C9_19 
ROOT
ATOM      1  C13 LI4 d   1      17.740  32.463  30.913  0.00  0.00    -0.072 A 
ATOM      2  C15 LI4 d   1      17.770  31.337  31.763  0.00  0.00    -0.018 A 
ATOM      3  C16 LI4 d   1      16.541  30.849  32.344  0.00  0.00    -0.025 A 
ATOM      4  C17 LI4 d   1      15.339  31.510  32.047  0.00  0.00    -0.072 A 
ATOM      5  C18 LI4 d   1      15.386  32.583  31.215  0.00  0.00    -0.082 A 
ATOM      6  C19 LI4 d   1      16.561  33.059  30.655  0.00  0.00    -0.082 A 
ATOM      7  C23 LI4 d   1      18.996  30.680  32.060  0.00  0.00    -0.023 A 
ATOM      8  C24 LI4 d   1      18.983  29.592  32.900  0.00  0.00    -0.074 A 
ATOM      9  C25 LI4 d   1      17.784  29.128  33.463  0.00  0.00    -0.082 A 
ATOM     10  C26 LI4 d   1      16.574  29.733  33.202  0.00  0.00    -0.072 A 
ATOM     11  H6  LI4 d   1      18.655  32.843  30.473  0.00  0.00     0.084 H 
ATOM     12  H7  LI4 d   1      14.399  31.174  32.470  0.00  0.00     0.084 H 
ATOM     13  H8  LI4 d   1      14.459  33.092  30.977  0.00  0.00     0.083 H 
ATOM     14  H9  LI4 d   1      16.530  33.923  30.001  0.00  0.00     0.083 H 
ATOM     15  H10 LI4 d   1      19.913  29.085  33.131  0.00  0.00     0.084 H 
ATOM     16  H11 LI4 d   1      17.811  28.268  34.123  0.00  0.00     0.083 H 
ATOM     17  H12 LI4 d   1      15.662  29.356  33.650  0.00  0.00     0.084 H 
ENDROOT
BRANCH   7  18
ATOM     18  C9  LI4 d   1      20.295  31.214  31.484  0.00  0.00     0.051 C 
ATOM     19  H13 LI4 d   1      21.066  30.429  31.483  0.00  0.00     0.082 H 
ATOM     20  H14 LI4 d   1      20.139  31.576  30.457  0.00  0.00     0.082 H 
BRANCH  18  21
ATOM     21  O10 LI4 d   1      20.689  32.310  32.353  0.00  0.00    -0.343 OA
BRANCH  21  22
ATOM     22  C3  LI4 d   1      21.517  33.194  31.716  0.00  0.00     0.114 A 
ATOM     23  C2  LI4 d   1      22.507  32.767  30.823  0.00  0.00    -0.046 A 
ATOM     24  C1  LI4 d   1      23.315  33.728  30.218  0.00  0.00    -0.063 A 
ATOM     25  H2  LI4 d   1      22.642  31.713  30.607  0.00  0.00     0.088 H 
ATOM     26  C6  LI4 d   1      23.141  35.069  30.542  0.00  0.00     0.005 A 
ATOM     27  H1  LI4 d   1      24.073  33.433  29.501  0.00  0.00     0.085 H 
ATOM     28  N3  LI4 d   1      22.207  35.443  31.404  0.00  0.00    -0.241 NA
ATOM     29  H3  LI4 d   1      23.777  35.818  30.084  0.00  0.00     0.114 H 
ATOM     30  C4  LI4 d   1      21.398  34.560  31.981  0.00  0.00     0.154 A 
BRANCH  30  31
ATOM     31  N12 LI4 d   1      20.440  34.994  32.881  0.00  0.00    -0.382 N 
ATOM     32  H4  LI4 d   1      20.343  35.999  33.085  0.00  0.00     0.157 HD
ATOM     33  H5  LI4 d   1      19.825  34.312  33.347  0.00  0.00     0.157 HD
ENDBRANCH  30  31
ENDBRANCH  21  22
ENDBRANCH  18  21
ENDBRANCH   7  18
TORSDOF 4
