REMARK  11 active torsions:
REMARK  status: ('A' for Active; 'I' for Inactive)
REMARK    1  A    between atoms: O3B_8  and  PG_1 
REMARK    2  A    between atoms: PB_5  and  O3B_8 
REMARK    3  A    between atoms: O3A_12  and  PB_5 
REMARK    4  A    between atoms: PA_9  and  S1A_10 
REMARK    5  A    between atoms: PA_9  and  O3A_12 
REMARK    6  A    between atoms: PA_9  and  O5_13 
REMARK    7  A    between atoms: O5_13  and  C5_14 
REMARK    8  A    between atoms: C5_14  and  C4_15 
REMARK    9  A    between atoms: C3_17  and  O3_18 
REMARK   10  A    between atoms: C2_19  and  O2_20 
REMARK   11  A    between atoms: C1_21  and  N9_22 
ROOT
ATOM      1  C4  TAT d   1       0.464  33.396  48.480  0.00  0.00     0.089 C 
ATOM      2  O4  TAT d   1       0.175  34.442  49.489  0.00  0.00    -0.353 OA
ATOM      3  C3  TAT d   1       1.381  34.093  47.488  0.00  0.00     0.091 C 
ATOM      4  C2  TAT d   1       0.723  35.420  47.375  0.00  0.00     0.105 C 
ATOM      5  C1  TAT d   1       0.260  35.725  48.798  0.00  0.00     0.139 C 
ATOM      6  H4  TAT d   1      -0.461  33.077  47.978  0.00  0.00     0.090 H 
ATOM      7  H5  TAT d   1       2.396  34.201  47.898  0.00  0.00     0.091 H 
ATOM      8  H7  TAT d   1       1.443  36.179  47.035  0.00  0.00     0.093 H 
ATOM      9  H9  TAT d   1      -0.728  36.209  48.775  0.00  0.00     0.122 H 
ENDROOT
BRANCH   1  10
ATOM     10  C5  TAT d   1       1.094  32.209  49.123  0.00  0.00     0.056 C 
ATOM     11  H2  TAT d   1       0.318  31.596  49.604  0.00  0.00     0.079 H 
ATOM     12  H3  TAT d   1       1.615  31.611  48.361  0.00  0.00     0.079 H 
BRANCH  10  13
ATOM     13  O5  TAT d   1       2.032  32.651  50.107  0.00  0.00    -0.303 OA
BRANCH  13  14
ATOM     14  PA  TAT d   1       3.544  32.232  50.024  0.00  0.00     0.397 P 
ATOM     15  O2A TAT d   1       3.979  32.060  48.551  0.00  0.00    -0.246 OA
BRANCH  14  16
ATOM     16  S1A TAT d   1       4.625  33.656  50.912  0.00  0.00    -0.058 SA
ATOM     17  H1  TAT d   1       4.328  33.754  51.870  0.00  0.00     0.114 HD
ENDBRANCH  14  16
BRANCH  14  18
ATOM     18  O3A TAT d   1       3.723  30.838  50.860  0.00  0.00    -0.197 OA
BRANCH  18  19
ATOM     19  PB  TAT d   1       4.944  29.772  50.653  0.00  0.00     0.426 P 
ATOM     20  O1B TAT d   1       5.185  29.037  51.970  0.00  0.00    -0.624 OA
ATOM     21  O2B TAT d   1       6.250  30.505  50.261  0.00  0.00    -0.624 OA
BRANCH  19  22
ATOM     22  O3B TAT d   1       4.512  28.691  49.568  0.00  0.00    -0.173 OA
BRANCH  22  23
ATOM     23  PG  TAT d   1       5.452  28.245  48.367  0.00  0.00     0.431 P 
ATOM     24  O1G TAT d   1       6.280  27.061  48.758  0.00  0.00    -0.616 OA
ATOM     25  O2G TAT d   1       4.567  27.884  47.210  0.00  0.00    -0.616 OA
ATOM     26  O3G TAT d   1       6.363  29.360  47.977  0.00  0.00    -0.616 OA
ENDBRANCH  22  23
ENDBRANCH  19  22
ENDBRANCH  18  19
ENDBRANCH  14  18
ENDBRANCH  13  14
ENDBRANCH  10  13
ENDBRANCH   1  10
BRANCH   3  27
ATOM     27  O3  TAT d   1       1.465  33.380  46.263  0.00  0.00    -0.390 OA
ATOM     28  H6  TAT d   1       0.600  33.314  45.877  0.00  0.00     0.210 HD
ENDBRANCH   3  27
BRANCH   5  29
ATOM     29  N9  TAT d   1       1.217  36.610  49.492  0.00  0.00    -0.294 N 
ATOM     30  C8  TAT d   1       2.039  36.339  50.538  0.00  0.00     0.071 A 
ATOM     31  N7  TAT d   1       2.776  37.396  50.937  0.00  0.00    -0.236 NA
ATOM     32  H10 TAT d   1       2.098  35.360  51.011  0.00  0.00     0.144 H 
ATOM     33  C5  TAT d   1       2.392  38.369  50.098  0.00  0.00     0.149 A 
ATOM     34  C6  TAT d   1       2.770  39.724  49.978  0.00  0.00     0.155 A 
ATOM     35  C4  TAT d   1       1.423  37.912  49.172  0.00  0.00     0.167 A 
ATOM     36  N6  TAT d   1       3.656  40.290  50.779  0.00  0.00    -0.382 N 
ATOM     37  N1  TAT d   1       2.163  40.496  48.959  0.00  0.00    -0.222 NA
ATOM     38  H11 TAT d   1       3.902  41.282  50.655  0.00  0.00     0.157 HD
ATOM     39  H12 TAT d   1       4.100  39.739  51.527  0.00  0.00     0.157 HD
ATOM     40  C2  TAT d   1       1.222  39.879  48.122  0.00  0.00     0.091 A 
ATOM     41  N3  TAT d   1       0.810  38.617  48.174  0.00  0.00    -0.222 NA
ATOM     42  H13 TAT d   1       0.783  40.499  47.349  0.00  0.00     0.146 H 
ENDBRANCH   5  29
BRANCH   4  43
ATOM     43  O2  TAT d   1      -0.389  35.377  46.450  0.00  0.00    -0.388 OA
ATOM     44  H8  TAT d   1      -0.789  36.237  46.398  0.00  0.00     0.210 HD
ENDBRANCH   4  43
TORSDOF 11
