REMARK  1 active torsions:
REMARK  status: ('A' for Active; 'I' for Inactive)
REMARK    1  A    between atoms: N01_1  and  C02_2 
ROOT
ATOM      1  C02 CIG d   1      27.787   6.277  64.762  0.00  0.00     0.140 A 
ATOM      2  C03 CIG d   1      28.510   5.382  65.635  0.00  0.00     0.045 A 
ATOM      3  N04 CIG d   1      28.101   4.089  65.555  0.00  0.00    -0.266 NA
ATOM      4  C05 CIG d   1      27.128   3.579  64.773  0.00  0.00     0.041 A 
ATOM      5  C06 CIG d   1      26.468   4.493  63.960  0.00  0.00     0.145 A 
ATOM      6 CL07 CIG d   1      25.235   3.899  62.943  0.00  0.00    -0.061 Cl
ATOM      7  N08 CIG d   1      26.798   5.809  63.953  0.00  0.00    -0.217 NA
ATOM      8  H3  CIG d   1      29.306   5.712  66.293  0.00  0.00     0.120 H 
ATOM      9  H4  CIG d   1      26.877   2.525  64.778  0.00  0.00     0.119 H 
ENDROOT
BRANCH   1  10
ATOM     10  N01 CIG d   1      28.090   7.628  64.721  0.00  0.00    -0.383 N 
ATOM     11  H1  CIG d   1      28.834   8.007  65.323  0.00  0.00     0.157 HD
ATOM     12  H2  CIG d   1      27.571   8.253  64.088  0.00  0.00     0.157 HD
ENDBRANCH   1  10
TORSDOF 1
