REMARK  11 active torsions:
REMARK  status: ('A' for Active; 'I' for Inactive)
REMARK    1  A    between atoms: O1_7  and  C1_1 
REMARK    2  A    between atoms: C2_2  and  O2_8 
REMARK    3  A    between atoms: C3_3  and  O3_9 
REMARK    4  A    between atoms: C4_4  and  O4_10 
REMARK    5  A    between atoms: C5_5  and  C6_6 
REMARK    6  A    between atoms: C6_6  and  O6_12 
REMARK    7  A    between atoms: C4'_16  and  O1_7 
REMARK    8  A    between atoms: C2'_14  and  O2'_20 
REMARK    9  A    between atoms: C3'_15  and  O3'_21 
REMARK   10  A    between atoms: C5'_17  and  C6'_18 
REMARK   11  A    between atoms: C6'_18  and  O6'_23 
ROOT
ATOM      1  C1  NON d   1       0.923  28.692  21.983  0.00  0.00     0.159 C 
ATOM      2  C2  NON d   1       1.717  27.407  21.659  0.00  0.00     0.110 C 
ATOM      3  C3  NON d   1       3.103  27.861  21.193  0.00  0.00     0.092 C 
ATOM      4  C4  NON d   1       2.942  28.664  19.909  0.00  0.00     0.090 C 
ATOM      5  C5  NON d   1       2.087  29.904  20.193  0.00  0.00     0.089 C 
ATOM      6  O5  NON d   1       0.836  29.453  20.754  0.00  0.00    -0.348 OA
ATOM      7  H1  NON d   1      -0.096  28.411  22.288  0.00  0.00     0.133 H 
ATOM      8  H2  NON d   1       1.213  26.808  20.886  0.00  0.00     0.094 H 
ATOM      9  H3  NON d   1       3.584  28.481  21.964  0.00  0.00     0.091 H 
ATOM     10  H4  NON d   1       2.481  28.050  19.121  0.00  0.00     0.091 H 
ATOM     11  H5  NON d   1       2.625  30.534  20.917  0.00  0.00     0.090 H 
ENDROOT
BRANCH   1  12
ATOM     12  O1  NON d   1       1.510  29.412  23.067  0.00  0.00    -0.348 OA
BRANCH  12  13
ATOM     13  C4' NON d   1       0.869  30.574  23.557  0.00  0.00     0.096 C 
ATOM     14  C3' NON d   1       0.057  30.300  24.820  0.00  0.00     0.093 C 
ATOM     15  C2' NON d   1      -0.638  31.588  25.198  0.00  0.00     0.125 C 
ATOM     16  H13 NON d   1       0.716  29.977  25.640  0.00  0.00     0.091 H 
ATOM     17  C1' NON d   1      -0.216  32.841  24.571  0.00  0.00     0.289 C 
ATOM     18  H12 NON d   1      -1.598  31.483  24.672  0.00  0.00     0.096 H 
ATOM     19  O1' NON d   1      -0.827  34.119  24.372  0.00  0.00    -0.188 OA
ATOM     20  O5' NON d   1       1.198  32.842  24.453  0.00  0.00    -0.336 OA
ATOM     21  C5' NON d   1       1.885  31.667  23.948  0.00  0.00     0.090 C 
ATOM     22  H15 NON d   1       2.505  31.228  24.744  0.00  0.00     0.090 H 
ATOM     23  H14 NON d   1       0.203  30.956  22.770  0.00  0.00     0.091 H 
BRANCH  14  24
ATOM     24  O3' NON d   1      -0.875  29.278  24.527  0.00  0.00    -0.390 OA
ATOM     25  H19 NON d   1      -0.410  28.494  24.259  0.00  0.00     0.210 HD
ENDBRANCH  14  24
BRANCH  15  26
ATOM     26  O2' NON d   1      -1.067  31.400  26.525  0.00  0.00    -0.387 OA
ATOM     27  H18 NON d   1      -1.660  30.659  26.563  0.00  0.00     0.210 HD
ENDBRANCH  15  26
BRANCH  21  28
ATOM     28  C6' NON d   1       2.823  32.280  22.930  0.00  0.00     0.043 C 
ATOM     29  H16 NON d   1       3.505  31.504  22.551  0.00  0.00     0.078 H 
ATOM     30  H17 NON d   1       3.407  33.079  23.409  0.00  0.00     0.078 H 
BRANCH  28  31
ATOM     31  O6' NON d   1       2.048  32.851  21.795  0.00  0.00    -0.398 OA
ATOM     32  H20 NON d   1       1.460  33.522  22.120  0.00  0.00     0.209 HD
ENDBRANCH  28  31
ENDBRANCH  21  28
ENDBRANCH  12  13
ENDBRANCH   1  12
BRANCH   2  33
ATOM     33  O2  NON d   1       1.862  26.661  22.871  0.00  0.00    -0.388 OA
ATOM     34  H8  NON d   1       1.007  26.374  23.169  0.00  0.00     0.210 HD
ENDBRANCH   2  33
BRANCH   3  35
ATOM     35  O3  NON d   1       3.882  26.682  20.953  0.00  0.00    -0.390 OA
ATOM     36  H9  NON d   1       3.973  26.194  21.763  0.00  0.00     0.210 HD
ENDBRANCH   3  35
BRANCH   5  37
ATOM     37  C6  NON d   1       1.720  30.758  18.985  0.00  0.00     0.043 C 
ATOM     38  H6  NON d   1       2.646  31.141  18.531  0.00  0.00     0.078 H 
ATOM     39  H7  NON d   1       1.102  31.602  19.326  0.00  0.00     0.078 H 
BRANCH  37  40
ATOM     40  O6  NON d   1       0.983  30.021  17.980  0.00  0.00    -0.398 OA
ATOM     41  H11 NON d   1       1.510  29.293  17.672  0.00  0.00     0.209 HD
ENDBRANCH  37  40
ENDBRANCH   5  37
BRANCH   4  42
ATOM     42  O4  NON d   1       4.256  29.108  19.514  0.00  0.00    -0.390 OA
ATOM     43  H10 NON d   1       4.186  29.645  18.733  0.00  0.00     0.210 HD
ENDBRANCH   4  42
TORSDOF 11
