REMARK  12 active torsions:
REMARK  status: ('A' for Active; 'I' for Inactive)
REMARK    1  A    between atoms: O1_7  and  C1_1 
REMARK    2  A    between atoms: C2_2  and  O2_8 
REMARK    3  A    between atoms: C3_3  and  O3_9 
REMARK    4  A    between atoms: C4_4  and  O4_10 
REMARK    5  A    between atoms: C5_5  and  C6_6 
REMARK    6  A    between atoms: C6_6  and  O6_12 
REMARK    7  A    between atoms: C4'_16  and  O1_7 
REMARK    8  A    between atoms: C1'_13  and  O1'_19 
REMARK    9  A    between atoms: C2'_14  and  O2'_20 
REMARK   10  A    between atoms: C3'_15  and  O3'_21 
REMARK   11  A    between atoms: C5'_17  and  C6'_18 
REMARK   12  A    between atoms: C6'_18  and  O6'_23 
ROOT
ATOM      1  O1  NON d   1       1.733  29.819  23.065  0.00  0.00    -0.348 OA
ENDROOT
BRANCH   1   2
ATOM      2  C1  NON d   1       1.004  29.076  22.065  0.00  0.00     0.159 C 
ATOM      3  C2  NON d   1       1.794  27.797  21.707  0.00  0.00     0.110 C 
ATOM      4  C3  NON d   1       3.203  28.150  21.221  0.00  0.00     0.092 C 
ATOM      5  H2  NON d   1       1.261  27.252  20.914  0.00  0.00     0.094 H 
ATOM      6  C4  NON d   1       3.008  28.935  19.905  0.00  0.00     0.090 C 
ATOM      7  H3  NON d   1       3.767  28.727  21.968  0.00  0.00     0.091 H 
ATOM      8  C5  NON d   1       2.188  30.224  20.243  0.00  0.00     0.089 C 
ATOM      9  H4  NON d   1       2.504  28.331  19.136  0.00  0.00     0.091 H 
ATOM     10  O5  NON d   1       0.921  29.842  20.839  0.00  0.00    -0.348 OA
ATOM     11  H5  NON d   1       2.767  30.842  20.945  0.00  0.00     0.090 H 
ATOM     12  H1  NON d   1      -0.000  28.826  22.438  0.00  0.00     0.133 H 
BRANCH   3  13
ATOM     13  O2  NON d   1       1.907  26.951  22.895  0.00  0.00    -0.388 OA
ATOM     14  H8  NON d   1       1.038  26.726  23.206  0.00  0.00     0.210 HD
ENDBRANCH   3  13
BRANCH   4  15
ATOM     15  O3  NON d   1       3.870  26.903  20.885  0.00  0.00    -0.390 OA
ATOM     16  H9  NON d   1       4.005  26.395  21.676  0.00  0.00     0.210 HD
ENDBRANCH   4  15
BRANCH   6  17
ATOM     17  O4  NON d   1       4.331  29.324  19.495  0.00  0.00    -0.390 OA
ATOM     18  H10 NON d   1       4.273  29.880  18.727  0.00  0.00     0.210 HD
ENDBRANCH   6  17
BRANCH   8  19
ATOM     19  C6  NON d   1       1.847  31.051  18.993  0.00  0.00     0.043 C 
ATOM     20  H6  NON d   1       2.780  31.382  18.513  0.00  0.00     0.078 H 
ATOM     21  H7  NON d   1       1.257  31.930  19.291  0.00  0.00     0.078 H 
BRANCH  19  22
ATOM     22  O6  NON d   1       1.081  30.261  18.050  0.00  0.00    -0.398 OA
ATOM     23  H11 NON d   1       1.589  29.502  17.788  0.00  0.00     0.209 HD
ENDBRANCH  19  22
ENDBRANCH   8  19
ENDBRANCH   1   2
BRANCH   1  24
ATOM     24  C4' NON d   1       1.051  30.962  23.639  0.00  0.00     0.096 C 
ATOM     25  C3' NON d   1       0.269  30.549  24.909  0.00  0.00     0.092 C 
ATOM     26  C2' NON d   1      -0.419  31.779  25.454  0.00  0.00     0.110 C 
ATOM     27  H14 NON d   1       0.944  30.105  25.655  0.00  0.00     0.091 H 
ATOM     28  C1' NON d   1       0.691  32.776  25.826  0.00  0.00     0.156 C 
ATOM     29  H13 NON d   1      -1.174  32.189  24.767  0.00  0.00     0.094 H 
ATOM     30  O5' NON d   1       1.527  33.038  24.655  0.00  0.00    -0.349 OA
ATOM     31  H12 NON d   1       1.272  32.413  26.687  0.00  0.00     0.133 H 
ATOM     32  C5' NON d   1       2.184  31.873  24.097  0.00  0.00     0.089 C 
ATOM     33  H16 NON d   1       2.812  31.349  24.833  0.00  0.00     0.090 H 
ATOM     34  H15 NON d   1       0.389  31.449  22.908  0.00  0.00     0.091 H 
BRANCH  25  35
ATOM     35  O3' NON d   1      -0.772  29.630  24.542  0.00  0.00    -0.390 OA
ATOM     36  H21 NON d   1      -0.386  28.861  24.139  0.00  0.00     0.210 HD
ENDBRANCH  25  35
BRANCH  26  37
ATOM     37  O2' NON d   1      -0.952  31.404  26.771  0.00  0.00    -0.388 OA
ATOM     38  H20 NON d   1      -1.397  32.150  27.156  0.00  0.00     0.210 HD
ENDBRANCH  26  37
BRANCH  28  39
ATOM     39  O1' NON d   1       0.130  34.041  26.050  0.00  0.00    -0.369 OA
ATOM     40  H19 NON d   1      -0.365  34.307  25.284  0.00  0.00     0.212 HD
ENDBRANCH  28  39
BRANCH  32  41
ATOM     41  C6' NON d   1       3.041  32.459  22.999  0.00  0.00     0.043 C 
ATOM     42  H17 NON d   1       3.641  31.652  22.553  0.00  0.00     0.078 H 
ATOM     43  H18 NON d   1       3.710  33.213  23.439  0.00  0.00     0.078 H 
BRANCH  41  44
ATOM     44  O6' NON d   1       2.256  33.090  21.949  0.00  0.00    -0.398 OA
ATOM     45  H22 NON d   1       1.739  33.794  22.322  0.00  0.00     0.209 HD
ENDBRANCH  41  44
ENDBRANCH  32  41
ENDBRANCH   1  24
TORSDOF 12
