REMARK  23 active torsions:
REMARK  status: ('A' for Active; 'I' for Inactive)
REMARK    1  A    between atoms: P_2  and  O5'_5 
REMARK    2  A    between atoms: O5'_5  and  C5'_6 
REMARK    3  A    between atoms: C5'_6  and  C4'_7 
REMARK    4  A    between atoms: C1'_9  and  N9_14 
REMARK    5  A    between atoms: C2'_10  and  O2'_11 
REMARK    6  A    between atoms: O2'_11  and  P1_24 
REMARK    7  A    between atoms: C3'_12  and  O3'_13 
REMARK    8  A    between atoms: C6_18  and  N6_19 
REMARK    9  A    between atoms: P1_24  and  OF'_27 
REMARK   10  A    between atoms: OF'_27  and  CF'_28 
REMARK   11  A    between atoms: CF'_28  and  CE'_29 
REMARK   12  A    between atoms: CB'_31  and  N19_32 
REMARK   13  A    between atoms: C16_40  and  N16_41 
REMARK   14  A    between atoms: CC'_42  and  OC'_43 
REMARK   15  A    between atoms: OC'_43  and  P2_46 
REMARK   16  A    between atoms: CD'_44  and  OD'_45 
REMARK   17  A    between atoms: P2_46  and  OP'_48 
REMARK   18  A    between atoms: OP'_48  and  CP'_49 
REMARK   19  A    between atoms: CP'_49  and  CO'_50 
REMARK   20  A    between atoms: CL'_52  and  N29_53 
REMARK   21  A    between atoms: C26_61  and  N26_62 
REMARK   22  A    between atoms: CM'_63  and  OM'_64 
REMARK   23  A    between atoms: CN'_65  and  ON'_66 
ROOT
ATOM      1  CE' 25A d   1      17.601  -0.406  17.298  0.00  0.00     0.089 C 
ATOM      2  OE' 25A d   1      18.241  -0.139  16.020  0.00  0.00    -0.353 OA
ATOM      3  CB' 25A d   1      17.309  -0.336  14.979  0.00  0.00     0.140 C 
ATOM      4  CC' 25A d   1      16.003  -0.772  15.621  0.00  0.00     0.117 C 
ATOM      5  CD' 25A d   1      16.411  -1.305  16.968  0.00  0.00     0.092 C 
ATOM      6  H14 25A d   1      17.240   0.531  17.747  0.00  0.00     0.090 H 
ATOM      7  H15 25A d   1      17.137   0.607  14.438  0.00  0.00     0.123 H 
ATOM      8  H20 25A d   1      15.485  -1.534  15.020  0.00  0.00     0.095 H 
ATOM      9  H21 25A d   1      16.703  -2.364  16.913  0.00  0.00     0.091 H 
ENDROOT
BRANCH   1  10
ATOM     10  CF' 25A d   1      18.599  -1.045  18.245  0.00  0.00     0.058 C 
ATOM     11  H12 25A d   1      19.527  -0.456  18.274  0.00  0.00     0.079 H 
ATOM     12  H13 25A d   1      18.174  -1.110  19.258  0.00  0.00     0.079 H 
BRANCH  10  13
ATOM     13  OF' 25A d   1      18.859  -2.349  17.735  0.00  0.00    -0.287 OA
BRANCH  13  14
ATOM     14  P1  25A d   1      19.951  -3.350  18.366  0.00  0.00     0.408 P 
ATOM     15  OBP 25A d   1      19.739  -4.633  17.670  0.00  0.00    -0.624 OA
ATOM     16  OCP 25A d   1      19.926  -3.150  19.835  0.00  0.00    -0.624 OA
BRANCH  14  17
ATOM     17  O2' 25A d   1      21.336  -2.678  17.868  0.00  0.00    -0.277 OA
BRANCH  17  18
ATOM     18  C2' 25A d   1      21.943  -2.784  16.609  0.00  0.00     0.120 C 
ATOM     19  C1' 25A d   1      21.747  -1.480  15.872  0.00  0.00     0.140 C 
ATOM     20  O4' 25A d   1      22.835  -0.671  16.296  0.00  0.00    -0.353 OA
ATOM     21  H4  25A d   1      20.771  -1.036  16.120  0.00  0.00     0.123 H 
ATOM     22  C4' 25A d   1      23.732  -1.426  17.113  0.00  0.00     0.089 C 
ATOM     23  C3' 25A d   1      23.420  -2.885  16.841  0.00  0.00     0.092 C 
ATOM     24  H3  25A d   1      23.506  -1.209  18.168  0.00  0.00     0.090 H 
ATOM     25  H6  25A d   1      23.946  -3.244  15.944  0.00  0.00     0.091 H 
ATOM     26  H5  25A d   1      21.551  -3.641  16.041  0.00  0.00     0.095 H 
BRANCH  19  27
ATOM     27  N9  25A d   1      21.905  -1.597  14.414  0.00  0.00    -0.294 N 
ATOM     28  C8  25A d   1      22.485  -2.599  13.679  0.00  0.00     0.071 A 
ATOM     29  N7  25A d   1      22.448  -2.241  12.377  0.00  0.00    -0.236 NA
ATOM     30  H8  25A d   1      22.903  -3.523  14.076  0.00  0.00     0.144 H 
ATOM     31  C5  25A d   1      21.875  -1.018  12.268  0.00  0.00     0.149 A 
ATOM     32  C6  25A d   1      21.614  -0.181  11.185  0.00  0.00     0.155 A 
ATOM     33  C4  25A d   1      21.539  -0.605  13.551  0.00  0.00     0.167 A 
ATOM     34  N1  25A d   1      20.993   1.027  11.435  0.00  0.00    -0.222 NA
ATOM     35  C2  25A d   1      20.678   1.412  12.718  0.00  0.00     0.091 A 
ATOM     36  N3  25A d   1      20.937   0.580  13.793  0.00  0.00    -0.222 NA
ATOM     37  H11 25A d   1      20.221   2.380  12.889  0.00  0.00     0.146 H 
BRANCH  32  38
ATOM     38  N6  25A d   1      21.908  -0.516   9.931  0.00  0.00    -0.382 N 
ATOM     39  H9  25A d   1      21.697   0.135   9.161  0.00  0.00     0.157 HD
ATOM     40  H10 25A d   1      22.347  -1.426   9.730  0.00  0.00     0.157 HD
ENDBRANCH  32  38
ENDBRANCH  19  27
BRANCH  22  41
ATOM     41  C5' 25A d   1      25.196  -1.090  16.892  0.00  0.00     0.059 C 
ATOM     42  H1  25A d   1      25.315   0.002  16.836  0.00  0.00     0.079 H 
ATOM     43  H2  25A d   1      25.790  -1.481  17.731  0.00  0.00     0.079 H 
BRANCH  41  44
ATOM     44  O5' 25A d   1      25.643  -1.666  15.699  0.00  0.00    -0.280 OA
BRANCH  44  45
ATOM     45  P   25A d   1      27.205  -1.783  15.385  0.00  0.00     0.422 P 
ATOM     46  O1P 25A d   1      27.748  -2.759  16.371  0.00  0.00    -0.617 OA
ATOM     47  O2P 25A d   1      27.911  -0.427  15.572  0.00  0.00    -0.617 OA
ATOM     48  O3P 25A d   1      27.347  -2.347  13.955  0.00  0.00    -0.617 OA
ENDBRANCH  44  45
ENDBRANCH  41  44
ENDBRANCH  22  41
BRANCH  23  49
ATOM     49  O3' 25A d   1      23.730  -3.741  17.925  0.00  0.00    -0.390 OA
ATOM     50  H7  25A d   1      24.672  -3.778  18.039  0.00  0.00     0.210 HD
ENDBRANCH  23  49
ENDBRANCH  17  18
ENDBRANCH  14  17
ENDBRANCH  13  14
ENDBRANCH  10  13
ENDBRANCH   1  10
BRANCH   5  51
ATOM     51  OD' 25A d   1      15.372  -1.141  17.934  0.00  0.00    -0.390 OA
ATOM     52  H22 25A d   1      15.169  -0.217  18.025  0.00  0.00     0.210 HD
ENDBRANCH   5  51
BRANCH   3  53
ATOM     53  N19 25A d   1      17.892  -1.299  14.061  0.00  0.00    -0.294 N 
ATOM     54  C18 25A d   1      18.372  -2.553  14.331  0.00  0.00     0.071 A 
ATOM     55  N17 25A d   1      18.847  -3.169  13.270  0.00  0.00    -0.236 NA
ATOM     56  H16 25A d   1      18.361  -2.996  15.326  0.00  0.00     0.144 H 
ATOM     57  C15 25A d   1      18.657  -2.259  12.242  0.00  0.00     0.149 A 
ATOM     58  C14 25A d   1      18.063  -1.109  12.713  0.00  0.00     0.167 A 
ATOM     59  C16 25A d   1      18.947  -2.300  10.865  0.00  0.00     0.155 A 
ATOM     60  N13 25A d   1      17.743  -0.016  12.013  0.00  0.00    -0.222 NA
ATOM     61  C12 25A d   1      18.061  -0.165  10.721  0.00  0.00     0.091 A 
ATOM     62  N11 25A d   1      18.631  -1.215  10.124  0.00  0.00    -0.222 NA
ATOM     63  H17 25A d   1      17.826   0.674  10.077  0.00  0.00     0.146 H 
BRANCH  59  64
ATOM     64  N16 25A d   1      19.520  -3.353  10.274  0.00  0.00    -0.382 N 
ATOM     65  H18 25A d   1      19.712  -3.334   9.262  0.00  0.00     0.157 HD
ATOM     66  H19 25A d   1      19.770  -4.183  10.830  0.00  0.00     0.157 HD
ENDBRANCH  59  64
ENDBRANCH   3  53
BRANCH   4  67
ATOM     67  OC' 25A d   1      15.186   0.371  15.802  0.00  0.00    -0.303 OA
BRANCH  67  68
ATOM     68  P2  25A d   1      13.844   0.535  14.787  0.00  0.00     0.321 P 
ATOM     69  OMP 25A d   1      14.240   0.104  13.435  0.00  0.00    -0.262 OA
ATOM     70  H23 25A d   1      13.445   1.461  14.800  0.00  0.00     0.160 HD
BRANCH  68  71
ATOM     71  OP' 25A d   1      12.850  -0.607  15.324  0.00  0.00    -0.313 OA
BRANCH  71  72
ATOM     72  CP' 25A d   1      12.425  -0.624  16.681  0.00  0.00     0.055 C 
ATOM     73  H24 25A d   1      12.461   0.401  17.078  0.00  0.00     0.079 H 
ATOM     74  H25 25A d   1      13.107  -1.265  17.259  0.00  0.00     0.079 H 
BRANCH  72  75
ATOM     75  CO' 25A d   1      11.012  -1.156  16.826  0.00  0.00     0.089 C 
ATOM     76  OO' 25A d   1      10.069  -0.255  16.201  0.00  0.00    -0.353 OA
ATOM     77  CL' 25A d   1       8.882  -0.983  15.923  0.00  0.00     0.139 C 
ATOM     78  CM' 25A d   1       9.247  -2.470  15.835  0.00  0.00     0.105 C 
ATOM     79  H27 25A d   1       8.162  -0.853  16.744  0.00  0.00     0.122 H 
ATOM     80  CN' 25A d   1      10.744  -2.494  16.146  0.00  0.00     0.091 C 
ATOM     81  H32 25A d   1       9.065  -2.861  14.823  0.00  0.00     0.093 H 
ATOM     82  H34 25A d   1      11.324  -2.583  15.216  0.00  0.00     0.091 H 
ATOM     83  H26 25A d   1      10.794  -1.248  17.900  0.00  0.00     0.090 H 
BRANCH  77  84
ATOM     84  N29 25A d   1       8.308  -0.414  14.712  0.00  0.00    -0.294 N 
ATOM     85  C28 25A d   1       7.214   0.401  14.665  0.00  0.00     0.071 A 
ATOM     86  N27 25A d   1       6.916   0.793  13.455  0.00  0.00    -0.236 NA
ATOM     87  H28 25A d   1       6.647   0.695  15.547  0.00  0.00     0.144 H 
ATOM     88  C25 25A d   1       7.861   0.200  12.662  0.00  0.00     0.149 A 
ATOM     89  C24 25A d   1       8.738  -0.553  13.414  0.00  0.00     0.167 A 
ATOM     90  C26 25A d   1       8.073   0.236  11.272  0.00  0.00     0.155 A 
ATOM     91  N23 25A d   1       9.782  -1.261  12.952  0.00  0.00    -0.222 NA
ATOM     92  C22 25A d   1       9.890  -1.147  11.631  0.00  0.00     0.091 A 
ATOM     93  N21 25A d   1       9.115  -0.463  10.786  0.00  0.00    -0.222 NA
ATOM     94  H29 25A d   1      10.719  -1.681  11.180  0.00  0.00     0.146 H 
BRANCH  90  95
ATOM     95  N26 25A d   1       7.297   0.934  10.434  0.00  0.00    -0.382 N 
ATOM     96  H30 25A d   1       7.495   0.928   9.423  0.00  0.00     0.157 HD
ATOM     97  H31 25A d   1       6.502   1.477  10.800  0.00  0.00     0.157 HD
ENDBRANCH  90  95
ENDBRANCH  77  84
BRANCH  78  98
ATOM     98  OM' 25A d   1       8.467  -3.198  16.757  0.00  0.00    -0.388 OA
ATOM     99  H33 25A d   1       8.693  -4.119  16.703  0.00  0.00     0.210 HD
ENDBRANCH  78  98
BRANCH  80 100
ATOM    100  ON' 25A d   1      11.099  -3.546  17.015  0.00  0.00    -0.390 OA
ATOM    101  H35 25A d   1      10.631  -3.449  17.836  0.00  0.00     0.210 HD
ENDBRANCH  80 100
ENDBRANCH  72  75
ENDBRANCH  71  72
ENDBRANCH  68  71
ENDBRANCH  67  68
ENDBRANCH   4  67
TORSDOF 23
