REMARK  4 active torsions:
REMARK  status: ('A' for Active; 'I' for Inactive)
REMARK    1  A    between atoms: C3_2  and  O3_3 
REMARK    2  A    between atoms: C4_4  and  O4_5 
REMARK    3  A    between atoms: C5_6  and  O5_12 
REMARK    4  A    between atoms: C1_7  and  C_9 
ROOT
ATOM      1  C2  DHK d   1      26.429  33.204  30.596  0.00  0.00    -0.061 C 
ATOM      2  C3  DHK d   1      26.827  34.488  29.857  0.00  0.00     0.080 C 
ATOM      3  C4  DHK d   1      26.182  35.748  30.353  0.00  0.00     0.088 C 
ATOM      4  C5  DHK d   1      24.749  35.466  30.676  0.00  0.00     0.067 C 
ATOM      5  C1  DHK d   1      25.411  33.258  31.535  0.00  0.00     0.020 C 
ATOM      6  C6  DHK d   1      24.751  34.486  31.836  0.00  0.00    -0.008 C 
ATOM      7  H1  DHK d   1      26.938  32.265  30.386  0.00  0.00     0.082 H 
ATOM      8  H2  DHK d   1      27.919  34.597  29.928  0.00  0.00     0.093 H 
ATOM      9  H4  DHK d   1      26.706  36.139  31.238  0.00  0.00     0.091 H 
ATOM     10  H6  DHK d   1      24.228  35.046  29.803  0.00  0.00     0.087 H 
ATOM     11  H7  DHK d   1      23.708  34.265  32.108  0.00  0.00     0.044 H 
ATOM     12  H8  DHK d   1      25.261  34.956  32.690  0.00  0.00     0.044 H 
ENDROOT
BRANCH   2  13
ATOM     13  O3  DHK d   1      26.423  34.377  28.457  0.00  0.00    -0.389 OA
ATOM     14  H3  DHK d   1      26.667  35.170  27.994  0.00  0.00     0.210 HD
ENDBRANCH   2  13
BRANCH   3  15
ATOM     15  O4  DHK d   1      26.246  36.693  29.246  0.00  0.00    -0.390 OA
ATOM     16  H5  DHK d   1      25.778  36.337  28.500  0.00  0.00     0.210 HD
ENDBRANCH   3  15
BRANCH   5  17
ATOM     17  C   DHK d   1      24.992  32.069  32.209  0.00  0.00     0.205 C 
ATOM     18  O1  DHK d   1      25.867  31.121  32.456  0.00  0.00    -0.644 OA
ATOM     19  O2  DHK d   1      23.735  32.092  32.501  0.00  0.00    -0.644 OA
ENDBRANCH   5  17
BRANCH   4  20
ATOM     20  O5  DHK d   1      24.079  36.719  31.131  0.00  0.00    -0.393 OA
ATOM     21  H9  DHK d   1      24.067  37.347  30.418  0.00  0.00     0.210 HD
ENDBRANCH   4  20
TORSDOF 4
