REMARK  6 active torsions:
REMARK  status: ('A' for Active; 'I' for Inactive)
REMARK    1  A    between atoms: N_1  and  CA_2 
REMARK    2  A    between atoms: CA_2  and  C_3 
REMARK    3  A    between atoms: CA_2  and  CB_5 
REMARK    4  A    between atoms: CB_5  and  CG_6 
REMARK    5  A    between atoms: CG_6  and  SD_7 
REMARK    6  A    between atoms: SD_7  and  CE_8 
ROOT
ATOM      1  CB  MET d   1      51.289  61.416  -1.433  0.00  0.00    -0.021 C 
ATOM      2  H5  MET d   1      52.369  61.508  -1.244  0.00  0.00     0.037 H 
ATOM      3  H6  MET d   1      50.887  62.390  -1.749  0.00  0.00     0.037 H 
ENDROOT
BRANCH   1   4
ATOM      4  CA  MET d   1      50.577  60.960  -0.140  0.00  0.00     0.183 C 
ATOM      5  H4  MET d   1      50.697  59.876   0.003  0.00  0.00     0.101 H 
BRANCH   4   6
ATOM      6  N   MET d   1      49.132  61.343  -0.275  0.00  0.00    -0.065 N 
ATOM      7  H1  MET d   1      48.731  60.867  -1.067  0.00  0.00     0.275 HD
ATOM      8  H2  MET d   1      49.060  62.339  -0.410  0.00  0.00     0.275 HD
ATOM      9  H3  MET d   1      48.635  61.080   0.562  0.00  0.00     0.275 HD
ENDBRANCH   4   6
BRANCH   4  10
ATOM     10  C   MET d   1      51.084  61.716   1.061  0.00  0.00     0.204 C 
ATOM     11  O   MET d   1      52.254  61.968   1.120  0.00  0.00    -0.646 OA
ATOM     12  OXT MET d   1      50.362  62.076   1.965  0.00  0.00    -0.646 OA
ENDBRANCH   4  10
ENDBRANCH   1   4
BRANCH   1  13
ATOM     13  CG  MET d   1      51.051  60.385  -2.536  0.00  0.00    -0.021 C 
ATOM     14  H7  MET d   1      49.970  60.343  -2.736  0.00  0.00     0.049 H 
ATOM     15  H8  MET d   1      51.394  59.407  -2.168  0.00  0.00     0.049 H 
BRANCH  13  16
ATOM     16  SD  MET d   1      51.885  60.720  -4.075  0.00  0.00    -0.173 SA
BRANCH  16  17
ATOM     17  CE  MET d   1      53.354  59.799  -3.857  0.00  0.00    -0.035 C 
ATOM     18  H9  MET d   1      53.991  59.908  -4.747  0.00  0.00     0.041 H 
ATOM     19  H10 MET d   1      53.103  58.738  -3.713  0.00  0.00     0.041 H 
ATOM     20  H11 MET d   1      53.893  60.172  -2.973  0.00  0.00     0.041 H 
ENDBRANCH  16  17
ENDBRANCH  13  16
ENDBRANCH   1  13
TORSDOF 6
