REMARK  2 active torsions:
REMARK  status: ('A' for Active; 'I' for Inactive)
REMARK    1  A    between atoms: C5_5  and  C11_11 
REMARK    2  A    between atoms: C9_9  and  C14_14 
REMARK       I    between atoms: C11_11  and  N12_12 
ROOT
ATOM      1  C1  CNQ d   1      12.069  -4.789  46.738  0.00  0.00    -0.080 A 
ATOM      2  C2  CNQ d   1      10.848  -4.100  46.943  0.00  0.00    -0.053 A 
ATOM      3  C3  CNQ d   1      10.302  -3.288  45.917  0.00  0.00     0.086 A 
ATOM      4  C4  CNQ d   1      10.996  -3.153  44.631  0.00  0.00     0.102 A 
ATOM      5  C5  CNQ d   1      12.244  -3.860  44.423  0.00  0.00     0.062 A 
ATOM      6  C6  CNQ d   1      12.762  -4.673  45.493  0.00  0.00    -0.065 A 
ATOM      7  N7  CNQ d   1       9.107  -2.610  46.112  0.00  0.00    -0.256 NA
ATOM      8  C8  CNQ d   1       8.556  -1.821  45.144  0.00  0.00     0.031 A 
ATOM      9  C9  CNQ d   1       9.196  -1.667  43.887  0.00  0.00     0.085 A 
ATOM     10  N10 CNQ d   1      10.400  -2.336  43.660  0.00  0.00    -0.243 NA
ATOM     11  H1  CNQ d   1      12.479  -5.407  47.529  0.00  0.00     0.083 H 
ATOM     12  H2  CNQ d   1      10.328  -4.194  47.890  0.00  0.00     0.087 H 
ATOM     13  H3  CNQ d   1      13.695  -5.207  45.352  0.00  0.00     0.085 H 
ATOM     14  H4  CNQ d   1       7.621  -1.308  45.337  0.00  0.00     0.118 H 
ENDROOT
BRANCH   9  15
ATOM     15  C14 CNQ d   1       8.676  -0.830  42.757  0.00  0.00    -0.006 A 
ATOM     16  C15 CNQ d   1       7.289  -0.857  42.470  0.00  0.00    -0.069 A 
ATOM     17  C16 CNQ d   1       6.744  -0.086  41.413  0.00  0.00    -0.061 A 
ATOM     18  H7  CNQ d   1       6.633  -1.478  43.069  0.00  0.00     0.085 H 
ATOM     19  C17 CNQ d   1       7.613   0.718  40.638  0.00  0.00     0.034 A 
ATOM     20  H8  CNQ d   1       5.681  -0.112  41.202  0.00  0.00     0.086 H 
ATOM     21  C18 CNQ d   1       8.999   0.762  40.904  0.00  0.00    -0.061 A 
ATOM     22 CL24 CNQ d   1       6.977   1.650  39.356  0.00  0.00    -0.084 Cl
ATOM     23  C19 CNQ d   1       9.522  -0.019  41.969  0.00  0.00    -0.069 A 
ATOM     24  H9  CNQ d   1       9.655   1.383  40.304  0.00  0.00     0.086 H 
ATOM     25  H10 CNQ d   1      10.585   0.008  42.180  0.00  0.00     0.085 H 
ENDBRANCH   9  15
BRANCH   5  26
ATOM     26  C11 CNQ d   1      13.009  -3.784  43.151  0.00  0.00     0.251 C 
ATOM     27  N12 CNQ d   1      12.991  -2.578  42.552  0.00  0.00    -0.366 N 
ATOM     28  H5  CNQ d   1      13.481  -2.440  41.691  0.00  0.00     0.159 HD
ATOM     29  H6  CNQ d   1      12.488  -1.821  42.968  0.00  0.00     0.159 HD
ATOM     30  O13 CNQ d   1      13.616  -4.694  42.606  0.00  0.00    -0.268 OA
ENDBRANCH   5  26
TORSDOF 2
