REMARK  19 active torsions:
REMARK  status: ('A' for Active; 'I' for Inactive)
REMARK       I    between atoms: C15_1  and  N17_3 
REMARK    1  A    between atoms: C5_23  and  C15_1 
REMARK    2  A    between atoms: N17_3  and  C18_4 
REMARK    3  A    between atoms: C18_4  and  C19_5 
REMARK    4  A    between atoms: C18_4  and  C28_7 
REMARK    5  A    between atoms: C19_5  and  C20_6 
REMARK    6  A    between atoms: C20_6  and  S2_19 
REMARK       I    between atoms: C28_7  and  N31_9 
REMARK    7  A    between atoms: N31_9  and  C32_10 
REMARK    8  A    between atoms: C32_10  and  C25_16 
REMARK    9  A    between atoms: C22_13  and  C26_17 
REMARK   10  A    between atoms: C26_17  and  N1_18 
REMARK   11  A    between atoms: S2_19  and  C6_31 
REMARK   12  A    between atoms: C1_20  and  O2_21 
REMARK   13  A    between atoms: C1_20  and  C5_23 
REMARK   14  A    between atoms: C1_20  and  C3_24 
REMARK   15  A    between atoms: C5_23  and  N4_22 
REMARK   16  A    between atoms: N4_22  and  S1_25 
REMARK   17  A    between atoms: S1_25  and  C9_28 
REMARK   18  A    between atoms: C9_28  and  C8_29 
REMARK   19  A    between atoms: C8_29  and  C7_32 
ROOT
ATOM      1  C18 PSM d   1      34.601   7.996   8.517  0.00  0.00     0.090 C 
ATOM      2  H2  PSM d   1      34.597   8.860   9.198  0.00  0.00     0.087 H 
ENDROOT
BRANCH   1   3
ATOM      3  N17 PSM d   1      35.685   7.158   8.941  0.00  0.00    -0.346 N 
ATOM      4  C15 PSM d   1      35.721   6.858  10.252  0.00  0.00     0.244 C 
ATOM      5  O1  PSM d   1      34.860   7.178  11.071  0.00  0.00    -0.271 OA
ATOM      6  H1  PSM d   1      36.373   6.817   8.300  0.00  0.00     0.163 HD
BRANCH   4   7
ATOM      7  C5  PSM d   1      36.970   6.048  10.670  0.00  0.00     0.120 C 
ATOM      8  H19 PSM d   1      37.368   5.530   9.785  0.00  0.00     0.092 H 
BRANCH   7   9
ATOM      9  C1  PSM d   1      38.064   6.997  11.243  0.00  0.00     0.060 C 
ATOM     10  H16 PSM d   1      37.593   7.427  12.139  0.00  0.00     0.086 H 
BRANCH   9  11
ATOM     11  O2  PSM d   1      39.172   6.245  11.756  0.00  0.00    -0.393 OA
ATOM     12  H17 PSM d   1      39.826   6.842  12.100  0.00  0.00     0.210 HD
ENDBRANCH   9  11
BRANCH   9  13
ATOM     13  C3  PSM d   1      38.440   8.266  10.407  0.00  0.00    -0.050 C 
ATOM     14  H20 PSM d   1      37.521   8.765  10.064  0.00  0.00     0.031 H 
ATOM     15  H21 PSM d   1      39.041   7.966   9.536  0.00  0.00     0.031 H 
ATOM     16  H22 PSM d   1      39.022   8.959  11.033  0.00  0.00     0.031 H 
ENDBRANCH   9  13
ENDBRANCH   7   9
BRANCH   7  17
ATOM     17  N4  PSM d   1      36.630   5.055  11.695  0.00  0.00    -0.303 N 
ATOM     18  H18 PSM d   1      36.562   5.318  12.657  0.00  0.00     0.173 HD
BRANCH  17  19
ATOM     19  S1  PSM d   1      36.349   3.415  11.204  0.00  0.00     0.227 S 
ATOM     20  O4  PSM d   1      36.225   2.699  12.413  0.00  0.00    -0.206 OA
ATOM     21  O3  PSM d   1      37.444   3.110  10.335  0.00  0.00    -0.206 OA
BRANCH  19  22
ATOM     22  C9  PSM d   1      34.837   3.342  10.328  0.00  0.00     0.046 C 
ATOM     23  H23 PSM d   1      34.813   2.433   9.709  0.00  0.00     0.058 H 
ATOM     24  H24 PSM d   1      34.742   4.227   9.682  0.00  0.00     0.058 H 
BRANCH  22  25
ATOM     25  C8  PSM d   1      33.703   3.312  11.307  0.00  0.00    -0.055 C 
ATOM     26  H25 PSM d   1      33.706   4.239  11.899  0.00  0.00     0.033 H 
ATOM     27  H26 PSM d   1      33.821   2.448  11.977  0.00  0.00     0.033 H 
BRANCH  25  28
ATOM     28  C7  PSM d   1      32.388   3.195  10.560  0.00  0.00    -0.076 C 
ATOM     29  H32 PSM d   1      31.558   3.173  11.281  0.00  0.00     0.027 H 
ATOM     30  H33 PSM d   1      32.384   2.268   9.968  0.00  0.00     0.027 H 
ATOM     31  H34 PSM d   1      32.269   4.059   9.890  0.00  0.00     0.027 H 
ENDBRANCH  25  28
ENDBRANCH  22  25
ENDBRANCH  19  22
ENDBRANCH  17  19
ENDBRANCH   7  17
ENDBRANCH   4   7
ENDBRANCH   1   3
BRANCH   1  32
ATOM     32  C19 PSM d   1      34.821   8.588   7.129  0.00  0.00    -0.030 C 
ATOM     33  H3  PSM d   1      33.976   9.248   6.886  0.00  0.00     0.037 H 
ATOM     34  H4  PSM d   1      34.868   7.769   6.397  0.00  0.00     0.037 H 
BRANCH  32  35
ATOM     35  C20 PSM d   1      36.132   9.405   7.050  0.00  0.00    -0.021 C 
ATOM     36  H5  PSM d   1      36.115   9.991   6.119  0.00  0.00     0.049 H 
ATOM     37  H6  PSM d   1      36.975   8.698   7.023  0.00  0.00     0.049 H 
BRANCH  35  38
ATOM     38  S2  PSM d   1      36.401  10.563   8.449  0.00  0.00    -0.173 SA
BRANCH  38  39
ATOM     39  C6  PSM d   1      34.961  11.656   8.233  0.00  0.00    -0.035 C 
ATOM     40  H29 PSM d   1      34.969  12.431   9.013  0.00  0.00     0.041 H 
ATOM     41  H30 PSM d   1      34.037  11.065   8.313  0.00  0.00     0.041 H 
ATOM     42  H31 PSM d   1      35.007  12.132   7.243  0.00  0.00     0.041 H 
ENDBRANCH  38  39
ENDBRANCH  35  38
ENDBRANCH  32  35
ENDBRANCH   1  32
BRANCH   1  43
ATOM     43  C28 PSM d   1      33.266   7.291   8.743  0.00  0.00     0.240 C 
ATOM     44  O30 PSM d   1      33.153   6.074   8.597  0.00  0.00    -0.271 OA
ATOM     45  N31 PSM d   1      32.298   8.157   9.128  0.00  0.00    -0.355 N 
ATOM     46  H7  PSM d   1      32.480   9.137   9.202  0.00  0.00     0.162 HD
BRANCH  45  47
ATOM     47  C32 PSM d   1      31.004   7.619   9.426  0.00  0.00     0.019 C 
ATOM     48  H8  PSM d   1      30.887   6.679   8.867  0.00  0.00     0.071 H 
ATOM     49  H9  PSM d   1      30.247   8.342   9.089  0.00  0.00     0.071 H 
BRANCH  47  50
ATOM     50  C25 PSM d   1      30.760   7.330  10.888  0.00  0.00    -0.040 A 
ATOM     51  C16 PSM d   1      31.587   6.411  11.578  0.00  0.00    -0.074 A 
ATOM     52  C17 PSM d   1      31.383   6.155  12.935  0.00  0.00    -0.069 A 
ATOM     53  H10 PSM d   1      32.385   5.902  11.049  0.00  0.00     0.084 H 
ATOM     54  C22 PSM d   1      30.381   6.851  13.659  0.00  0.00     0.007 A 
ATOM     55  H11 PSM d   1      31.996   5.418  13.440  0.00  0.00     0.085 H 
ATOM     56  C23 PSM d   1      29.534   7.755  12.960  0.00  0.00    -0.069 A 
ATOM     57  C24 PSM d   1      29.717   7.976  11.579  0.00  0.00    -0.074 A 
ATOM     58  H12 PSM d   1      28.745   8.276  13.491  0.00  0.00     0.085 H 
ATOM     59  H13 PSM d   1      29.052   8.646  11.047  0.00  0.00     0.084 H 
BRANCH  54  60
ATOM     60  C26 PSM d   1      30.237   6.642  15.131  0.00  0.00     0.102 C 
ATOM     61  N2  PSM d   1      29.519   7.451  15.908  0.00  0.00    -0.385 N 
ATOM     62  H27 PSM d   1      29.044   8.269  15.500  0.00  0.00     0.157 HD
ATOM     63  H28 PSM d   1      29.438   7.258  16.917  0.00  0.00     0.157 HD
BRANCH  60  64
ATOM     64  N1  PSM d   1      30.814   5.616  15.729  0.00  0.00    -0.385 N 
ATOM     65  H14 PSM d   1      30.706   5.485  16.745  0.00  0.00     0.157 HD
ATOM     66  H15 PSM d   1      31.372   4.947  15.180  0.00  0.00     0.157 HD
ENDBRANCH  60  64
ENDBRANCH  54  60
ENDBRANCH  47  50
ENDBRANCH  45  47
ENDBRANCH   1  43
TORSDOF 19
