REMARK  7 active torsions:
REMARK  status: ('A' for Active; 'I' for Inactive)
REMARK    1  A    between atoms: C1_1  and  O1_8 
REMARK    2  A    between atoms: C2_2  and  O2_9 
REMARK    3  A    between atoms: C3_3  and  O3_10 
REMARK    4  A    between atoms: C4_4  and  O4_11 
REMARK    5  A    between atoms: C5_5  and  C6_6 
REMARK    6  A    between atoms: C6_6  and  O6_13 
REMARK    7  A    between atoms: O1_8  and  C7_7 
ROOT
ATOM      1  C1  NON d   1      51.382  54.259  66.504  0.00  0.00     0.158 C 
ATOM      2  C2  NON d   1      51.989  55.614  66.033  0.00  0.00     0.110 C 
ATOM      3  C3  NON d   1      51.874  56.680  67.133  0.00  0.00     0.092 C 
ATOM      4  C4  NON d   1      50.398  56.845  67.538  0.00  0.00     0.090 C 
ATOM      5  C5  NON d   1      49.864  55.489  68.034  0.00  0.00     0.089 C 
ATOM      6  O5  NON d   1      49.995  54.500  66.967  0.00  0.00    -0.349 OA
ATOM      7  H1  NON d   1      51.278  53.620  65.615  0.00  0.00     0.133 H 
ATOM      8  H2  NON d   1      53.055  55.451  65.816  0.00  0.00     0.094 H 
ATOM      9  H3  NON d   1      52.447  56.351  68.013  0.00  0.00     0.091 H 
ATOM     10  H4  NON d   1      49.815  57.166  66.662  0.00  0.00     0.091 H 
ATOM     11  H5  NON d   1      50.454  55.170  68.906  0.00  0.00     0.090 H 
ENDROOT
BRANCH   1  12
ATOM     12  O1  NON d   1      52.288  53.605  67.303  0.00  0.00    -0.363 OA
BRANCH  12  13
ATOM     13  C7  NON d   1      52.550  52.325  67.974  0.00  0.00     0.007 C 
ATOM     14  H8  NON d   1      53.506  52.384  68.515  0.00  0.00     0.066 H 
ATOM     15  H9  NON d   1      52.602  51.522  67.224  0.00  0.00     0.066 H 
ATOM     16  H10 NON d   1      51.739  52.111  68.685  0.00  0.00     0.066 H 
ENDBRANCH  12  13
ENDBRANCH   1  12
BRANCH   2  17
ATOM     17  O2  NON d   1      51.360  56.089  64.848  0.00  0.00    -0.388 OA
ATOM     18  H11 NON d   1      51.787  56.888  64.562  0.00  0.00     0.210 HD
ENDBRANCH   2  17
BRANCH   3  19
ATOM     19  O3  NON d   1      52.419  57.907  66.667  0.00  0.00    -0.390 OA
ATOM     20  H12 NON d   1      52.364  58.559  67.356  0.00  0.00     0.210 HD
ENDBRANCH   3  19
BRANCH   5  21
ATOM     21  C6  NON d   1      48.393  55.578  68.433  0.00  0.00     0.043 C 
ATOM     22  H6  NON d   1      48.284  56.358  69.201  0.00  0.00     0.078 H 
ATOM     23  H7  NON d   1      48.083  54.608  68.849  0.00  0.00     0.078 H 
BRANCH  21  24
ATOM     24  O6  NON d   1      47.541  55.896  67.339  0.00  0.00    -0.398 OA
ATOM     25  H14 NON d   1      46.642  55.939  67.642  0.00  0.00     0.209 HD
ENDBRANCH  21  24
ENDBRANCH   5  21
BRANCH   4  26
ATOM     26  O4  NON d   1      50.280  57.823  68.552  0.00  0.00    -0.390 OA
ATOM     27  H13 NON d   1      49.366  57.919  68.793  0.00  0.00     0.210 HD
ENDBRANCH   4  26
TORSDOF 7
