REMARK  20 active torsions:
REMARK  status: ('A' for Active; 'I' for Inactive)
REMARK       I    between atoms: C15_1  and  N17_3 
REMARK    1  A    between atoms: C5_25  and  C15_1 
REMARK    2  A    between atoms: N17_3  and  C18_4 
REMARK    3  A    between atoms: C18_4  and  C19_5 
REMARK    4  A    between atoms: C18_4  and  C28_7 
REMARK    5  A    between atoms: C19_5  and  C20_6 
REMARK    6  A    between atoms: C20_6  and  C2_19 
REMARK       I    between atoms: C28_7  and  N31_9 
REMARK    7  A    between atoms: N31_9  and  C32_10 
REMARK    8  A    between atoms: C32_10  and  C25_16 
REMARK    9  A    between atoms: C22_13  and  C26_17 
REMARK   10  A    between atoms: C26_17  and  N1_18 
REMARK   11  A    between atoms: C2_19  and  N5_20 
REMARK   12  A    between atoms: C1_22  and  C4_23 
REMARK   13  A    between atoms: C1_22  and  C5_25 
REMARK   14  A    between atoms: C1_22  and  C3_26 
REMARK   15  A    between atoms: C4_23  and  C6_31 
REMARK   16  A    between atoms: C5_25  and  N4_24 
REMARK   17  A    between atoms: N4_24  and  S1_27 
REMARK   18  A    between atoms: S1_27  and  C9_30 
REMARK   19  A    between atoms: C9_30  and  C8_32 
REMARK   20  A    between atoms: C12_34  and  C14_39 
ROOT
ATOM      1  C15 3CB d   1      35.635   6.944   9.853  0.00  0.00     0.242 C 
ATOM      2  O1  3CB d   1      34.895   7.356  10.750  0.00  0.00    -0.271 OA
ATOM      3  N17 3CB d   1      35.460   7.215   8.526  0.00  0.00    -0.346 N 
ATOM      4  H1  3CB d   1      36.019   6.805   7.806  0.00  0.00     0.163 HD
ENDROOT
BRANCH   3   5
ATOM      5  C18 3CB d   1      34.377   8.162   8.257  0.00  0.00     0.089 C 
ATOM      6  H2  3CB d   1      34.511   9.024   8.927  0.00  0.00     0.087 H 
BRANCH   5   7
ATOM      7  C19 3CB d   1      34.342   8.707   6.833  0.00  0.00    -0.032 C 
ATOM      8  H3  3CB d   1      33.676   9.582   6.807  0.00  0.00     0.037 H 
ATOM      9  H4  3CB d   1      33.948   7.926   6.166  0.00  0.00     0.037 H 
BRANCH   7  10
ATOM     10  C20 3CB d   1      35.717   9.126   6.334  0.00  0.00    -0.011 C 
ATOM     11  H5  3CB d   1      36.383   8.252   6.371  0.00  0.00     0.044 H 
ATOM     12  H6  3CB d   1      36.106   9.911   6.999  0.00  0.00     0.044 H 
BRANCH  10  13
ATOM     13  C2  3CB d   1      35.702   9.653   4.935  0.00  0.00     0.068 C 
ATOM     14  N3  3CB d   1      35.849  10.969   4.787  0.00  0.00    -0.389 N 
ATOM     15  H18 3CB d   1      35.846  11.385   3.845  0.00  0.00     0.157 HD
ATOM     16  H19 3CB d   1      35.966  11.570   5.615  0.00  0.00     0.157 HD
BRANCH  13  17
ATOM     17  N5  3CB d   1      35.598   8.857   3.874  0.00  0.00    -0.389 N 
ATOM     18  H16 3CB d   1      35.591   9.260   2.926  0.00  0.00     0.157 HD
ATOM     19  H17 3CB d   1      35.524   7.838   4.000  0.00  0.00     0.157 HD
ENDBRANCH  13  17
ENDBRANCH  10  13
ENDBRANCH   7  10
ENDBRANCH   5   7
BRANCH   5  20
ATOM     20  C28 3CB d   1      33.067   7.466   8.622  0.00  0.00     0.240 C 
ATOM     21  O30 3CB d   1      32.915   6.261   8.411  0.00  0.00    -0.271 OA
ATOM     22  N31 3CB d   1      32.153   8.283   9.174  0.00  0.00    -0.355 N 
ATOM     23  H7  3CB d   1      32.409   9.209   9.450  0.00  0.00     0.162 HD
BRANCH  22  24
ATOM     24  C32 3CB d   1      30.785   7.812   9.368  0.00  0.00     0.019 C 
ATOM     25  H8  3CB d   1      30.643   6.884   8.795  0.00  0.00     0.071 H 
ATOM     26  H9  3CB d   1      30.089   8.580   9.000  0.00  0.00     0.071 H 
BRANCH  24  27
ATOM     27  C25 3CB d   1      30.488   7.540  10.815  0.00  0.00    -0.040 A 
ATOM     28  C16 3CB d   1      31.223   6.530  11.454  0.00  0.00    -0.074 A 
ATOM     29  C17 3CB d   1      31.071   6.304  12.819  0.00  0.00    -0.069 A 
ATOM     30  H10 3CB d   1      31.914   5.922  10.881  0.00  0.00     0.084 H 
ATOM     31  C22 3CB d   1      30.168   7.062  13.595  0.00  0.00     0.007 A 
ATOM     32  H11 3CB d   1      31.659   5.529  13.297  0.00  0.00     0.085 H 
ATOM     33  C23 3CB d   1      29.376   8.041  12.944  0.00  0.00    -0.069 A 
ATOM     34  C24 3CB d   1      29.548   8.290  11.561  0.00  0.00    -0.074 A 
ATOM     35  H12 3CB d   1      28.637   8.600  13.506  0.00  0.00     0.085 H 
ATOM     36  H13 3CB d   1      28.958   9.057  11.072  0.00  0.00     0.084 H 
BRANCH  31  37
ATOM     37  C26 3CB d   1      30.088   6.815  15.072  0.00  0.00     0.102 C 
ATOM     38  N2  3CB d   1      29.343   7.594  15.858  0.00  0.00    -0.385 N 
ATOM     39  H37 3CB d   1      28.830   8.391  15.456  0.00  0.00     0.157 HD
ATOM     40  H38 3CB d   1      29.281   7.398  16.867  0.00  0.00     0.157 HD
BRANCH  37  41
ATOM     41  N1  3CB d   1      30.737   5.789  15.648  0.00  0.00    -0.385 N 
ATOM     42  H14 3CB d   1      30.666   5.641  16.665  0.00  0.00     0.157 HD
ATOM     43  H15 3CB d   1      31.305   5.151  15.073  0.00  0.00     0.157 HD
ENDBRANCH  37  41
ENDBRANCH  31  37
ENDBRANCH  24  27
ENDBRANCH  22  24
ENDBRANCH   5  20
ENDBRANCH   3   5
BRANCH   1  44
ATOM     44  C5  3CB d   1      36.859   6.072  10.212  0.00  0.00     0.099 C 
ATOM     45  H24 3CB d   1      37.222   5.547   9.316  0.00  0.00     0.089 H 
BRANCH  44  46
ATOM     46  C1  3CB d   1      37.954   7.046  10.765  0.00  0.00    -0.029 C 
ATOM     47  H20 3CB d   1      37.498   7.538  11.637  0.00  0.00     0.043 H 
BRANCH  46  48
ATOM     48  C4  3CB d   1      39.181   6.304  11.291  0.00  0.00    -0.063 C 
ATOM     49  H21 3CB d   1      38.876   5.644  12.117  0.00  0.00     0.033 H 
ATOM     50  H22 3CB d   1      39.914   7.037  11.659  0.00  0.00     0.033 H 
BRANCH  48  51
ATOM     51  C6  3CB d   1      39.825   5.462  10.191  0.00  0.00    -0.076 C 
ATOM     52  H30 3CB d   1      40.704   4.940  10.596  0.00  0.00     0.027 H 
ATOM     53  H31 3CB d   1      40.136   6.116   9.363  0.00  0.00     0.027 H 
ATOM     54  H32 3CB d   1      39.098   4.724   9.821  0.00  0.00     0.027 H 
ENDBRANCH  48  51
ENDBRANCH  46  48
BRANCH  46  55
ATOM     55  C3  3CB d   1      38.346   8.188   9.796  0.00  0.00    -0.071 C 
ATOM     56  H25 3CB d   1      39.116   8.819  10.265  0.00  0.00     0.028 H 
ATOM     57  H26 3CB d   1      37.459   8.799   9.571  0.00  0.00     0.028 H 
ATOM     58  H27 3CB d   1      38.742   7.758   8.864  0.00  0.00     0.028 H 
ENDBRANCH  46  55
ENDBRANCH  44  46
BRANCH  44  59
ATOM     59  N4  3CB d   1      36.542   5.092  11.267  0.00  0.00    -0.305 N 
ATOM     60  H23 3CB d   1      36.823   5.266  12.211  0.00  0.00     0.173 HD
BRANCH  59  61
ATOM     61  S1  3CB d   1      35.683   3.638  10.875  0.00  0.00     0.231 S 
ATOM     62  O4  3CB d   1      35.840   2.804  12.008  0.00  0.00    -0.206 OA
ATOM     63  O3  3CB d   1      36.238   3.246   9.632  0.00  0.00    -0.206 OA
BRANCH  61  64
ATOM     64  C9  3CB d   1      33.986   4.053  10.624  0.00  0.00     0.070 C 
ATOM     65  H28 3CB d   1      33.927   4.778   9.799  0.00  0.00     0.066 H 
ATOM     66  H29 3CB d   1      33.605   4.516  11.546  0.00  0.00     0.066 H 
BRANCH  64  67
ATOM     67  C8  3CB d   1      33.119   2.900  10.291  0.00  0.00    -0.042 A 
ATOM     68  C7  3CB d   1      33.142   2.365   8.996  0.00  0.00    -0.059 A 
ATOM     69  C12 3CB d   1      32.372   1.236   8.680  0.00  0.00     0.041 A 
ATOM     70  H33 3CB d   1      33.759   2.827   8.233  0.00  0.00     0.086 H 
ATOM     71  C10 3CB d   1      31.596   0.622   9.686  0.00  0.00    -0.066 A 
ATOM     72  C11 3CB d   1      31.563   1.152  10.987  0.00  0.00    -0.081 A 
ATOM     73  H34 3CB d   1      31.020  -0.266   9.453  0.00  0.00     0.085 H 
ATOM     74  C13 3CB d   1      32.315   2.306  11.281  0.00  0.00    -0.076 A 
ATOM     75  H35 3CB d   1      30.965   0.677  11.757  0.00  0.00     0.083 H 
ATOM     76  H36 3CB d   1      32.274   2.738  12.274  0.00  0.00     0.084 H 
BRANCH  69  77
ATOM     77  C14 3CB d   1      32.373   0.707   7.318  0.00  0.00     0.209 C 
ATOM     78  O2  3CB d   1      31.712  -0.302   7.075  0.00  0.00    -0.644 OA
ATOM     79  O5  3CB d   1      33.029   1.297   6.461  0.00  0.00    -0.644 OA
ENDBRANCH  69  77
ENDBRANCH  64  67
ENDBRANCH  61  64
ENDBRANCH  59  61
ENDBRANCH  44  59
ENDBRANCH   1  44
TORSDOF 20
