REMARK  17 active torsions:
REMARK  status: ('A' for Active; 'I' for Inactive)
REMARK       I    between atoms: C15_1  and  N17_3 
REMARK    1  A    between atoms: C5_24  and  C15_1 
REMARK    2  A    between atoms: N17_3  and  C18_4 
REMARK    3  A    between atoms: C18_4  and  C19_5 
REMARK    4  A    between atoms: C18_4  and  C28_7 
REMARK    5  A    between atoms: C19_5  and  C20_6 
REMARK    6  A    between atoms: C20_6  and  C2_19 
REMARK       I    between atoms: C28_7  and  N31_9 
REMARK    7  A    between atoms: N31_9  and  C32_10 
REMARK    8  A    between atoms: C32_10  and  C25_16 
REMARK    9  A    between atoms: C22_13  and  C26_17 
REMARK   10  A    between atoms: C26_17  and  N1_18 
REMARK       I    between atoms: C2_19  and  N3_21 
REMARK   11  A    between atoms: C1_22  and  C5_24 
REMARK   12  A    between atoms: C7_32  and  C1_22 
REMARK   13  A    between atoms: C5_24  and  N4_23 
REMARK   14  A    between atoms: N4_23  and  S1_25 
REMARK   15  A    between atoms: S1_25  and  C9_28 
REMARK   16  A    between atoms: C9_28  and  C8_29 
REMARK   17  A    between atoms: C21_39  and  C13_35 
ROOT
ATOM      1  C15 3BP d   1      35.799   7.016  10.291  0.00  0.00     0.242 C 
ATOM      2  O1  3BP d   1      34.894   7.235  11.094  0.00  0.00    -0.271 OA
ATOM      3  N17 3BP d   1      35.845   7.486   9.022  0.00  0.00    -0.346 N 
ATOM      4  H1  3BP d   1      36.639   7.294   8.444  0.00  0.00     0.163 HD
ENDROOT
BRANCH   1   5
ATOM      5  C5  3BP d   1      37.011   6.153  10.709  0.00  0.00     0.100 C 
ATOM      6  H21 3BP d   1      37.482   5.699   9.825  0.00  0.00     0.088 H 
BRANCH   5   7
ATOM      7  C1  3BP d   1      38.001   7.094  11.386  0.00  0.00    -0.013 C 
ATOM      8  H18 3BP d   1      37.492   7.612  12.212  0.00  0.00     0.043 H 
ATOM      9  H19 3BP d   1      38.351   7.833  10.650  0.00  0.00     0.043 H 
BRANCH   7  10
ATOM     10  C7  3BP d   1      39.180   6.358  11.930  0.00  0.00    -0.056 A 
ATOM     11  C11 3BP d   1      40.255   5.964  11.101  0.00  0.00    -0.076 A 
ATOM     12  C6  3BP d   1      41.350   5.235  11.616  0.00  0.00    -0.072 A 
ATOM     13  H29 3BP d   1      40.239   6.226  10.049  0.00  0.00     0.084 H 
ATOM     14  C13 3BP d   1      41.432   4.855  12.965  0.00  0.00    -0.026 A 
ATOM     15  H32 3BP d   1      42.156   4.959  10.945  0.00  0.00     0.084 H 
ATOM     16  C4  3BP d   1      40.377   5.282  13.796  0.00  0.00    -0.072 A 
ATOM     17  C3  3BP d   1      39.276   6.017  13.296  0.00  0.00    -0.076 A 
ATOM     18  H31 3BP d   1      40.410   5.040  14.852  0.00  0.00     0.084 H 
ATOM     19  H30 3BP d   1      38.490   6.324  13.976  0.00  0.00     0.084 H 
BRANCH  14  20
ATOM     20  C21 3BP d   1      42.551   4.044  13.499  0.00  0.00    -0.026 A 
ATOM     21  C10 3BP d   1      43.886   4.296  13.144  0.00  0.00    -0.072 A 
ATOM     22  C12 3BP d   1      44.969   3.619  13.764  0.00  0.00    -0.082 A 
ATOM     23  H34 3BP d   1      44.096   5.029  12.374  0.00  0.00     0.084 H 
ATOM     24  C29 3BP d   1      44.753   2.647  14.760  0.00  0.00    -0.083 A 
ATOM     25  H33 3BP d   1      45.984   3.855  13.464  0.00  0.00     0.083 H 
ATOM     26  C14 3BP d   1      43.415   2.338  15.070  0.00  0.00    -0.082 A 
ATOM     27  H37 3BP d   1      45.579   2.159  15.265  0.00  0.00     0.083 H 
ATOM     28  C27 3BP d   1      42.341   3.025  14.451  0.00  0.00    -0.072 A 
ATOM     29  H36 3BP d   1      43.202   1.561  15.795  0.00  0.00     0.083 H 
ATOM     30  H35 3BP d   1      41.325   2.758  14.718  0.00  0.00     0.084 H 
ENDBRANCH  14  20
ENDBRANCH   7  10
ENDBRANCH   5   7
BRANCH   5  31
ATOM     31  N4  3BP d   1      36.540   5.099  11.591  0.00  0.00    -0.305 N 
ATOM     32  H20 3BP d   1      36.319   5.291  12.547  0.00  0.00     0.173 HD
BRANCH  31  33
ATOM     33  S1  3BP d   1      36.372   3.513  10.950  0.00  0.00     0.227 S 
ATOM     34  O4  3BP d   1      35.739   3.716   9.687  0.00  0.00    -0.206 OA
ATOM     35  O3  3BP d   1      35.703   2.806  11.987  0.00  0.00    -0.206 OA
BRANCH  33  36
ATOM     36  C9  3BP d   1      37.981   2.852  10.701  0.00  0.00     0.043 C 
ATOM     37  H22 3BP d   1      38.608   3.581  10.167  0.00  0.00     0.058 H 
ATOM     38  H23 3BP d   1      37.919   1.923  10.116  0.00  0.00     0.058 H 
BRANCH  36  39
ATOM     39  C8  3BP d   1      38.580   2.560  12.090  0.00  0.00    -0.062 C 
ATOM     40  H24 3BP d   1      39.591   2.143  11.973  0.00  0.00     0.028 H 
ATOM     41  H25 3BP d   1      37.944   1.835  12.619  0.00  0.00     0.028 H 
ATOM     42  H26 3BP d   1      38.633   3.493  12.670  0.00  0.00     0.028 H 
ENDBRANCH  36  39
ENDBRANCH  33  36
ENDBRANCH  31  33
ENDBRANCH   5  31
ENDBRANCH   1   5
BRANCH   3  43
ATOM     43  C18 3BP d   1      34.743   8.267   8.504  0.00  0.00     0.090 C 
ATOM     44  H2  3BP d   1      34.717   9.235   9.027  0.00  0.00     0.087 H 
BRANCH  43  45
ATOM     45  C19 3BP d   1      34.887   8.525   7.017  0.00  0.00    -0.030 C 
ATOM     46  H3  3BP d   1      34.032   9.134   6.687  0.00  0.00     0.037 H 
ATOM     47  H4  3BP d   1      34.871   7.557   6.495  0.00  0.00     0.037 H 
BRANCH  45  48
ATOM     48  C20 3BP d   1      36.180   9.260   6.634  0.00  0.00     0.011 C 
ATOM     49  H5  3BP d   1      37.055   8.622   6.827  0.00  0.00     0.047 H 
ATOM     50  H6  3BP d   1      36.274  10.194   7.207  0.00  0.00     0.047 H 
BRANCH  48  51
ATOM     51  C2  3BP d   1      36.063   9.559   5.157  0.00  0.00     0.215 C 
ATOM     52  O2  3BP d   1      35.896   8.669   4.329  0.00  0.00    -0.274 OA
ATOM     53  N3  3BP d   1      36.058  10.854   4.882  0.00  0.00    -0.370 N 
ATOM     54  H16 3BP d   1      35.984  11.164   3.934  0.00  0.00     0.159 HD
ATOM     55  H17 3BP d   1      36.128  11.523   5.622  0.00  0.00     0.159 HD
ENDBRANCH  48  51
ENDBRANCH  45  48
ENDBRANCH  43  45
BRANCH  43  56
ATOM     56  C28 3BP d   1      33.426   7.502   8.781  0.00  0.00     0.240 C 
ATOM     57  O30 3BP d   1      33.314   6.289   8.601  0.00  0.00    -0.271 OA
ATOM     58  N31 3BP d   1      32.451   8.297   9.242  0.00  0.00    -0.355 N 
ATOM     59  H7  3BP d   1      32.594   9.274   9.400  0.00  0.00     0.162 HD
BRANCH  58  60
ATOM     60  C32 3BP d   1      31.187   7.660   9.495  0.00  0.00     0.019 C 
ATOM     61  H8  3BP d   1      31.157   6.707   8.947  0.00  0.00     0.071 H 
ATOM     62  H9  3BP d   1      30.383   8.317   9.133  0.00  0.00     0.071 H 
BRANCH  60  63
ATOM     63  C25 3BP d   1      30.962   7.384  10.948  0.00  0.00    -0.040 A 
ATOM     64  C16 3BP d   1      31.791   6.507  11.658  0.00  0.00    -0.074 A 
ATOM     65  C17 3BP d   1      31.536   6.262  13.022  0.00  0.00    -0.069 A 
ATOM     66  H10 3BP d   1      32.623   6.020  11.162  0.00  0.00     0.084 H 
ATOM     67  C22 3BP d   1      30.489   6.941  13.695  0.00  0.00     0.007 A 
ATOM     68  H11 3BP d   1      32.146   5.547  13.562  0.00  0.00     0.085 H 
ATOM     69  C23 3BP d   1      29.656   7.793  12.962  0.00  0.00    -0.069 A 
ATOM     70  C24 3BP d   1      29.892   8.017  11.605  0.00  0.00    -0.074 A 
ATOM     71  H12 3BP d   1      28.822   8.282  13.451  0.00  0.00     0.085 H 
ATOM     72  H13 3BP d   1      29.243   8.686  11.051  0.00  0.00     0.084 H 
BRANCH  67  73
ATOM     73  C26 3BP d   1      30.271   6.768  15.133  0.00  0.00     0.102 C 
ATOM     74  N2  3BP d   1      29.498   7.594  15.822  0.00  0.00    -0.385 N 
ATOM     75  H27 3BP d   1      29.049   8.393  15.351  0.00  0.00     0.157 HD
ATOM     76  H28 3BP d   1      29.346   7.438  16.829  0.00  0.00     0.157 HD
BRANCH  73  77
ATOM     77  N1  3BP d   1      30.822   5.758  15.792  0.00  0.00    -0.385 N 
ATOM     78  H14 3BP d   1      30.658   5.652  16.803  0.00  0.00     0.157 HD
ATOM     79  H15 3BP d   1      31.414   5.079  15.293  0.00  0.00     0.157 HD
ENDBRANCH  73  77
ENDBRANCH  67  73
ENDBRANCH  60  63
ENDBRANCH  58  60
ENDBRANCH  43  56
ENDBRANCH   3  43
TORSDOF 17
