REMARK  4 active torsions:
REMARK  status: ('A' for Active; 'I' for Inactive)
REMARK       I    between atoms: N17_3  and  C20_20 
REMARK    1  A    between atoms: N12_6  and  S11_7 
REMARK    2  A    between atoms: S11_7  and  C8_10 
REMARK    3  A    between atoms: C20_20  and  C21_22 
REMARK    4  A    between atoms: C25_25  and  C28_28 
ROOT
ATOM      1  C18 D91 d   1       4.287   6.331  22.766  0.00  0.00     0.013 C 
ATOM      2  C19 D91 d   1       5.474   6.794  23.629  0.00  0.00     0.020 C 
ATOM      3  N17 D91 d   1       5.049   5.816  21.637  0.00  0.00    -0.342 N 
ATOM      4  C16 D91 d   1       5.610   6.790  20.714  0.00  0.00     0.013 C 
ATOM      5  C15 D91 d   1       6.737   7.403  21.551  0.00  0.00     0.020 C 
ATOM      6  N12 D91 d   1       6.234   7.805  22.865  0.00  0.00    -0.302 N 
ATOM      7  C20 D91 d   1       5.310   4.436  21.609  0.00  0.00     0.291 C 
ATOM      8  O22 D91 d   1       4.886   3.795  22.567  0.00  0.00    -0.264 OA
ATOM      9  H1  D91 d   1       3.629   7.165  22.480  0.00  0.00     0.067 H 
ATOM     10  H2  D91 d   1       3.693   5.548  23.260  0.00  0.00     0.067 H 
ATOM     11  H3  D91 d   1       6.123   5.937  23.860  0.00  0.00     0.067 H 
ATOM     12  H4  D91 d   1       5.103   7.236  24.566  0.00  0.00     0.067 H 
ATOM     13  H5  D91 d   1       4.865   7.548  20.430  0.00  0.00     0.067 H 
ATOM     14  H6  D91 d   1       6.003   6.304  19.809  0.00  0.00     0.067 H 
ATOM     15  H7  D91 d   1       7.137   8.286  21.030  0.00  0.00     0.067 H 
ATOM     16  H8  D91 d   1       7.538   6.660  21.681  0.00  0.00     0.067 H 
ENDROOT
BRANCH   7  17
ATOM     17  C21 D91 d   1       6.109   3.707  20.621  0.00  0.00     0.218 A 
ATOM     18  N23 D91 d   1       7.393   4.088  20.443  0.00  0.00    -0.236 NA
ATOM     19  C24 D91 d   1       8.155   3.392  19.598  0.00  0.00     0.017 A 
ATOM     20  C25 D91 d   1       7.662   2.313  18.890  0.00  0.00     0.009 A 
ATOM     21  H14 D91 d   1       9.191   3.681  19.463  0.00  0.00     0.116 H 
ATOM     22  C26 D91 d   1       6.341   1.955  19.143  0.00  0.00     0.017 A 
ATOM     23  N27 D91 d   1       5.560   2.637  19.998  0.00  0.00    -0.236 NA
ATOM     24  H15 D91 d   1       5.927   1.094  18.631  0.00  0.00     0.116 H 
BRANCH  20  25
ATOM     25  C28 D91 d   1       8.541   1.537  17.981  0.00  0.00    -0.020 A 
ATOM     26  C29 D91 d   1       9.794   1.175  18.458  0.00  0.00    -0.055 A 
ATOM     27  C30 D91 d   1      10.672   0.417  17.674  0.00  0.00     0.003 A 
ATOM     28  H16 D91 d   1      10.097   1.484  19.452  0.00  0.00     0.087 H 
ATOM     29  N31 D91 d   1      10.329  -0.010  16.461  0.00  0.00    -0.273 NA
ATOM     30  H17 D91 d   1      11.653   0.172  18.064  0.00  0.00     0.114 H 
ATOM     31  C32 D91 d   1       9.102   0.321  16.009  0.00  0.00     0.003 A 
ATOM     32  C33 D91 d   1       8.173   1.081  16.732  0.00  0.00    -0.055 A 
ATOM     33  H18 D91 d   1       8.816  -0.024  15.022  0.00  0.00     0.114 H 
ATOM     34  H19 D91 d   1       7.194   1.304  16.322  0.00  0.00     0.087 H 
ENDBRANCH  20  25
ENDBRANCH   7  17
BRANCH   6  35
ATOM     35  S11 D91 d   1       6.809   9.213  23.705  0.00  0.00     0.276 S 
ATOM     36  O13 D91 d   1       7.186  10.227  22.754  0.00  0.00    -0.199 OA
ATOM     37  O14 D91 d   1       5.870   9.461  24.780  0.00  0.00    -0.199 OA
BRANCH  35  38
ATOM     38  C8  D91 d   1       8.244   8.607  24.558  0.00  0.00     0.150 A 
ATOM     39  C9  D91 d   1       9.543   8.963  23.962  0.00  0.00    -0.032 A 
ATOM     40  C4  D91 d   1      10.430   8.359  25.023  0.00  0.00    -0.005 A 
ATOM     41  H9  D91 d   1       9.787   9.495  23.044  0.00  0.00     0.089 H 
ATOM     42  C5  D91 d   1      11.747   8.234  25.205  0.00  0.00    -0.050 A 
ATOM     43  C3  D91 d   1       9.571   7.754  25.998  0.00  0.00     0.043 A 
ATOM     44  C6  D91 d   1      12.204   7.562  26.334  0.00  0.00     0.035 A 
ATOM     45  H10 D91 d   1      12.446   8.648  24.487  0.00  0.00     0.087 H 
ATOM     46 CL   D91 d   1      13.927   7.468  26.423  0.00  0.00    -0.084 Cl
ATOM     47  C1  D91 d   1      11.376   7.011  27.331  0.00  0.00    -0.060 A 
ATOM     48  C2  D91 d   1      10.017   7.134  27.132  0.00  0.00    -0.055 A 
ATOM     49  H13 D91 d   1      11.784   6.518  28.206  0.00  0.00     0.086 H 
ATOM     50  H12 D91 d   1       9.315   6.746  27.861  0.00  0.00     0.087 H 
ATOM     51  N7  D91 d   1       8.310   7.934  25.691  0.00  0.00    -0.345 N 
ATOM     52  H11 D91 d   1       7.505   7.605  26.242  0.00  0.00     0.167 HD
ENDBRANCH  35  38
ENDBRANCH   6  35
TORSDOF 4
