REMARK  7 active torsions:
REMARK  status: ('A' for Active; 'I' for Inactive)
REMARK    1  A    between atoms: NZ_1  and  CA_2 
REMARK    2  A    between atoms: CA_2  and  CB_3 
REMARK    3  A    between atoms: CB_3  and  CG_4 
REMARK    4  A    between atoms: CG_4  and  NE_5 
REMARK    5  A    between atoms: NE_5  and  CD_6 
REMARK    6  A    between atoms: CE2_8  and  NO2_9 
REMARK    7  A    between atoms: CZ_14  and  CM_15 
ROOT
ATOM      1  CD  NP1 d   1      -8.221  10.536 -10.112  0.00  0.00     0.061 A 
ATOM      2  CE1 NP1 d   1      -7.979  11.794  -9.506  0.00  0.00    -0.055 A 
ATOM      3  CE2 NP1 d   1      -9.325   9.751  -9.687  0.00  0.00     0.129 A 
ATOM      4  CR1 NP1 d   1      -8.819  12.252  -8.465  0.00  0.00    -0.075 A 
ATOM      5  CR2 NP1 d   1     -10.163  10.215  -8.648  0.00  0.00    -0.043 A 
ATOM      6  CZ  NP1 d   1      -9.910  11.463  -8.038  0.00  0.00    -0.059 A 
ATOM      7  H11 NP1 d   1      -7.149  12.406  -9.841  0.00  0.00     0.087 H 
ATOM      8  H12 NP1 d   1      -8.626  13.209  -7.994  0.00  0.00     0.084 H 
ATOM      9  H13 NP1 d   1     -11.001   9.612  -8.319  0.00  0.00     0.088 H 
ENDROOT
BRANCH   1  10
ATOM     10  NE  NP1 d   1      -7.437  10.118 -11.107  0.00  0.00    -0.388 N 
ATOM     11  H10 NP1 d   1      -7.730  10.264 -12.084  0.00  0.00     0.159 HD
BRANCH  10  12
ATOM     12  CG  NP1 d   1      -6.136   9.440 -10.817  0.00  0.00    -0.006 C 
ATOM     13  H8  NP1 d   1      -6.300   8.531 -10.220  0.00  0.00     0.064 H 
ATOM     14  H9  NP1 d   1      -5.622   9.177 -11.753  0.00  0.00     0.064 H 
BRANCH  12  15
ATOM     15  CB  NP1 d   1      -5.316  10.463 -10.023  0.00  0.00    -0.028 C 
ATOM     16  H6  NP1 d   1      -5.580  11.479 -10.352  0.00  0.00     0.037 H 
ATOM     17  H7  NP1 d   1      -5.537  10.356  -8.951  0.00  0.00     0.037 H 
BRANCH  15  18
ATOM     18  CA  NP1 d   1      -3.822  10.221 -10.263  0.00  0.00     0.081 C 
ATOM     19  H4  NP1 d   1      -3.221  10.991  -9.757  0.00  0.00     0.075 H 
ATOM     20  H5  NP1 d   1      -3.529   9.227  -9.895  0.00  0.00     0.075 H 
BRANCH  18  21
ATOM     21  NZ  NP1 d   1      -3.638  10.305 -11.745  0.00  0.00    -0.079 N 
ATOM     22  H1  NP1 d   1      -2.668  10.153 -11.972  0.00  0.00     0.274 HD
ATOM     23  H2  NP1 d   1      -3.920  11.217 -12.067  0.00  0.00     0.274 HD
ATOM     24  H3  NP1 d   1      -4.202   9.601 -12.194  0.00  0.00     0.274 HD
ENDBRANCH  18  21
ENDBRANCH  15  18
ENDBRANCH  12  15
ENDBRANCH  10  12
ENDBRANCH   1  10
BRANCH   3  25
ATOM     25  NO2 NP1 d   1      -9.577   8.573 -10.249  0.00  0.00    -0.113 N 
ATOM     26  OC1 NP1 d   1      -8.747   8.084 -11.293  0.00  0.00    -0.532 OA
ATOM     27  OC2 NP1 d   1     -10.683   7.802  -9.797  0.00  0.00    -0.532 OA
ENDBRANCH   3  25
BRANCH   6  28
ATOM     28  CM  NP1 d   1     -10.811  11.954  -6.936  0.00  0.00    -0.051 C 
ATOM     29  H14 NP1 d   1     -10.461  12.936  -6.586  0.00  0.00     0.033 H 
ATOM     30  H15 NP1 d   1     -10.791  11.239  -6.100  0.00  0.00     0.033 H 
ATOM     31  H16 NP1 d   1     -11.839  12.046  -7.316  0.00  0.00     0.033 H 
ENDBRANCH   6  28
TORSDOF 7
