REMARK  6 active torsions:
REMARK  status: ('A' for Active; 'I' for Inactive)
REMARK    1  A    between atoms: NZ_1  and  CA_2 
REMARK    2  A    between atoms: CA_2  and  CB_3 
REMARK    3  A    between atoms: CB_3  and  CG_4 
REMARK    4  A    between atoms: CG_4  and  NE_5 
REMARK    5  A    between atoms: NE_5  and  CD_6 
REMARK    6  A    between atoms: CE2_8  and  NO2_9 
ROOT
ATOM      1  NE  NP2 d   1     -15.361  -2.067   4.757  0.00  0.00    -0.388 N 
ATOM      2  H10 NP2 d   1     -16.073  -2.424   5.410  0.00  0.00     0.159 HD
ENDROOT
BRANCH   1   3
ATOM      3  CG  NP2 d   1     -13.904  -2.252   5.053  0.00  0.00    -0.006 C 
ATOM      4  H8  NP2 d   1     -13.296  -1.695   4.325  0.00  0.00     0.064 H 
ATOM      5  H9  NP2 d   1     -13.676  -1.897   6.069  0.00  0.00     0.064 H 
BRANCH   3   6
ATOM      6  CB  NP2 d   1     -13.616  -3.760   4.941  0.00  0.00    -0.028 C 
ATOM      7  H6  NP2 d   1     -13.596  -4.047   3.879  0.00  0.00     0.037 H 
ATOM      8  H7  NP2 d   1     -12.639  -3.977   5.397  0.00  0.00     0.037 H 
BRANCH   6   9
ATOM      9  CA  NP2 d   1     -14.700  -4.569   5.662  0.00  0.00     0.081 C 
ATOM     10  H4  NP2 d   1     -15.671  -4.451   5.159  0.00  0.00     0.075 H 
ATOM     11  H5  NP2 d   1     -14.431  -5.635   5.694  0.00  0.00     0.075 H 
BRANCH   9  12
ATOM     12  NZ  NP2 d   1     -14.748  -3.998   7.037  0.00  0.00    -0.079 N 
ATOM     13  H1  NP2 d   1     -15.446  -4.484   7.578  0.00  0.00     0.274 HD
ATOM     14  H2  NP2 d   1     -14.983  -3.019   6.986  0.00  0.00     0.274 HD
ATOM     15  H3  NP2 d   1     -13.847  -4.105   7.477  0.00  0.00     0.274 HD
ENDBRANCH   9  12
ENDBRANCH   6   9
ENDBRANCH   3   6
ENDBRANCH   1   3
BRANCH   1  16
ATOM     16  CD  NP2 d   1     -15.728  -1.438   3.644  0.00  0.00     0.061 A 
ATOM     17  CE1 NP2 d   1     -16.262  -2.184   2.570  0.00  0.00    -0.055 A 
ATOM     18  CR1 NP2 d   1     -16.648  -1.537   1.377  0.00  0.00    -0.081 A 
ATOM     19  H11 NP2 d   1     -16.376  -3.258   2.663  0.00  0.00     0.087 H 
ATOM     20  CZ  NP2 d   1     -16.493  -0.136   1.250  0.00  0.00    -0.081 A 
ATOM     21  H12 NP2 d   1     -17.063  -2.113   0.558  0.00  0.00     0.083 H 
ATOM     22  CR2 NP2 d   1     -15.959   0.616   2.320  0.00  0.00    -0.049 A 
ATOM     23  H14 NP2 d   1     -16.784   0.360   0.331  0.00  0.00     0.083 H 
ATOM     24  CE2 NP2 d   1     -15.574  -0.030   3.520  0.00  0.00     0.129 A 
ATOM     25  H13 NP2 d   1     -15.844   1.689   2.222  0.00  0.00     0.087 H 
BRANCH  24  26
ATOM     26  NO2 NP2 d   1     -15.071   0.694   4.521  0.00  0.00    -0.113 N 
ATOM     27  OC1 NP2 d   1     -14.683   0.073   5.737  0.00  0.00    -0.532 OA
ATOM     28  OC2 NP2 d   1     -14.929   2.100   4.371  0.00  0.00    -0.532 OA
ENDBRANCH  24  26
ENDBRANCH   1  16
TORSDOF 6
