REMARK  16 active torsions:
REMARK  status: ('A' for Active; 'I' for Inactive)
REMARK       I    between atoms: C14_1  and  N5_3 
REMARK    1  A    between atoms: C5_24  and  C14_1 
REMARK    2  A    between atoms: N5_3  and  C15_4 
REMARK    3  A    between atoms: C15_4  and  C18_5 
REMARK    4  A    between atoms: C15_4  and  C20_7 
REMARK    5  A    between atoms: C18_5  and  C19_6 
REMARK    6  A    between atoms: C19_6  and  C2_19 
REMARK       I    between atoms: C20_7  and  N6_9 
REMARK    7  A    between atoms: N6_9  and  C21_10 
REMARK    8  A    between atoms: C21_10  and  C25_16 
REMARK    9  A    between atoms: C22_13  and  C26_17 
REMARK   10  A    between atoms: C26_17  and  N1_18 
REMARK       I    between atoms: C2_19  and  N3_21 
REMARK   11  A    between atoms: C1_22  and  C5_24 
REMARK   12  A    between atoms: C12_39  and  C1_22 
REMARK   13  A    between atoms: C5_24  and  N4_23 
REMARK   14  A    between atoms: N4_23  and  S1_25 
REMARK   15  A    between atoms: S1_25  and  C9_28 
REMARK   16  A    between atoms: C9_28  and  C8_29 
ROOT
ATOM      1  C15 P5B d   1      34.675   8.358   8.386  0.00  0.00     0.090 C 
ATOM      2  H2  P5B d   1      34.673   9.308   8.940  0.00  0.00     0.087 H 
ENDROOT
BRANCH   1   3
ATOM      3  N5  P5B d   1      35.795   7.551   8.835  0.00  0.00    -0.346 N 
ATOM      4  C14 P5B d   1      35.773   7.068  10.113  0.00  0.00     0.242 C 
ATOM      5  O1  P5B d   1      34.852   7.277  10.882  0.00  0.00    -0.271 OA
ATOM      6  H1  P5B d   1      36.562   7.354   8.225  0.00  0.00     0.163 HD
BRANCH   4   7
ATOM      7  C5  P5B d   1      36.992   6.218  10.574  0.00  0.00     0.100 C 
ATOM      8  H21 P5B d   1      37.479   5.764   9.698  0.00  0.00     0.088 H 
BRANCH   7   9
ATOM      9  C1  P5B d   1      37.974   7.125  11.296  0.00  0.00    -0.011 C 
ATOM     10  H18 P5B d   1      37.560   7.392  12.280  0.00  0.00     0.044 H 
ATOM     11  H19 P5B d   1      38.123   8.038  10.701  0.00  0.00     0.044 H 
BRANCH   9  12
ATOM     12  C12 P5B d   1      39.288   6.451  11.489  0.00  0.00    -0.028 A 
ATOM     13  C4  P5B d   1      39.823   5.890  12.693  0.00  0.00    -0.002 A 
ATOM     14  C3  P5B d   1      41.122   5.368  12.340  0.00  0.00     0.042 A 
ATOM     15  C11 P5B d   1      39.382   5.778  14.021  0.00  0.00    -0.070 A 
ATOM     16  C7  P5B d   1      41.885   4.729  13.312  0.00  0.00    -0.056 A 
ATOM     17  N7  P5B d   1      41.338   5.643  11.004  0.00  0.00    -0.365 N 
ATOM     18  C10 P5B d   1      41.432   4.588  14.669  0.00  0.00    -0.081 A 
ATOM     19  H30 P5B d   1      42.852   4.324  13.037  0.00  0.00     0.086 H 
ATOM     20  C6  P5B d   1      40.164   5.127  15.038  0.00  0.00    -0.082 A 
ATOM     21  H29 P5B d   1      42.046   4.079  15.403  0.00  0.00     0.083 H 
ATOM     22  H32 P5B d   1      39.800   5.048  16.056  0.00  0.00     0.083 H 
ATOM     23  C13 P5B d   1      40.261   6.273  10.492  0.00  0.00    -0.015 A 
ATOM     24  H33 P5B d   1      42.191   5.404  10.479  0.00  0.00     0.165 HD
ATOM     25  H34 P5B d   1      40.160   6.596   9.457  0.00  0.00     0.112 H 
ATOM     26  H31 P5B d   1      38.419   6.197  14.290  0.00  0.00     0.084 H 
ENDBRANCH   9  12
ENDBRANCH   7   9
BRANCH   7  27
ATOM     27  N4  P5B d   1      36.552   5.174  11.479  0.00  0.00    -0.305 N 
ATOM     28  H20 P5B d   1      36.349   5.373  12.438  0.00  0.00     0.173 HD
BRANCH  27  29
ATOM     29  S1  P5B d   1      36.391   3.586  10.849  0.00  0.00     0.227 S 
ATOM     30  O4  P5B d   1      35.754   3.792   9.596  0.00  0.00    -0.206 OA
ATOM     31  O3  P5B d   1      35.724   2.865  11.877  0.00  0.00    -0.206 OA
BRANCH  29  32
ATOM     32  C9  P5B d   1      37.975   2.960  10.598  0.00  0.00     0.043 C 
ATOM     33  H22 P5B d   1      38.626   3.707  10.120  0.00  0.00     0.058 H 
ATOM     34  H23 P5B d   1      37.949   2.049   9.982  0.00  0.00     0.058 H 
BRANCH  32  35
ATOM     35  C8  P5B d   1      38.444   2.650  12.024  0.00  0.00    -0.062 C 
ATOM     36  H24 P5B d   1      39.463   2.236  11.993  0.00  0.00     0.028 H 
ATOM     37  H25 P5B d   1      37.764   1.917  12.482  0.00  0.00     0.028 H 
ATOM     38  H26 P5B d   1      38.441   3.575  12.620  0.00  0.00     0.028 H 
ENDBRANCH  32  35
ENDBRANCH  29  32
ENDBRANCH  27  29
ENDBRANCH   7  27
ENDBRANCH   4   7
ENDBRANCH   1   3
BRANCH   1  39
ATOM     39  C18 P5B d   1      34.797   8.672   6.900  0.00  0.00    -0.030 C 
ATOM     40  H3  P5B d   1      33.922   9.269   6.602  0.00  0.00     0.037 H 
ATOM     41  H4  P5B d   1      34.797   7.721   6.347  0.00  0.00     0.037 H 
BRANCH  39  42
ATOM     42  C19 P5B d   1      36.062   9.451   6.514  0.00  0.00     0.011 C 
ATOM     43  H5  P5B d   1      36.951   8.816   6.642  0.00  0.00     0.047 H 
ATOM     44  H6  P5B d   1      36.160  10.349   7.141  0.00  0.00     0.047 H 
BRANCH  42  45
ATOM     45  C2  P5B d   1      35.909   9.844   5.066  0.00  0.00     0.215 C 
ATOM     46  O2  P5B d   1      35.641   9.030   4.212  0.00  0.00    -0.274 OA
ATOM     47  N3  P5B d   1      35.996  11.139   4.828  0.00  0.00    -0.370 N 
ATOM     48  H16 P5B d   1      35.906  11.483   3.893  0.00  0.00     0.159 HD
ATOM     49  H17 P5B d   1      36.153  11.777   5.582  0.00  0.00     0.159 HD
ENDBRANCH  42  45
ENDBRANCH  39  42
ENDBRANCH   1  39
BRANCH   1  50
ATOM     50  C20 P5B d   1      33.373   7.594   8.705  0.00  0.00     0.240 C 
ATOM     51  O5  P5B d   1      33.308   6.373   8.578  0.00  0.00    -0.271 OA
ATOM     52  N6  P5B d   1      32.369   8.384   9.136  0.00  0.00    -0.355 N 
ATOM     53  H7  P5B d   1      32.485   9.371   9.244  0.00  0.00     0.162 HD
BRANCH  52  54
ATOM     54  C21 P5B d   1      31.126   7.734   9.431  0.00  0.00     0.019 C 
ATOM     55  H8  P5B d   1      31.111   6.769   8.904  0.00  0.00     0.071 H 
ATOM     56  H9  P5B d   1      30.310   8.369   9.056  0.00  0.00     0.071 H 
BRANCH  54  57
ATOM     57  C25 P5B d   1      30.883   7.474  10.890  0.00  0.00    -0.040 A 
ATOM     58  C16 P5B d   1      31.755   6.625  11.595  0.00  0.00    -0.074 A 
ATOM     59  C17 P5B d   1      31.520   6.372  12.946  0.00  0.00    -0.069 A 
ATOM     60  H10 P5B d   1      32.602   6.171  11.093  0.00  0.00     0.084 H 
ATOM     61  C22 P5B d   1      30.461   6.991  13.633  0.00  0.00     0.007 A 
ATOM     62  H11 P5B d   1      32.167   5.684  13.478  0.00  0.00     0.085 H 
ATOM     63  C23 P5B d   1      29.588   7.830  12.927  0.00  0.00    -0.069 A 
ATOM     64  C24 P5B d   1      29.795   8.071  11.558  0.00  0.00    -0.074 A 
ATOM     65  H12 P5B d   1      28.752   8.294  13.438  0.00  0.00     0.085 H 
ATOM     66  H13 P5B d   1      29.116   8.718  11.014  0.00  0.00     0.084 H 
BRANCH  61  67
ATOM     67  C26 P5B d   1      30.296   6.754  15.073  0.00  0.00     0.102 C 
ATOM     68  N2  P5B d   1      29.483   7.490  15.825  0.00  0.00    -0.385 N 
ATOM     69  H27 P5B d   1      28.964   8.275  15.406  0.00  0.00     0.157 HD
ATOM     70  H28 P5B d   1      29.372   7.275  16.826  0.00  0.00     0.157 HD
BRANCH  67  71
ATOM     71  N1  P5B d   1      30.944   5.752  15.658  0.00  0.00    -0.385 N 
ATOM     72  H14 P5B d   1      30.829   5.584  16.668  0.00  0.00     0.157 HD
ATOM     73  H15 P5B d   1      31.561   5.143  15.102  0.00  0.00     0.157 HD
ENDBRANCH  67  71
ENDBRANCH  61  67
ENDBRANCH  54  57
ENDBRANCH  52  54
ENDBRANCH   1  50
TORSDOF 16
