REMARK  20 active torsions:
REMARK  status: ('A' for Active; 'I' for Inactive)
REMARK       I    between atoms: C14_1  and  N5_3 
REMARK    1  A    between atoms: C5_24  and  C14_1 
REMARK    2  A    between atoms: N5_3  and  C15_4 
REMARK    3  A    between atoms: C15_4  and  C18_5 
REMARK    4  A    between atoms: C15_4  and  C20_7 
REMARK    5  A    between atoms: C18_5  and  C19_6 
REMARK    6  A    between atoms: C19_6  and  C2_19 
REMARK       I    between atoms: C20_7  and  N6_9 
REMARK    7  A    between atoms: N6_9  and  C21_10 
REMARK    8  A    between atoms: C21_10  and  C25_16 
REMARK    9  A    between atoms: C22_13  and  C26_17 
REMARK   10  A    between atoms: C26_17  and  N1_18 
REMARK       I    between atoms: C2_19  and  N3_21 
REMARK   11  A    between atoms: C1_22  and  C5_24 
REMARK   12  A    between atoms: C28_39  and  C1_22 
REMARK   13  A    between atoms: C5_24  and  N4_23 
REMARK   14  A    between atoms: N4_23  and  S1_25 
REMARK   15  A    between atoms: S1_25  and  C9_28 
REMARK   16  A    between atoms: C9_28  and  C8_29 
REMARK   17  A    between atoms: C6_36  and  O6_40 
REMARK   18  A    between atoms: O6_40  and  C7_41 
REMARK   19  A    between atoms: C7_41  and  C10_42 
REMARK   20  A    between atoms: C10_42  and  C11_43 
ROOT
ATOM      1  C5  5PI d   1      37.017   6.176  10.608  0.00  0.00     0.100 C 
ATOM      2  H21 5PI d   1      37.502   5.705   9.740  0.00  0.00     0.088 H 
ENDROOT
BRANCH   1   3
ATOM      3  C14 5PI d   1      35.774   6.979  10.145  0.00  0.00     0.242 C 
ATOM      4  O1  5PI d   1      34.901   7.202  10.975  0.00  0.00    -0.271 OA
ATOM      5  N5  5PI d   1      35.694   7.398   8.829  0.00  0.00    -0.346 N 
ATOM      6  H1  5PI d   1      36.382   7.105   8.165  0.00  0.00     0.163 HD
BRANCH   5   7
ATOM      7  C15 5PI d   1      34.566   8.296   8.403  0.00  0.00     0.090 C 
ATOM      8  H2  5PI d   1      34.651   9.225   8.986  0.00  0.00     0.087 H 
BRANCH   7   9
ATOM      9  C18 5PI d   1      34.574   8.643   6.945  0.00  0.00    -0.030 C 
ATOM     10  H3  5PI d   1      33.777   9.376   6.750  0.00  0.00     0.037 H 
ATOM     11  H4  5PI d   1      34.384   7.730   6.361  0.00  0.00     0.037 H 
BRANCH   9  12
ATOM     12  C19 5PI d   1      35.895   9.232   6.512  0.00  0.00     0.011 C 
ATOM     13  H5  5PI d   1      36.679   8.469   6.622  0.00  0.00     0.047 H 
ATOM     14  H6  5PI d   1      36.129  10.093   7.155  0.00  0.00     0.047 H 
BRANCH  12  15
ATOM     15  C2  5PI d   1      35.857   9.684   5.094  0.00  0.00     0.215 C 
ATOM     16  O2  5PI d   1      35.856   8.905   4.183  0.00  0.00    -0.274 OA
ATOM     17  N3  5PI d   1      35.852  10.984   4.939  0.00  0.00    -0.370 N 
ATOM     18  H16 5PI d   1      35.827  11.378   4.020  0.00  0.00     0.159 HD
ATOM     19  H17 5PI d   1      35.873  11.583   5.739  0.00  0.00     0.159 HD
ENDBRANCH  12  15
ENDBRANCH   9  12
ENDBRANCH   7   9
BRANCH   7  20
ATOM     20  C20 5PI d   1      33.182   7.668   8.659  0.00  0.00     0.240 C 
ATOM     21  O5  5PI d   1      32.949   6.499   8.418  0.00  0.00    -0.271 OA
ATOM     22  N6  5PI d   1      32.292   8.482   9.154  0.00  0.00    -0.355 N 
ATOM     23  H7  5PI d   1      32.511   9.434   9.365  0.00  0.00     0.162 HD
BRANCH  22  24
ATOM     24  C21 5PI d   1      30.979   7.941   9.381  0.00  0.00     0.019 C 
ATOM     25  H8  5PI d   1      30.850   7.075   8.716  0.00  0.00     0.071 H 
ATOM     26  H9  5PI d   1      30.244   8.716   9.120  0.00  0.00     0.071 H 
BRANCH  24  27
ATOM     27  C25 5PI d   1      30.696   7.490  10.787  0.00  0.00    -0.040 A 
ATOM     28  C16 5PI d   1      31.500   6.526  11.432  0.00  0.00    -0.074 A 
ATOM     29  C17 5PI d   1      31.259   6.210  12.769  0.00  0.00    -0.069 A 
ATOM     30  H10 5PI d   1      32.300   6.034  10.891  0.00  0.00     0.084 H 
ATOM     31  C22 5PI d   1      30.253   6.884  13.499  0.00  0.00     0.007 A 
ATOM     32  H11 5PI d   1      31.849   5.440  13.253  0.00  0.00     0.085 H 
ATOM     33  C23 5PI d   1      29.420   7.784  12.820  0.00  0.00    -0.069 A 
ATOM     34  C24 5PI d   1      29.632   8.075  11.482  0.00  0.00    -0.074 A 
ATOM     35  H12 5PI d   1      28.600   8.258  13.348  0.00  0.00     0.085 H 
ATOM     36  H13 5PI d   1      28.968   8.762  10.970  0.00  0.00     0.084 H 
BRANCH  31  37
ATOM     37  C26 5PI d   1      30.139   6.711  14.968  0.00  0.00     0.102 C 
ATOM     38  N2  5PI d   1      29.348   7.500  15.708  0.00  0.00    -0.385 N 
ATOM     39  H27 5PI d   1      28.747   8.201  15.251  0.00  0.00     0.157 HD
ATOM     40  H28 5PI d   1      29.341   7.405  16.734  0.00  0.00     0.157 HD
BRANCH  37  41
ATOM     41  N1  5PI d   1      30.891   5.826  15.613  0.00  0.00    -0.385 N 
ATOM     42  H14 5PI d   1      30.799   5.719  16.633  0.00  0.00     0.157 HD
ATOM     43  H15 5PI d   1      31.566   5.247  15.093  0.00  0.00     0.157 HD
ENDBRANCH  37  41
ENDBRANCH  31  37
ENDBRANCH  24  27
ENDBRANCH  22  24
ENDBRANCH   7  20
ENDBRANCH   5   7
ENDBRANCH   1   3
BRANCH   1  44
ATOM     44  C1  5PI d   1      38.105   7.027  11.358  0.00  0.00    -0.011 C 
ATOM     45  H18 5PI d   1      37.596   7.593  12.152  0.00  0.00     0.044 H 
ATOM     46  H19 5PI d   1      38.540   7.728  10.630  0.00  0.00     0.044 H 
BRANCH  44  47
ATOM     47  C28 5PI d   1      39.248   6.262  11.999  0.00  0.00    -0.028 A 
ATOM     48  C4  5PI d   1      40.482   5.825  11.402  0.00  0.00     0.001 A 
ATOM     49  C3  5PI d   1      41.231   5.169  12.443  0.00  0.00     0.043 A 
ATOM     50  C27 5PI d   1      41.074   5.980  10.136  0.00  0.00    -0.038 A 
ATOM     51  C12 5PI d   1      42.507   4.664  12.152  0.00  0.00    -0.054 A 
ATOM     52  N7  5PI d   1      40.481   5.252  13.602  0.00  0.00    -0.365 N 
ATOM     53  C13 5PI d   1      43.109   4.800  10.856  0.00  0.00    -0.049 A 
ATOM     54  H30 5PI d   1      43.058   4.153  12.933  0.00  0.00     0.087 H 
ATOM     55  C6  5PI d   1      42.397   5.486   9.822  0.00  0.00     0.069 A 
ATOM     56  H29 5PI d   1      44.093   4.387  10.663  0.00  0.00     0.087 H 
ATOM     57  C29 5PI d   1      39.317   5.894  13.350  0.00  0.00    -0.015 A 
ATOM     58  H32 5PI d   1      40.766   4.881  14.520  0.00  0.00     0.165 HD
ATOM     59  H33 5PI d   1      38.544   6.096  14.091  0.00  0.00     0.112 H 
ATOM     60  H31 5PI d   1      40.515   6.492   9.361  0.00  0.00     0.089 H 
BRANCH  55  61
ATOM     61  O6  5PI d   1      43.058   5.644   8.593  0.00  0.00    -0.351 OA
BRANCH  61  62
ATOM     62  C7  5PI d   1      42.279   5.363   7.442  0.00  0.00     0.026 C 
ATOM     63  H34 5PI d   1      41.431   6.062   7.383  0.00  0.00     0.075 H 
ATOM     64  H35 5PI d   1      41.901   4.331   7.487  0.00  0.00     0.075 H 
BRANCH  62  65
ATOM     65  C10 5PI d   1      43.182   5.534   6.222  0.00  0.00    -0.048 C 
ATOM     66  H36 5PI d   1      44.059   4.880   6.335  0.00  0.00     0.035 H 
ATOM     67  H37 5PI d   1      43.511   6.582   6.168  0.00  0.00     0.035 H 
BRANCH  65  68
ATOM     68  C11 5PI d   1      42.465   5.175   4.923  0.00  0.00    -0.075 C 
ATOM     69  H38 5PI d   1      43.152   5.313   4.075  0.00  0.00     0.027 H 
ATOM     70  H39 5PI d   1      41.589   5.828   4.795  0.00  0.00     0.027 H 
ATOM     71  H40 5PI d   1      42.138   4.126   4.963  0.00  0.00     0.027 H 
ENDBRANCH  65  68
ENDBRANCH  62  65
ENDBRANCH  61  62
ENDBRANCH  55  61
ENDBRANCH  44  47
ENDBRANCH   1  44
BRANCH   1  72
ATOM     72  N4  5PI d   1      36.414   5.167  11.451  0.00  0.00    -0.305 N 
ATOM     73  H20 5PI d   1      35.957   5.414  12.306  0.00  0.00     0.173 HD
BRANCH  72  74
ATOM     74  S1  5PI d   1      36.506   3.567  10.948  0.00  0.00     0.227 S 
ATOM     75  O4  5PI d   1      36.290   3.722   9.553  0.00  0.00    -0.206 OA
ATOM     76  O3  5PI d   1      35.600   2.928  11.839  0.00  0.00    -0.206 OA
BRANCH  74  77
ATOM     77  C9  5PI d   1      38.146   2.961  11.124  0.00  0.00     0.043 C 
ATOM     78  H22 5PI d   1      38.853   3.756  10.846  0.00  0.00     0.058 H 
ATOM     79  H23 5PI d   1      38.282   2.099  10.455  0.00  0.00     0.058 H 
BRANCH  77  80
ATOM     80  C8  5PI d   1      38.422   2.536  12.524  0.00  0.00    -0.062 C 
ATOM     81  H24 5PI d   1      39.454   2.163  12.597  0.00  0.00     0.028 H 
ATOM     82  H25 5PI d   1      37.722   1.736  12.809  0.00  0.00     0.028 H 
ATOM     83  H26 5PI d   1      38.293   3.394  13.200  0.00  0.00     0.028 H 
ENDBRANCH  77  80
ENDBRANCH  74  77
ENDBRANCH  72  74
ENDBRANCH   1  72
TORSDOF 20
