REMARK  10 active torsions:
REMARK  status: ('A' for Active; 'I' for Inactive)
REMARK    1  A    between atoms: CA_3  and  N_2 
REMARK    2  A    between atoms: CA_3  and  C_4 
REMARK    3  A    between atoms: CA_3  and  CB_6 
REMARK    4  A    between atoms: CB_6  and  SG_7 
REMARK    5  A    between atoms: SG_7  and  CD_8 
REMARK    6  A    between atoms: CD_8  and  CE_9 
REMARK    7  A    between atoms: CE_9  and  B_10 
REMARK    8  A    between atoms: B_10  and  O1_11 
REMARK    9  A    between atoms: B_10  and  O2_12 
REMARK   10  A    between atoms: B_10  and  O3_13 
ROOT
ATOM      1  SG  S2C d   1      20.457  13.376  -6.352  0.00  0.00    -0.167 SA
ENDROOT
BRANCH   1   2
ATOM      2  CB  S2C d   1      20.953  12.571  -4.835  0.00  0.00     0.013 C 
ATOM      3  H5  S2C d   1      20.843  13.286  -4.006  0.00  0.00     0.052 H 
ATOM      4  H6  S2C d   1      20.294  11.707  -4.665  0.00  0.00     0.052 H 
BRANCH   2   5
ATOM      5  CA  S2C d   1      22.403  12.081  -4.868  0.00  0.00     0.190 C 
ATOM      6  H4  S2C d   1      22.509  11.299  -5.634  0.00  0.00     0.102 H 
BRANCH   5   7
ATOM      7  N   S2C d   1      22.573  11.507  -3.505  0.00  0.00    -0.065 N 
ATOM      8  H1  S2C d   1      21.866  10.806  -3.345  0.00  0.00     0.275 HD
ATOM      9  H2  S2C d   1      22.482  12.239  -2.818  0.00  0.00     0.275 HD
ATOM     10  H3  S2C d   1      23.486  11.087  -3.429  0.00  0.00     0.275 HD
ENDBRANCH   5   7
BRANCH   5  11
ATOM     11  C   S2C d   1      23.498  13.182  -5.144  0.00  0.00     0.205 C 
ATOM     12  OXT S2C d   1      23.401  13.715  -6.366  0.00  0.00    -0.646 OA
ATOM     13  O   S2C d   1      24.358  13.538  -4.376  0.00  0.00    -0.646 OA
ENDBRANCH   5  11
ENDBRANCH   2   5
ENDBRANCH   1   2
BRANCH   1  14
ATOM     14  CD  S2C d   1      18.777  13.735  -5.861  0.00  0.00    -0.023 C 
ATOM     15  H7  S2C d   1      18.534  13.160  -4.955  0.00  0.00     0.048 H 
ATOM     16  H8  S2C d   1      18.093  13.447  -6.673  0.00  0.00     0.048 H 
BRANCH  14  17
ATOM     17  CE  S2C d   1      18.613  15.222  -5.571  0.00  0.00     0.005 C 
ATOM     18  H9  S2C d   1      18.872  15.781  -6.482  0.00  0.00     0.035 H 
ATOM     19  H10 S2C d   1      19.309  15.494  -4.763  0.00  0.00     0.035 H 
BRANCH  17  20
ATOM     20  B   S2C d   1      17.183  15.636  -5.139  0.00  0.00     0.604 B 
BRANCH  20  21
ATOM     21  O1  S2C d   1      16.769  15.013  -3.914  0.00  0.00    -0.410 OA
ATOM     22  H11 S2C d   1      17.350  15.281  -3.212  0.00  0.00     0.188 HD
ENDBRANCH  20  21
BRANCH  20  23
ATOM     23  O2  S2C d   1      17.109  17.048  -4.930  0.00  0.00    -0.410 OA
ATOM     24  H12 S2C d   1      17.686  17.292  -4.215  0.00  0.00     0.188 HD
ENDBRANCH  20  23
BRANCH  20  25
ATOM     25  O3  S2C d   1      16.195  15.309  -6.157  0.00  0.00    -0.410 OA
ATOM     26  H13 S2C d   1      16.446  15.710  -6.981  0.00  0.00     0.188 HD
ENDBRANCH  20  25
ENDBRANCH  17  20
ENDBRANCH  14  17
ENDBRANCH   1  14
TORSDOF 10
