REMARK  10 active torsions:
REMARK  status: ('A' for Active; 'I' for Inactive)
REMARK    1  A    between atoms: N1_1  and  C1_9 
REMARK    2  A    between atoms: C2_10  and  O2_11 
REMARK    3  A    between atoms: C3_12  and  O3_15 
REMARK    4  A    between atoms: C4_13  and  C5_16 
REMARK    5  A    between atoms: C5_16  and  O5_17 
REMARK    6  A    between atoms: O5_17  and  PA_18 
REMARK    7  A    between atoms: PA_18  and  O3A_21 
REMARK    8  A    between atoms: O3A_21  and  PB_22 
REMARK    9  A    between atoms: PB_22  and  O3B_25 
REMARK   10  A    between atoms: O3B_25  and  PG_26 
ROOT
ATOM      1  C1  CTP d   1     -11.758  32.122  53.849  0.00  0.00     0.141 C 
ATOM      2  C2  CTP d   1     -11.599  33.559  53.416  0.00  0.00     0.105 C 
ATOM      3  C3  CTP d   1     -13.047  34.057  53.513  0.00  0.00     0.091 C 
ATOM      4  C4  CTP d   1     -13.817  32.845  53.020  0.00  0.00     0.089 C 
ATOM      5  O4  CTP d   1     -12.976  31.698  53.273  0.00  0.00    -0.353 OA
ATOM      6  H5  CTP d   1     -11.813  32.072  54.946  0.00  0.00     0.123 H 
ATOM      7  H6  CTP d   1     -11.170  33.653  52.407  0.00  0.00     0.093 H 
ATOM      8  H8  CTP d   1     -13.219  34.928  52.864  0.00  0.00     0.091 H 
ATOM      9  H9  CTP d   1     -14.713  32.758  53.652  0.00  0.00     0.090 H 
ENDROOT
BRANCH   4  10
ATOM     10  C5  CTP d   1     -14.316  32.860  51.596  0.00  0.00     0.058 C 
ATOM     11  H11 CTP d   1     -14.905  33.775  51.433  0.00  0.00     0.079 H 
ATOM     12  H12 CTP d   1     -14.954  31.979  51.431  0.00  0.00     0.079 H 
BRANCH  10  13
ATOM     13  O5  CTP d   1     -13.229  32.831  50.657  0.00  0.00    -0.287 OA
BRANCH  13  14
ATOM     14  PA  CTP d   1     -13.362  33.711  49.320  0.00  0.00     0.417 P 
ATOM     15  O1A CTP d   1     -13.617  35.127  49.576  0.00  0.00    -0.624 OA
ATOM     16  O2A CTP d   1     -14.372  33.221  48.356  0.00  0.00    -0.624 OA
BRANCH  14  17
ATOM     17  O3A CTP d   1     -11.822  33.600  48.743  0.00  0.00    -0.180 OA
BRANCH  17  18
ATOM     18  PB  CTP d   1     -10.582  34.391  49.256  0.00  0.00     0.428 P 
ATOM     19  O1B CTP d   1      -9.509  33.481  49.748  0.00  0.00    -0.624 OA
ATOM     20  O2B CTP d   1     -11.050  35.236  50.408  0.00  0.00    -0.624 OA
BRANCH  18  21
ATOM     21  O3B CTP d   1      -9.946  35.366  48.110  0.00  0.00    -0.173 OA
BRANCH  21  22
ATOM     22  PG  CTP d   1     -10.127  35.202  46.486  0.00  0.00     0.431 P 
ATOM     23  O1G CTP d   1     -10.910  33.979  46.110  0.00  0.00    -0.616 OA
ATOM     24  O2G CTP d   1      -8.724  35.101  45.981  0.00  0.00    -0.616 OA
ATOM     25  O3G CTP d   1     -10.760  36.391  45.871  0.00  0.00    -0.616 OA
ENDBRANCH  21  22
ENDBRANCH  18  21
ENDBRANCH  17  18
ENDBRANCH  14  17
ENDBRANCH  13  14
ENDBRANCH  10  13
ENDBRANCH   4  10
BRANCH   3  26
ATOM     26  O3  CTP d   1     -13.375  34.400  54.870  0.00  0.00    -0.390 OA
ATOM     27  H10 CTP d   1     -13.167  33.668  55.439  0.00  0.00     0.210 HD
ENDBRANCH   3  26
BRANCH   2  28
ATOM     28  O2  CTP d   1     -10.841  34.299  54.380  0.00  0.00    -0.388 OA
ATOM     29  H7  CTP d   1     -10.753  35.199  54.089  0.00  0.00     0.210 HD
ENDBRANCH   2  28
BRANCH   1  30
ATOM     30  N1  CTP d   1     -10.671  31.246  53.390  0.00  0.00    -0.278 N 
ATOM     31  C2  CTP d   1      -9.722  30.776  54.275  0.00  0.00     0.352 A 
ATOM     32  N3  CTP d   1      -8.777  29.964  53.725  0.00  0.00    -0.177 NA
ATOM     33  O2  CTP d   1      -9.686  31.054  55.454  0.00  0.00    -0.244 OA
ATOM     34  C4  CTP d   1      -8.669  29.571  52.400  0.00  0.00     0.128 A 
ATOM     35  C5  CTP d   1      -9.704  30.104  51.587  0.00  0.00    -0.024 A 
ATOM     36  N4  CTP d   1      -7.750  28.833  52.066  0.00  0.00    -0.384 N 
ATOM     37  C6  CTP d   1     -10.622  30.897  52.068  0.00  0.00    -0.009 A 
ATOM     38  H1  CTP d   1      -9.733  29.843  50.530  0.00  0.00     0.091 H 
ATOM     39  H2  CTP d   1     -11.377  31.296  51.392  0.00  0.00     0.112 H 
ATOM     40  H3  CTP d   1      -7.660  28.535  51.084  0.00  0.00     0.157 HD
ATOM     41  H4  CTP d   1      -7.067  28.511  52.767  0.00  0.00     0.157 HD
ENDBRANCH   1  30
TORSDOF 10
