REMARK  9 active torsions:
REMARK  status: ('A' for Active; 'I' for Inactive)
REMARK    1  A    between atoms: C3_3  and  C8_8 
REMARK    2  A    between atoms: C16_16  and  C17_17 
REMARK    3  A    between atoms: C17_17  and  C18_18 
REMARK    4  A    between atoms: C18_18  and  C19_19 
REMARK    5  A    between atoms: C19_19  and  C20_20 
REMARK    6  A    between atoms: C19_19  and  N22_22 
REMARK    7  A    between atoms: C20_20  and  O21_21 
REMARK    8  A    between atoms: C20_20  and  C23_23 
REMARK    9  A    between atoms: C26_26  and  C28_28 
REMARK       I    between atoms: C28_28  and  N30_30 
ROOT
ATOM      1  C17 FRL d   1      48.877  57.451  21.153  0.00  0.00    -0.036 C 
ATOM      2  H8  FRL d   1      48.963  56.355  21.134  0.00  0.00     0.040 H 
ATOM      3  H9  FRL d   1      48.263  57.756  22.014  0.00  0.00     0.040 H 
ENDROOT
BRANCH   1   4
ATOM      4  C16 FRL d   1      48.220  57.914  19.892  0.00  0.00    -0.022 A 
ATOM      5  C11 FRL d   1      48.067  56.989  18.862  0.00  0.00     0.113 A 
ATOM      6  C10 FRL d   1      47.474  57.422  17.619  0.00  0.00     0.094 A 
ATOM      7  O12 FRL d   1      48.389  55.667  18.750  0.00  0.00    -0.288 OA
ATOM      8  N9  FRL d   1      47.486  56.310  16.793  0.00  0.00    -0.221 NA
ATOM      9  C13 FRL d   1      47.050  58.734  17.468  0.00  0.00    -0.052 A 
ATOM     10  C8  FRL d   1      48.024  55.294  17.485  0.00  0.00     0.180 A 
ATOM     11  C14 FRL d   1      47.195  59.689  18.508  0.00  0.00    -0.080 A 
ATOM     12  H5  FRL d   1      46.596  59.038  16.532  0.00  0.00     0.087 H 
ATOM     13  C15 FRL d   1      47.788  59.278  19.739  0.00  0.00    -0.074 A 
ATOM     14  H6  FRL d   1      46.862  60.711  18.370  0.00  0.00     0.083 H 
ATOM     15  H7  FRL d   1      47.912  59.986  20.550  0.00  0.00     0.084 H 
BRANCH  10  16
ATOM     16  C3  FRL d   1      48.151  53.959  16.931  0.00  0.00     0.017 A 
ATOM     17  C2  FRL d   1      47.275  53.577  15.912  0.00  0.00    -0.067 A 
ATOM     18  C1  FRL d   1      47.362  52.319  15.283  0.00  0.00    -0.061 A 
ATOM     19  H2  FRL d   1      46.504  54.270  15.595  0.00  0.00     0.085 H 
ATOM     20  C6  FRL d   1      48.367  51.435  15.679  0.00  0.00     0.034 A 
ATOM     21  H1  FRL d   1      46.660  52.042  14.505  0.00  0.00     0.086 H 
ATOM     22  C5  FRL d   1      49.223  51.778  16.758  0.00  0.00    -0.061 A 
ATOM     23 CL7  FRL d   1      48.590  50.041  14.752  0.00  0.00    -0.084 Cl
ATOM     24  C4  FRL d   1      49.107  53.051  17.386  0.00  0.00    -0.067 A 
ATOM     25  H4  FRL d   1      49.967  51.070  17.105  0.00  0.00     0.086 H 
ATOM     26  H3  FRL d   1      49.758  53.313  18.212  0.00  0.00     0.085 H 
ENDBRANCH  10  16
ENDBRANCH   1   4
BRANCH   1  27
ATOM     27  C18 FRL d   1      50.281  58.067  21.289  0.00  0.00    -0.040 C 
ATOM     28  H10 FRL d   1      50.211  58.861  22.047  0.00  0.00     0.036 H 
ATOM     29  H11 FRL d   1      50.532  58.512  20.315  0.00  0.00     0.036 H 
BRANCH  27  30
ATOM     30  C19 FRL d   1      51.461  57.171  21.688  0.00  0.00     0.042 C 
ATOM     31  H12 FRL d   1      51.623  56.891  20.637  0.00  0.00     0.077 H 
BRANCH  30  32
ATOM     32  C20 FRL d   1      52.804  57.852  21.766  0.00  0.00     0.052 C 
ATOM     33  H13 FRL d   1      52.617  58.936  21.773  0.00  0.00     0.085 H 
BRANCH  32  34
ATOM     34  O21 FRL d   1      53.410  57.548  23.017  0.00  0.00    -0.394 OA
ATOM     35  H14 FRL d   1      52.853  57.858  23.721  0.00  0.00     0.210 HD
ENDBRANCH  32  34
BRANCH  32  36
ATOM     36  C23 FRL d   1      53.654  57.583  20.498  0.00  0.00    -0.051 C 
ATOM     37  H15 FRL d   1      54.623  58.094  20.591  0.00  0.00     0.031 H 
ATOM     38  H16 FRL d   1      53.123  57.963  19.613  0.00  0.00     0.031 H 
ATOM     39  H17 FRL d   1      53.819  56.501  20.390  0.00  0.00     0.031 H 
ENDBRANCH  32  36
ENDBRANCH  30  32
BRANCH  30  40
ATOM     40  N22 FRL d   1      51.353  55.749  22.051  0.00  0.00    -0.342 N 
ATOM     41  C24 FRL d   1      51.406  55.196  23.285  0.00  0.00     0.067 A 
ATOM     42  N25 FRL d   1      51.279  53.835  23.237  0.00  0.00    -0.237 NA
ATOM     43  H18 FRL d   1      51.534  55.765  24.204  0.00  0.00     0.143 H 
ATOM     44  C26 FRL d   1      51.143  53.474  21.928  0.00  0.00     0.141 A 
ATOM     45  C27 FRL d   1      51.180  54.681  21.185  0.00  0.00     0.014 A 
ATOM     46  H19 FRL d   1      51.087  54.757  20.103  0.00  0.00     0.115 H 
BRANCH  44  47
ATOM     47  C28 FRL d   1      51.101  52.190  21.423  0.00  0.00     0.269 C 
ATOM     48  O29 FRL d   1      51.015  52.001  20.216  0.00  0.00    -0.266 OA
ATOM     49  N30 FRL d   1      51.179  51.175  22.241  0.00  0.00    -0.365 N 
ATOM     50  H20 FRL d   1      51.149  50.242  21.884  0.00  0.00     0.159 HD
ATOM     51  H21 FRL d   1      51.268  51.331  23.225  0.00  0.00     0.159 HD
ENDBRANCH  44  47
ENDBRANCH  30  40
ENDBRANCH  27  30
ENDBRANCH   1  27
TORSDOF 9
