REMARK  6 active torsions:
REMARK  status: ('A' for Active; 'I' for Inactive)
REMARK    1  A    between atoms: C8_8  and  C11_11 
REMARK    2  A    between atoms: C9_9  and  C10_10 
REMARK    3  A    between atoms: C27_22  and  N30_25 
REMARK    4  A    between atoms: N29_24  and  C3_26 
REMARK    5  A    between atoms: C3_26  and  C7_27 
REMARK    6  A    between atoms: C7_27  and  C17_28 
ROOT
ATOM      1  C1  F29 d   1       2.045   9.476  41.254  0.00  0.00    -0.081 A 
ATOM      2  C2  F29 d   1       2.266   9.037  42.621  0.00  0.00    -0.056 A 
ATOM      3  N3  F29 d   1       3.581   8.817  43.088  0.00  0.00     0.043 A 
ATOM      4  C4  F29 d   1       4.763   9.015  42.342  0.00  0.00     0.005 A 
ATOM      5  C5  F29 d   1       4.568   9.405  40.941  0.00  0.00    -0.070 A 
ATOM      6  C6  F29 d   1       3.226   9.645  40.413  0.00  0.00    -0.082 A 
ATOM      7  N7  F29 d   1       3.923   8.307  44.418  0.00  0.00    -0.354 N 
ATOM      8  C8  F29 d   1       5.335   8.257  44.464  0.00  0.00     0.056 A 
ATOM      9  C9  F29 d   1       5.908   8.720  43.203  0.00  0.00     0.035 A 
ATOM     10  H1  F29 d   1       1.048   9.669  40.876  0.00  0.00     0.083 H 
ATOM     11  H2  F29 d   1       1.422   8.878  43.283  0.00  0.00     0.086 H 
ATOM     12  H3  F29 d   1       5.428   9.516  40.291  0.00  0.00     0.084 H 
ATOM     13  H4  F29 d   1       3.106   9.953  39.381  0.00  0.00     0.083 H 
ATOM     14  H5  F29 d   1       3.268   8.040  45.167  0.00  0.00     0.166 HD
ENDROOT
BRANCH   9  15
ATOM     15  C10 F29 d   1       7.317   8.915  42.850  0.00  0.00     0.093 A 
ATOM     16  C22 F29 d   1       8.329   7.869  43.001  0.00  0.00    -0.035 A 
ATOM     17  C23 F29 d   1       9.743   8.031  42.679  0.00  0.00     0.063 A 
ATOM     18  H11 F29 d   1       8.005   6.906  43.379  0.00  0.00     0.088 H 
ATOM     19  C24 F29 d   1      10.330   9.246  42.147  0.00  0.00     0.182 A 
ATOM     20  C27 F29 d   1      10.743   6.995  42.632  0.00  0.00     0.155 A 
ATOM     21  N25 F29 d   1       9.408  10.315  42.001  0.00  0.00    -0.129 NA
ATOM     22  N29 F29 d   1      11.646   8.979  41.693  0.00  0.00    -0.248 N 
ATOM     23  N26 F29 d   1       7.858  10.135  42.352  0.00  0.00    -0.147 NA
ATOM     24  N28 F29 d   1      11.893   7.555  42.039  0.00  0.00    -0.152 NA
BRANCH  22  25
ATOM     25  C3  F29 d   1      12.511   9.613  40.763  0.00  0.00     0.019 C 
ATOM     26  H14 F29 d   1      13.533   9.257  40.959  0.00  0.00     0.067 H 
ATOM     27  H15 F29 d   1      12.460  10.697  40.943  0.00  0.00     0.067 H 
BRANCH  25  28
ATOM     28  C7  F29 d   1      12.224   9.383  39.359  0.00  0.00    -0.051 C 
ATOM     29  H16 F29 d   1      13.192   9.123  38.906  0.00  0.00     0.035 H 
ATOM     30  H17 F29 d   1      11.887  10.355  38.971  0.00  0.00     0.035 H 
BRANCH  28  31
ATOM     31  C17 F29 d   1      11.281   8.413  38.826  0.00  0.00    -0.075 C 
ATOM     32  H18 F29 d   1      11.279   8.469  37.727  0.00  0.00     0.027 H 
ATOM     33  H19 F29 d   1      10.273   8.635  39.206  0.00  0.00     0.027 H 
ATOM     34  H20 F29 d   1      11.578   7.402  39.141  0.00  0.00     0.027 H 
ENDBRANCH  28  31
ENDBRANCH  25  28
ENDBRANCH  22  25
BRANCH  20  35
ATOM     35  N30 F29 d   1      10.593   5.630  42.960  0.00  0.00    -0.382 N 
ATOM     36  H12 F29 d   1      11.396   4.990  42.882  0.00  0.00     0.157 HD
ATOM     37  H13 F29 d   1       9.680   5.274  43.278  0.00  0.00     0.157 HD
ENDBRANCH  20  35
ENDBRANCH   9  15
BRANCH   8  38
ATOM     38  C11 F29 d   1       5.907   7.774  45.716  0.00  0.00    -0.009 A 
ATOM     39  C12 F29 d   1       5.173   6.799  46.525  0.00  0.00    -0.071 A 
ATOM     40  C13 F29 d   1       5.682   6.258  47.776  0.00  0.00    -0.082 A 
ATOM     41  H6  F29 d   1       4.203   6.464  46.175  0.00  0.00     0.084 H 
ATOM     42  C14 F29 d   1       6.988   6.652  48.268  0.00  0.00    -0.083 A 
ATOM     43  H7  F29 d   1       5.082   5.556  48.344  0.00  0.00     0.083 H 
ATOM     44  C15 F29 d   1       7.745   7.622  47.500  0.00  0.00    -0.082 A 
ATOM     45  H8  F29 d   1       7.388   6.233  49.184  0.00  0.00     0.083 H 
ATOM     46  C16 F29 d   1       7.201   8.175  46.273  0.00  0.00    -0.071 A 
ATOM     47  H9  F29 d   1       8.724   7.936  47.845  0.00  0.00     0.083 H 
ATOM     48  H10 F29 d   1       7.781   8.922  45.743  0.00  0.00     0.084 H 
ENDBRANCH   8  38
TORSDOF 6
