REMARK  7 active torsions:
REMARK  status: ('A' for Active; 'I' for Inactive)
REMARK    1  A    between atoms: C1_1  and  O1_2 
REMARK    2  A    between atoms: C1_1  and  C2_3 
REMARK    3  A    between atoms: O1_2  and  PA_7 
REMARK    4  A    between atoms: C3_4  and  C4_5 
REMARK    5  A    between atoms: C3_4  and  C5_6 
REMARK    6  A    between atoms: PA_7  and  O3A_10 
REMARK    7  A    between atoms: O3A_10  and  PB_11 
ROOT
ATOM      1  C1  IPE d   1      20.688  17.321  23.316  0.00  0.00     0.047 C 
ATOM      2  H1  IPE d   1      20.851  16.278  23.006  0.00  0.00     0.081 H 
ATOM      3  H2  IPE d   1      20.460  17.352  24.392  0.00  0.00     0.081 H 
ENDROOT
BRANCH   1   4
ATOM      4  O1  IPE d   1      19.531  17.808  22.613  0.00  0.00    -0.286 OA
BRANCH   4   5
ATOM      5  PA  IPE d   1      19.588  18.525  21.133  0.00  0.00     0.418 P 
ATOM      6  O1A IPE d   1      20.196  19.918  21.331  0.00  0.00    -0.624 OA
ATOM      7  O2A IPE d   1      20.330  17.455  20.255  0.00  0.00    -0.624 OA
BRANCH   5   8
ATOM      8  O3A IPE d   1      18.298  18.979  20.415  0.00  0.00    -0.173 OA
BRANCH   8   9
ATOM      9  PB  IPE d   1      17.507  18.142  19.358  0.00  0.00     0.431 P 
ATOM     10  O1B IPE d   1      16.091  18.012  19.496  0.00  0.00    -0.616 OA
ATOM     11  O2B IPE d   1      18.162  16.790  19.061  0.00  0.00    -0.616 OA
ATOM     12  O3B IPE d   1      17.509  18.873  17.985  0.00  0.00    -0.616 OA
ENDBRANCH   8   9
ENDBRANCH   5   8
ENDBRANCH   4   5
ENDBRANCH   1   4
BRANCH   1  13
ATOM     13  C2  IPE d   1      21.997  18.075  23.100  0.00  0.00    -0.079 C 
ATOM     14  C3  IPE d   1      23.176  17.763  23.686  0.00  0.00    -0.089 C 
ATOM     15  H3  IPE d   1      21.981  18.928  22.424  0.00  0.00     0.080 H 
BRANCH  14  16
ATOM     16  C4  IPE d   1      23.295  16.572  24.663  0.00  0.00    -0.055 C 
ATOM     17  H4  IPE d   1      24.332  16.495  25.022  0.00  0.00     0.033 H 
ATOM     18  H5  IPE d   1      23.017  15.643  24.144  0.00  0.00     0.033 H 
ATOM     19  H6  IPE d   1      22.622  16.730  25.518  0.00  0.00     0.033 H 
ENDBRANCH  14  16
BRANCH  14  20
ATOM     20  C5  IPE d   1      24.390  18.618  23.359  0.00  0.00    -0.055 C 
ATOM     21  H7  IPE d   1      24.102  19.408  22.650  0.00  0.00     0.033 H 
ATOM     22  H8  IPE d   1      25.171  17.988  22.908  0.00  0.00     0.033 H 
ATOM     23  H9  IPE d   1      24.775  19.076  24.282  0.00  0.00     0.033 H 
ENDBRANCH  14  20
ENDBRANCH   1  13
TORSDOF 7
