REMARK  7 active torsions:
REMARK  status: ('A' for Active; 'I' for Inactive)
REMARK    1  A    between atoms: CBP_10  and  CBE_11 
REMARK    2  A    between atoms: CBE_11  and  CBT_12 
REMARK    3  A    between atoms: CA_20  and  CB_21 
REMARK    4  A    between atoms: CB_21  and  CG_22 
REMARK       I    between atoms: CG_22  and  ND2_24 
REMARK    5  A    between atoms: CBS_38  and  CBO_39 
REMARK    6  A    between atoms: CBN_44  and  CBF_45 
REMARK    7  A    between atoms: CBF_45  and  PBW_46 
ROOT
ATOM      1  CBT DTF d   1      19.093  -8.904 -10.963  0.00  0.00    -0.032 C 
ATOM      2  CAY DTF d   1      17.583  -8.970 -11.341  0.00  0.00    -0.045 C 
ATOM      3  CAI DTF d   1      16.834  -7.662 -11.515  0.00  0.00    -0.105 C 
ATOM      4  CAJ DTF d   1      15.897  -7.480 -12.453  0.00  0.00    -0.098 C 
ATOM      5  CBB DTF d   1      20.023  -7.934 -11.769  0.00  0.00    -0.001 C 
ATOM      6  NBG DTF d   1      19.795  -6.480 -11.565  0.00  0.00    -0.359 N 
ATOM      7  C   DTF d   1      19.952  -5.846 -10.381  0.00  0.00     0.240 C 
ATOM      8  O   DTF d   1      20.406  -6.433  -9.395  0.00  0.00    -0.271 OA
ATOM      9  CA  DTF d   1      19.583  -4.315 -10.271  0.00  0.00     0.097 C 
ATOM     10  N   DTF d   1      18.538  -3.808 -11.213  0.00  0.00    -0.345 N 
ATOM     11  CBM DTF d   1      18.772  -2.887 -12.167  0.00  0.00     0.246 C 
ATOM     12  OAE DTF d   1      19.906  -2.413 -12.297  0.00  0.00    -0.271 OA
ATOM     13  CBV DTF d   1      17.555  -2.369 -13.072  0.00  0.00     0.113 C 
ATOM     14  CAZ DTF d   1      18.084  -1.778 -14.433  0.00  0.00    -0.033 C 
ATOM     15  CAW DTF d   1      17.109  -0.894 -15.260  0.00  0.00    -0.062 C 
ATOM     16  CAV DTF d   1      16.375   0.166 -14.404  0.00  0.00    -0.065 C 
ATOM     17  CAX DTF d   1      15.783  -0.389 -13.090  0.00  0.00    -0.062 C 
ATOM     18  CBA DTF d   1      16.838  -1.207 -12.289  0.00  0.00    -0.033 C 
ATOM     19  NBI DTF d   1      16.449  -3.357 -13.322  0.00  0.00    -0.343 N 
ATOM     20  CBK DTF d   1      16.602  -4.586 -13.814  0.00  0.00     0.219 C 
ATOM     21  OAC DTF d   1      17.680  -5.050 -14.178  0.00  0.00    -0.274 OA
ATOM     22  CBC DTF d   1      15.316  -5.414 -13.858  0.00  0.00     0.019 C 
ATOM     23  CBS DTF d   1      15.011  -6.240 -12.571  0.00  0.00    -0.004 C 
ATOM     24  H10 DTF d   1      19.122  -8.542  -9.925  0.00  0.00     0.043 H 
ATOM     25  H11 DTF d   1      17.072  -9.537 -10.549  0.00  0.00     0.039 H 
ATOM     26  H12 DTF d   1      17.507  -9.519 -12.291  0.00  0.00     0.039 H 
ATOM     27  H13 DTF d   1      17.069  -6.835 -10.847  0.00  0.00     0.076 H 
ATOM     28  H14 DTF d   1      15.755  -8.273 -13.186  0.00  0.00     0.077 H 
ATOM     29  H15 DTF d   1      19.883  -8.148 -12.839  0.00  0.00     0.064 H 
ATOM     30  H16 DTF d   1      21.063  -8.153 -11.484  0.00  0.00     0.064 H 
ATOM     31  H17 DTF d   1      19.507  -5.936 -12.353  0.00  0.00     0.162 HD
ATOM     32  H18 DTF d   1      20.515  -3.788 -10.523  0.00  0.00     0.088 H 
ATOM     33  H23 DTF d   1      17.611  -4.174 -11.130  0.00  0.00     0.163 HD
ATOM     34  H24 DTF d   1      18.378  -2.627 -15.068  0.00  0.00     0.037 H 
ATOM     35  H25 DTF d   1      18.969  -1.167 -14.204  0.00  0.00     0.037 H 
ATOM     36  H26 DTF d   1      16.358  -1.546 -15.729  0.00  0.00     0.033 H 
ATOM     37  H27 DTF d   1      17.684  -0.376 -16.041  0.00  0.00     0.033 H 
ATOM     38  H28 DTF d   1      15.554   0.586 -15.003  0.00  0.00     0.033 H 
ATOM     39  H29 DTF d   1      17.090   0.963 -14.152  0.00  0.00     0.033 H 
ATOM     40  H30 DTF d   1      14.931  -1.042 -13.330  0.00  0.00     0.033 H 
ATOM     41  H31 DTF d   1      15.437   0.452 -12.471  0.00  0.00     0.033 H 
ATOM     42  H32 DTF d   1      17.613  -0.507 -11.943  0.00  0.00     0.037 H 
ATOM     43  H33 DTF d   1      16.330  -1.651 -11.420  0.00  0.00     0.037 H 
ATOM     44  H34 DTF d   1      15.518  -3.067 -13.100  0.00  0.00     0.163 HD
ATOM     45  H35 DTF d   1      15.392  -6.115 -14.702  0.00  0.00     0.048 H 
ATOM     46  H36 DTF d   1      14.475  -4.726 -14.028  0.00  0.00     0.048 H 
ATOM     47  H37 DTF d   1      15.230  -5.590 -11.711  0.00  0.00     0.054 H 
ENDROOT
BRANCH   1  48
ATOM     48  CBE DTF d   1      19.693 -10.354 -10.968  0.00  0.00    -0.035 C 
ATOM     49  H8  DTF d   1      19.157 -10.938 -11.730  0.00  0.00     0.040 H 
ATOM     50  H9  DTF d   1      20.755 -10.278 -11.244  0.00  0.00     0.040 H 
BRANCH  48  51
ATOM     51  CBP DTF d   1      19.604 -11.130  -9.623  0.00  0.00    -0.047 A 
ATOM     52  CBR DTF d   1      20.327 -10.783  -8.454  0.00  0.00    -0.020 A 
ATOM     53  CAU DTF d   1      21.148  -9.648  -8.374  0.00  0.00    -0.072 A 
ATOM     54  CBQ DTF d   1      20.217 -11.626  -7.289  0.00  0.00    -0.025 A 
ATOM     55  CAL DTF d   1      21.831  -9.339  -7.205  0.00  0.00    -0.082 A 
ATOM     56  H1  DTF d   1      21.251  -9.002  -9.238  0.00  0.00     0.084 H 
ATOM     57  CAK DTF d   1      21.736 -10.173  -6.099  0.00  0.00    -0.082 A 
ATOM     58  H2  DTF d   1      22.440  -8.444  -7.156  0.00  0.00     0.083 H 
ATOM     59  CAS DTF d   1      20.940 -11.310  -6.135  0.00  0.00    -0.072 A 
ATOM     60  H3  DTF d   1      22.289  -9.934  -5.198  0.00  0.00     0.083 H 
ATOM     61  H4  DTF d   1      20.879 -11.955  -5.266  0.00  0.00     0.084 H 
ATOM     62  CAT DTF d   1      19.392 -12.746  -7.323  0.00  0.00    -0.072 A 
ATOM     63  CAM DTF d   1      18.692 -13.068  -8.477  0.00  0.00    -0.082 A 
ATOM     64  H5  DTF d   1      19.296 -13.371  -6.442  0.00  0.00     0.084 H 
ATOM     65  CAP DTF d   1      18.802 -12.277  -9.613  0.00  0.00    -0.076 A 
ATOM     66  H6  DTF d   1      18.054 -13.944  -8.492  0.00  0.00     0.083 H 
ATOM     67  H7  DTF d   1      18.257 -12.553 -10.508  0.00  0.00     0.084 H 
ENDBRANCH  48  51
ENDBRANCH   1  48
BRANCH  23  68
ATOM     68  CBO DTF d   1      13.518  -6.665 -12.472  0.00  0.00    -0.050 A 
ATOM     69  CAR DTF d   1      12.780  -6.345 -11.323  0.00  0.00    -0.076 A 
ATOM     70  CAO DTF d   1      11.457  -6.762 -11.192  0.00  0.00    -0.076 A 
ATOM     71  H38 DTF d   1      13.243  -5.768 -10.530  0.00  0.00     0.084 H 
ATOM     72  CBN DTF d   1      10.852  -7.505 -12.207  0.00  0.00    -0.045 A 
ATOM     73  H39 DTF d   1      10.896  -6.509 -10.300  0.00  0.00     0.084 H 
ATOM     74  CAN DTF d   1      11.566  -7.797 -13.370  0.00  0.00    -0.076 A 
ATOM     75  CAQ DTF d   1      12.885  -7.381 -13.502  0.00  0.00    -0.076 A 
ATOM     76  H41 DTF d   1      11.090  -8.350 -14.172  0.00  0.00     0.084 H 
ATOM     77  H40 DTF d   1      13.432  -7.611 -14.409  0.00  0.00     0.084 H 
BRANCH  72  78
ATOM     78  CBF DTF d   1       9.431  -8.044 -12.029  0.00  0.00     0.063 C 
ATOM     79  H42 DTF d   1       8.960  -7.499 -11.197  0.00  0.00     0.061 H 
ATOM     80  H43 DTF d   1       9.499  -9.112 -11.776  0.00  0.00     0.061 H 
BRANCH  78  81
ATOM     81  PBW DTF d   1       8.408  -7.884 -13.429  0.00  0.00     0.263 P 
ATOM     82  OAG DTF d   1       8.908  -8.809 -14.557  0.00  0.00    -0.639 OA
ATOM     83  OAH DTF d   1       8.371  -6.436 -13.970  0.00  0.00    -0.639 OA
ATOM     84  OAF DTF d   1       6.924  -8.312 -13.046  0.00  0.00    -0.639 OA
ENDBRANCH  78  81
ENDBRANCH  72  78
ENDBRANCH  23  68
BRANCH   9  85
ATOM     85  CB  DTF d   1      19.151  -3.809  -8.863  0.00  0.00     0.036 C 
ATOM     86  H19 DTF d   1      18.853  -2.756  -8.971  0.00  0.00     0.051 H 
ATOM     87  H20 DTF d   1      20.031  -3.876  -8.207  0.00  0.00     0.051 H 
BRANCH  85  88
ATOM     88  CG  DTF d   1      17.999  -4.540  -8.159  0.00  0.00     0.217 C 
ATOM     89  OD1 DTF d   1      16.824  -4.306  -8.413  0.00  0.00    -0.274 OA
ATOM     90  ND2 DTF d   1      18.295  -5.424  -7.244  0.00  0.00    -0.370 N 
ATOM     91  H21 DTF d   1      17.565  -5.915  -6.769  0.00  0.00     0.159 HD
ATOM     92  H22 DTF d   1      19.252  -5.609  -7.019  0.00  0.00     0.159 HD
ENDBRANCH  85  88
ENDBRANCH   9  85
TORSDOF 7
