REMARK WARNING: 32 MAX_TORS EXCEEDED!!!
REMARK  51 active torsions:
REMARK  status: ('A' for Active; 'I' for Inactive)
REMARK    1  A    between atoms: CA_2  and  N_1 
REMARK    2  A    between atoms: CA_2  and  CB_5 
REMARK    3  A    between atoms: C_3  and  CA_2 
REMARK       I    between atoms: N_15  and  C_3 
REMARK    4  A    between atoms: CB_5  and  CG_6 
REMARK    5  A    between atoms: CG_6  and  CD_7 
REMARK       I    between atoms: CD_7  and  NE2_9 
REMARK    6  A    between atoms: CA_16  and  N_15 
REMARK    7  A    between atoms: CA_16  and  CB_19 
REMARK    8  A    between atoms: C_17  and  CA_16 
REMARK       I    between atoms: N_26  and  C_17 
REMARK    9  A    between atoms: CB_19  and  CG_20 
REMARK       I    between atoms: CG_20  and  ND2_22 
REMARK   10  A    between atoms: CA_27  and  N_26 
REMARK   11  A    between atoms: C_28  and  CA_27 
REMARK       I    between atoms: N_31  and  C_28 
REMARK   12  A    between atoms: CA_32  and  N_31 
REMARK   13  A    between atoms: CA_32  and  CB_35 
REMARK   14  A    between atoms: C_33  and  CA_32 
REMARK       I    between atoms: N_45  and  C_33 
REMARK   15  A    between atoms: CB_35  and  CG_36 
REMARK   16  A    between atoms: CZ_41  and  OH_42 
REMARK   17  A    between atoms: CA_46  and  N_45 
REMARK   18  A    between atoms: CA_46  and  CB_49 
REMARK   19  A    between atoms: C_47  and  CA_46 
REMARK       I    between atoms: N_55  and  C_47 
REMARK   20  A    between atoms: CB_49  and  CG_50 
REMARK   21  A    between atoms: CG_50  and  CD_51 
REMARK   22  A    between atoms: CA_56  and  N_55 
REMARK   23  A    between atoms: CA_56  and  CB_59 
REMARK   24  A    between atoms: C_57  and  CA_56 
REMARK       I    between atoms: N_66  and  C_57 
REMARK   25  A    between atoms: CB_59  and  CG_60 
REMARK       I    between atoms: CG_60  and  ND2_62 
REMARK   26  A    between atoms: C_68  and  CA_67 
REMARK       I    between atoms: N_73  and  C_68 
REMARK   27  A    between atoms: CA_74  and  N_73 
REMARK   28  A    between atoms: CA_74  and  CB_77 
REMARK   29  A    between atoms: C_75  and  CA_74 
REMARK       I    between atoms: N_82  and  C_75 
REMARK   30  A    between atoms: CB_77  and  CG2_79 
REMARK   31  A    between atoms: CB_77  and  OG1_78 
REMARK   32  A    between atoms: CA_83  and  N_82 
REMARK   33  A    between atoms: CA_83  and  CB_86 
REMARK   34  A    between atoms: C_84  and  CA_83 
REMARK       I    between atoms: N_96  and  C_84 
REMARK   35  A    between atoms: CB_86  and  CG_87 
REMARK   36  A    between atoms: CZ_92  and  OH_93 
REMARK   37  A    between atoms: CA_97  and  N_96 
REMARK   38  A    between atoms: CA_97  and  CB_100 
REMARK   39  A    between atoms: C_98  and  CA_97 
REMARK       I    between atoms: N_109  and  C_98 
REMARK   40  A    between atoms: CB_100  and  CG_101 
REMARK   41  A    between atoms: CG_101  and  CD_102 
REMARK   42  A    between atoms: CD_102  and  CE_103 
REMARK   43  A    between atoms: CE_103  and  NZ_104 
REMARK   44  A    between atoms: CA_110  and  N_109 
REMARK   45  A    between atoms: CA_110  and  CB_113 
REMARK   46  A    between atoms: C_111  and  CA_110 
REMARK       I    between atoms: C_111  and  N_121 
REMARK   47  A    between atoms: CB_113  and  CG_114 
REMARK   48  A    between atoms: N_121  and  CA_122 
REMARK   49  A    between atoms: CA_122  and  CB_125 
REMARK   50  A    between atoms: CA_122  and  C_123 
REMARK   51  A    between atoms: CB_125  and  CG_126 
ROOT
ATOM      1  C   ASN d   1      55.347  -2.718  69.102  0.00  0.00     0.243 C 
ATOM      2  O   ASN d   1      54.300  -3.316  69.345  0.00  0.00    -0.271 OA
ATOM      3  N   PRO d   1      56.428  -3.357  68.611  0.00  0.00    -0.337 N 
ATOM      4  CA  PRO d   1      56.407  -4.790  68.248  0.00  0.00     0.091 C 
ATOM      5  CB  PRO d   1      57.773  -4.988  67.599  0.00  0.00    -0.036 C 
ATOM      6  CG  PRO d   1      58.235  -3.583  67.267  0.00  0.00    -0.048 C 
ATOM      7  CD  PRO d   1      57.772  -2.804  68.433  0.00  0.00    -0.001 C 
ATOM      8  H41 PRO d   1      55.604  -4.969  67.518  0.00  0.00     0.087 H 
ATOM      9  H42 PRO d   1      57.687  -5.596  66.686  0.00  0.00     0.036 H 
ATOM     10  H43 PRO d   1      58.470  -5.473  68.298  0.00  0.00     0.036 H 
ATOM     11  H44 PRO d   1      59.330  -3.538  67.170  0.00  0.00     0.035 H 
ATOM     12  H45 PRO d   1      57.769  -3.222  66.338  0.00  0.00     0.035 H 
ATOM     13  H46 PRO d   1      58.404  -2.981  69.316  0.00  0.00     0.064 H 
ATOM     14  H47 PRO d   1      57.742  -1.726  68.214  0.00  0.00     0.064 H 
ENDROOT
BRANCH   4  15
ATOM     15  C   PRO d   1      56.218  -5.769  69.399  0.00  0.00     0.241 C 
ATOM     16  O   PRO d   1      55.525  -6.778  69.292  0.00  0.00    -0.271 OA
ATOM     17  N   THR d   1      56.904  -5.485  70.489  0.00  0.00    -0.344 N 
ATOM     18  H48 THR d   1      57.486  -4.671  70.494  0.00  0.00     0.163 HD
BRANCH  17  19
ATOM     19  CA  THR d   1      56.846  -6.307  71.677  0.00  0.00     0.113 C 
ATOM     20  H49 THR d   1      57.212  -7.316  71.435  0.00  0.00     0.091 H 
BRANCH  19  21
ATOM     21  CB  THR d   1      57.749  -5.693  72.779  0.00  0.00     0.060 C 
ATOM     22  H50 THR d   1      57.396  -4.674  72.994  0.00  0.00     0.086 H 
BRANCH  21  23
ATOM     23  CG2 THR d   1      57.676  -6.506  74.073  0.00  0.00    -0.050 C 
ATOM     24  H52 THR d   1      58.325  -6.046  74.832  0.00  0.00     0.031 H 
ATOM     25  H53 THR d   1      58.011  -7.535  73.879  0.00  0.00     0.031 H 
ATOM     26  H54 THR d   1      56.639  -6.521  74.439  0.00  0.00     0.031 H 
ENDBRANCH  21  23
BRANCH  21  27
ATOM     27  OG1 THR d   1      59.102  -5.617  72.290  0.00  0.00    -0.393 OA
ATOM     28  H51 THR d   1      59.120  -5.108  71.488  0.00  0.00     0.210 HD
ENDBRANCH  21  27
ENDBRANCH  19  21
BRANCH  19  29
ATOM     29  C   THR d   1      55.408  -6.406  72.165  0.00  0.00     0.243 C 
ATOM     30  O   THR d   1      54.976  -7.467  72.629  0.00  0.00    -0.271 OA
ATOM     31  N   TYR d   1      54.673  -5.301  72.025  0.00  0.00    -0.346 N 
ATOM     32  H55 TYR d   1      55.098  -4.498  71.606  0.00  0.00     0.163 HD
BRANCH  31  33
ATOM     33  CA  TYR d   1      53.279  -5.204  72.453  0.00  0.00     0.093 C 
ATOM     34  H56 TYR d   1      53.245  -5.244  73.552  0.00  0.00     0.088 H 
BRANCH  33  35
ATOM     35  CB  TYR d   1      52.679  -3.871  71.994  0.00  0.00    -0.014 C 
ATOM     36  H57 TYR d   1      52.856  -3.761  70.914  0.00  0.00     0.043 H 
ATOM     37  H58 TYR d   1      53.184  -3.056  72.533  0.00  0.00     0.043 H 
BRANCH  35  38
ATOM     38  CG  TYR d   1      51.206  -3.767  72.247  0.00  0.00    -0.056 A 
ATOM     39  CD1 TYR d   1      50.290  -4.235  71.307  0.00  0.00    -0.074 A 
ATOM     40  CE1 TYR d   1      48.936  -4.247  71.577  0.00  0.00    -0.051 A 
ATOM     41  H59 TYR d   1      50.646  -4.595  70.349  0.00  0.00     0.084 H 
ATOM     42  CZ  TYR d   1      48.476  -3.782  72.799  0.00  0.00     0.065 A 
ATOM     43  H61 TYR d   1      48.236  -4.618  70.837  0.00  0.00     0.087 H 
ATOM     44  CE2 TYR d   1      49.367  -3.294  73.746  0.00  0.00    -0.051 A 
ATOM     45  CD2 TYR d   1      50.726  -3.290  73.464  0.00  0.00    -0.074 A 
ATOM     46  H62 TYR d   1      49.004  -2.920  74.697  0.00  0.00     0.087 H 
ATOM     47  H60 TYR d   1      51.424  -2.910  74.202  0.00  0.00     0.084 H 
BRANCH  42  48
ATOM     48  OH  TYR d   1      47.138  -3.862  73.093  0.00  0.00    -0.361 OA
ATOM     49  H63 TYR d   1      47.013  -4.433  73.842  0.00  0.00     0.217 HD
ENDBRANCH  42  48
ENDBRANCH  35  38
ENDBRANCH  33  35
BRANCH  33  50
ATOM     50  C   TYR d   1      52.470  -6.373  71.901  0.00  0.00     0.241 C 
ATOM     51  O   TYR d   1      51.715  -7.026  72.630  0.00  0.00    -0.271 OA
ATOM     52  N   LYS d   1      52.651  -6.615  70.606  0.00  0.00    -0.346 N 
ATOM     53  H64 LYS d   1      53.263  -6.004  70.103  0.00  0.00     0.163 HD
BRANCH  52  54
ATOM     54  CA  LYS d   1      52.025  -7.704  69.863  0.00  0.00     0.089 C 
ATOM     55  H65 LYS d   1      51.012  -7.395  69.566  0.00  0.00     0.087 H 
BRANCH  54  56
ATOM     56  CB  LYS d   1      52.880  -7.972  68.621  0.00  0.00    -0.038 C 
ATOM     57  H66 LYS d   1      53.860  -8.337  68.963  0.00  0.00     0.036 H 
ATOM     58  H67 LYS d   1      53.009  -7.016  68.092  0.00  0.00     0.036 H 
BRANCH  56  59
ATOM     59  CG  LYS d   1      52.341  -8.969  67.635  0.00  0.00    -0.061 C 
ATOM     60  H68 LYS d   1      51.456  -8.547  67.136  0.00  0.00     0.033 H 
ATOM     61  H69 LYS d   1      52.059  -9.890  68.165  0.00  0.00     0.033 H 
BRANCH  59  62
ATOM     62  CD  LYS d   1      53.397  -9.291  66.596  0.00  0.00    -0.043 C 
ATOM     63  H70 LYS d   1      52.911  -9.783  65.740  0.00  0.00     0.035 H 
ATOM     64  H71 LYS d   1      54.134  -9.975  67.042  0.00  0.00     0.035 H 
BRANCH  62  65
ATOM     65  CE  LYS d   1      54.123  -8.050  66.098  0.00  0.00     0.080 C 
ATOM     66  H72 LYS d   1      54.965  -8.367  65.466  0.00  0.00     0.075 H 
ATOM     67  H73 LYS d   1      54.506  -7.496  66.968  0.00  0.00     0.075 H 
BRANCH  65  68
ATOM     68  NZ  LYS d   1      53.251  -7.141  65.304  0.00  0.00    -0.079 N 
ATOM     69  H74 LYS d   1      53.785  -6.341  65.003  0.00  0.00     0.274 HD
ATOM     70  H75 LYS d   1      52.478  -6.834  65.874  0.00  0.00     0.274 HD
ATOM     71  H76 LYS d   1      52.899  -7.633  64.497  0.00  0.00     0.274 HD
ENDBRANCH  65  68
ENDBRANCH  62  65
ENDBRANCH  59  62
ENDBRANCH  56  59
ENDBRANCH  54  56
BRANCH  54  72
ATOM     72  C   LYS d   1      51.933  -9.015  70.651  0.00  0.00     0.241 C 
ATOM     73  O   LYS d   1      50.957  -9.757  70.523  0.00  0.00    -0.271 OA
ATOM     74  N   PHE d   1      52.978  -9.318  71.417  0.00  0.00    -0.346 N 
ATOM     75  H77 PHE d   1      53.742  -8.674  71.465  0.00  0.00     0.163 HD
BRANCH  74  76
ATOM     76  CA  PHE d   1      53.052 -10.557  72.192  0.00  0.00     0.093 C 
ATOM     77  H78 PHE d   1      52.438 -11.306  71.671  0.00  0.00     0.088 H 
BRANCH  76  78
ATOM     78  CB  PHE d   1      54.503 -11.065  72.233  0.00  0.00    -0.014 C 
ATOM     79  H79 PHE d   1      54.509 -12.050  72.723  0.00  0.00     0.043 H 
ATOM     80  H80 PHE d   1      55.099 -10.356  72.827  0.00  0.00     0.043 H 
BRANCH  78  81
ATOM     81  CG  PHE d   1      55.157 -11.209  70.870  0.00  0.00    -0.056 A 
ATOM     82  CD1 PHE d   1      55.078 -12.409  70.163  0.00  0.00    -0.077 A 
ATOM     83  CE1 PHE d   1      55.765 -12.584  68.945  0.00  0.00    -0.082 A 
ATOM     84  H81 PHE d   1      54.478 -13.221  70.557  0.00  0.00     0.084 H 
ATOM     85  CZ  PHE d   1      56.536 -11.555  68.431  0.00  0.00    -0.083 A 
ATOM     86  H83 PHE d   1      55.690 -13.524  68.410  0.00  0.00     0.083 H 
ATOM     87  CE2 PHE d   1      56.615 -10.345  69.126  0.00  0.00    -0.082 A 
ATOM     88  H85 PHE d   1      57.073 -11.687  67.499  0.00  0.00     0.083 H 
ATOM     89  CD2 PHE d   1      55.929 -10.178  70.339  0.00  0.00    -0.077 A 
ATOM     90  H84 PHE d   1      57.209  -9.531  68.726  0.00  0.00     0.083 H 
ATOM     91  H82 PHE d   1      56.001  -9.235  70.869  0.00  0.00     0.084 H 
ENDBRANCH  78  81
ENDBRANCH  76  78
BRANCH  76  92
ATOM     92  C   PHE d   1      52.518 -10.442  73.625  0.00  0.00     0.241 C 
ATOM     93  O   PHE d   1      52.849 -11.264  74.477  0.00  0.00    -0.271 OA
ATOM     94  N   PHE d   1      51.702  -9.433  73.895  0.00  0.00    -0.348 N 
ATOM     95  H86 PHE d   1      51.465  -8.786  73.171  0.00  0.00     0.163 HD
BRANCH  94  96
ATOM     96  CA  PHE d   1      51.143  -9.250  75.229  0.00  0.00     0.066 C 
ATOM     97  H87 PHE d   1      51.262 -10.197  75.775  0.00  0.00     0.084 H 
BRANCH  96  98
ATOM     98  CB  PHE d   1      51.900  -8.155  75.983  0.00  0.00    -0.016 C 
ATOM     99  H89 PHE d   1      51.247  -7.772  76.781  0.00  0.00     0.043 H 
ATOM    100  H90 PHE d   1      52.128  -7.344  75.275  0.00  0.00     0.043 H 
BRANCH  98 101
ATOM    101  CG  PHE d   1      53.192  -8.611  76.609  0.00  0.00    -0.056 A 
ATOM    102  CD1 PHE d   1      54.314  -8.865  75.826  0.00  0.00    -0.077 A 
ATOM    103  CE1 PHE d   1      55.518  -9.259  76.412  0.00  0.00    -0.082 A 
ATOM    104  H91 PHE d   1      54.252  -8.756  74.749  0.00  0.00     0.084 H 
ATOM    105  CZ  PHE d   1      55.605  -9.402  77.798  0.00  0.00    -0.083 A 
ATOM    106  H93 PHE d   1      56.385  -9.454  75.791  0.00  0.00     0.083 H 
ATOM    107  CE2 PHE d   1      54.489  -9.149  78.588  0.00  0.00    -0.082 A 
ATOM    108  H95 PHE d   1      56.538  -9.709  78.256  0.00  0.00     0.083 H 
ATOM    109  CD2 PHE d   1      53.289  -8.756  77.991  0.00  0.00    -0.077 A 
ATOM    110  H94 PHE d   1      54.550  -9.257  79.665  0.00  0.00     0.083 H 
ATOM    111  H92 PHE d   1      52.422  -8.561  78.611  0.00  0.00     0.084 H 
ENDBRANCH  98 101
ENDBRANCH  96  98
BRANCH  96 112
ATOM    112  C   PHE d   1      49.650  -8.898  75.208  0.00  0.00     0.110 C 
ATOM    113  O   PHE d   1      48.908  -9.403  74.331  0.00  0.00    -0.305 OA
ATOM    114  H88 PHE d   1      49.237  -8.215  75.949  0.00  0.00     0.146 H 
ENDBRANCH  96 112
ENDBRANCH  94  96
ENDBRANCH  76  92
ENDBRANCH  74  76
ENDBRANCH  54  72
ENDBRANCH  52  54
ENDBRANCH  33  50
ENDBRANCH  31  33
ENDBRANCH  19  29
ENDBRANCH  17  19
ENDBRANCH   4  15
BRANCH   1 115
ATOM    115  CA  ASN d   1      55.481  -1.230  69.428  0.00  0.00     0.097 C 
ATOM    116  H36 ASN d   1      56.531  -0.913  69.351  0.00  0.00     0.088 H 
BRANCH 115 117
ATOM    117  N   ASN d   1      54.664  -0.529  68.450  0.00  0.00    -0.346 N 
ATOM    118  C   GLU d   1      55.136  -0.211  67.253  0.00  0.00     0.241 C 
ATOM    119  O   GLU d   1      56.309  -0.419  66.923  0.00  0.00    -0.271 OA
ATOM    120  H35 ASN d   1      53.724  -0.281  68.686  0.00  0.00     0.163 HD
BRANCH 118 121
ATOM    121  CA  GLU d   1      54.172   0.497  66.299  0.00  0.00     0.090 C 
ATOM    122  H30 GLU d   1      53.309   0.886  66.858  0.00  0.00     0.087 H 
BRANCH 121 123
ATOM    123  N   GLU d   1      54.892   1.585  65.672  0.00  0.00    -0.346 N 
ATOM    124  C   TYR d   1      54.844   2.828  66.135  0.00  0.00     0.241 C 
ATOM    125  O   TYR d   1      54.113   3.175  67.064  0.00  0.00    -0.271 OA
ATOM    126  H29 GLU d   1      55.445   1.393  64.861  0.00  0.00     0.163 HD
BRANCH 124 127
ATOM    127  CA  TYR d   1      55.671   3.851  65.368  0.00  0.00     0.093 C 
ATOM    128  H21 TYR d   1      56.073   3.378  64.460  0.00  0.00     0.088 H 
BRANCH 127 129
ATOM    129  N   TYR d   1      54.812   4.959  64.983  0.00  0.00    -0.346 N 
ATOM    130  C   GLY d   1      54.792   5.433  63.744  0.00  0.00     0.236 C 
ATOM    131  O   GLY d   1      55.479   4.976  62.824  0.00  0.00    -0.272 OA
ATOM    132  H20 TYR d   1      54.219   5.376  65.672  0.00  0.00     0.163 HD
BRANCH 130 133
ATOM    133  CA  GLY d   1      53.839   6.579  63.500  0.00  0.00     0.069 C 
ATOM    134  H18 GLY d   1      52.854   6.177  63.219  0.00  0.00     0.078 H 
ATOM    135  H19 GLY d   1      53.744   7.172  64.421  0.00  0.00     0.078 H 
BRANCH 133 136
ATOM    136  N   GLY d   1      54.327   7.428  62.436  0.00  0.00    -0.351 N 
ATOM    137  C   ASN d   1      54.209   8.745  62.524  0.00  0.00     0.241 C 
ATOM    138  O   ASN d   1      53.688   9.305  63.490  0.00  0.00    -0.271 OA
ATOM    139  H17 GLY d   1      54.755   7.019  61.630  0.00  0.00     0.163 HD
BRANCH 137 140
ATOM    140  CA  ASN d   1      54.772   9.542  61.359  0.00  0.00     0.097 C 
ATOM    141  H12 ASN d   1      54.665   8.957  60.434  0.00  0.00     0.088 H 
BRANCH 140 142
ATOM    142  N   ASN d   1      54.060  10.805  61.197  0.00  0.00    -0.346 N 
ATOM    143  C   GLN d   1      53.662  11.242  60.009  0.00  0.00     0.249 C 
ATOM    144  O   GLN d   1      53.853  10.614  58.967  0.00  0.00    -0.271 OA
ATOM    145  H11 ASN d   1      53.866  11.359  62.007  0.00  0.00     0.163 HD
BRANCH 143 146
ATOM    146  CA  GLN d   1      52.933  12.594  59.995  0.00  0.00     0.176 C 
ATOM    147  H4  GLN d   1      52.350  12.697  60.922  0.00  0.00     0.099 H 
BRANCH 146 148
ATOM    148  N   GLN d   1      53.922  13.704  59.918  0.00  0.00    -0.066 N 
ATOM    149  H1  GLN d   1      53.436  14.587  59.909  0.00  0.00     0.275 HD
ATOM    150  H2  GLN d   1      54.466  13.611  59.074  0.00  0.00     0.275 HD
ATOM    151  H3  GLN d   1      54.534  13.665  60.718  0.00  0.00     0.275 HD
ENDBRANCH 146 148
BRANCH 146 152
ATOM    152  CB  GLN d   1      51.981  12.656  58.798  0.00  0.00    -0.022 C 
ATOM    153  H5  GLN d   1      52.554  12.422  57.889  0.00  0.00     0.037 H 
ATOM    154  H6  GLN d   1      51.582  13.678  58.727  0.00  0.00     0.037 H 
BRANCH 152 155
ATOM    155  CG  GLN d   1      50.814  11.695  58.884  0.00  0.00     0.011 C 
ATOM    156  H7  GLN d   1      50.001  12.174  59.449  0.00  0.00     0.047 H 
ATOM    157  H8  GLN d   1      51.141  10.786  59.411  0.00  0.00     0.047 H 
BRANCH 155 158
ATOM    158  CD  GLN d   1      50.293  11.305  57.514  0.00  0.00     0.215 C 
ATOM    159  NE2 GLN d   1      48.967  11.268  57.367  0.00  0.00    -0.370 N 
ATOM    160  H9  GLN d   1      48.569  11.017  56.485  0.00  0.00     0.159 HD
ATOM    161  H10 GLN d   1      48.372  11.491  58.139  0.00  0.00     0.159 HD
ATOM    162  OE1 GLN d   1      51.077  11.029  56.593  0.00  0.00    -0.274 OA
ENDBRANCH 155 158
ENDBRANCH 152 155
ENDBRANCH 146 152
ENDBRANCH 143 146
ENDBRANCH 140 142
BRANCH 140 163
ATOM    163  CB  ASN d   1      56.254   9.784  61.635  0.00  0.00     0.036 C 
ATOM    164  H13 ASN d   1      56.748   8.813  61.785  0.00  0.00     0.051 H 
ATOM    165  H14 ASN d   1      56.348  10.388  62.549  0.00  0.00     0.051 H 
BRANCH 163 166
ATOM    166  CG  ASN d   1      56.936  10.501  60.514  0.00  0.00     0.217 C 
ATOM    167  ND2 ASN d   1      57.646  11.573  60.841  0.00  0.00    -0.370 N 
ATOM    168  H15 ASN d   1      58.124  12.092  60.132  0.00  0.00     0.159 HD
ATOM    169  H16 ASN d   1      57.703  11.862  61.797  0.00  0.00     0.159 HD
ATOM    170  OD1 ASN d   1      56.795  10.124  59.345  0.00  0.00    -0.274 OA
ENDBRANCH 163 166
ENDBRANCH 140 163
ENDBRANCH 137 140
ENDBRANCH 133 136
ENDBRANCH 130 133
ENDBRANCH 127 129
BRANCH 127 171
ATOM    171  CB  TYR d   1      56.844   4.346  66.222  0.00  0.00    -0.014 C 
ATOM    172  H22 TYR d   1      57.522   3.500  66.408  0.00  0.00     0.043 H 
ATOM    173  H23 TYR d   1      56.448   4.715  67.179  0.00  0.00     0.043 H 
BRANCH 171 174
ATOM    174  CG  TYR d   1      57.627   5.451  65.572  0.00  0.00    -0.056 A 
ATOM    175  CD1 TYR d   1      57.261   6.781  65.755  0.00  0.00    -0.074 A 
ATOM    176  CE1 TYR d   1      57.957   7.812  65.126  0.00  0.00    -0.051 A 
ATOM    177  H24 TYR d   1      56.421   7.019  66.397  0.00  0.00     0.084 H 
ATOM    178  CZ  TYR d   1      59.041   7.516  64.305  0.00  0.00     0.065 A 
ATOM    179  H26 TYR d   1      57.655   8.842  65.276  0.00  0.00     0.087 H 
ATOM    180  CE2 TYR d   1      59.426   6.191  64.113  0.00  0.00    -0.051 A 
ATOM    181  CD2 TYR d   1      58.713   5.169  64.750  0.00  0.00    -0.074 A 
ATOM    182  H27 TYR d   1      60.270   5.954  63.476  0.00  0.00     0.087 H 
ATOM    183  H25 TYR d   1      59.013   4.138  64.600  0.00  0.00     0.084 H 
BRANCH 178 184
ATOM    184  OH  TYR d   1      59.718   8.545  63.675  0.00  0.00    -0.361 OA
ATOM    185  H28 TYR d   1      59.325   9.376  63.916  0.00  0.00     0.217 HD
ENDBRANCH 178 184
ENDBRANCH 171 174
ENDBRANCH 127 171
ENDBRANCH 124 127
ENDBRANCH 121 123
BRANCH 121 186
ATOM    186  CB  GLU d   1      53.694  -0.468  65.225  0.00  0.00    -0.029 C 
ATOM    187  H31 GLU d   1      54.534  -0.660  64.542  0.00  0.00     0.037 H 
ATOM    188  H32 GLU d   1      52.875   0.016  64.672  0.00  0.00     0.037 H 
BRANCH 186 189
ATOM    189  CG  GLU d   1      53.186  -1.814  65.741  0.00  0.00     0.018 C 
ATOM    190  H33 GLU d   1      53.952  -2.237  66.407  0.00  0.00     0.049 H 
ATOM    191  H34 GLU d   1      53.042  -2.480  64.878  0.00  0.00     0.049 H 
BRANCH 189 192
ATOM    192  CD  GLU d   1      51.875  -1.743  66.510  0.00  0.00     0.172 C 
ATOM    193  OE2 GLU d   1      51.746  -2.489  67.510  0.00  0.00    -0.648 OA
ATOM    194  OE1 GLU d   1      50.962  -0.977  66.117  0.00  0.00    -0.648 OA
ENDBRANCH 189 192
ENDBRANCH 186 189
ENDBRANCH 121 186
ENDBRANCH 118 121
ENDBRANCH 115 117
BRANCH 115 195
ATOM    195  CB  ASN d   1      54.964  -0.953  70.832  0.00  0.00     0.036 C 
ATOM    196  H37 ASN d   1      53.930  -1.321  70.909  0.00  0.00     0.051 H 
ATOM    197  H38 ASN d   1      54.981   0.133  71.009  0.00  0.00     0.051 H 
BRANCH 195 198
ATOM    198  CG  ASN d   1      55.801  -1.630  71.885  0.00  0.00     0.217 C 
ATOM    199  ND2 ASN d   1      55.389  -1.512  73.140  0.00  0.00    -0.370 N 
ATOM    200  H39 ASN d   1      55.908  -1.942  73.879  0.00  0.00     0.159 HD
ATOM    201  H40 ASN d   1      54.560  -0.993  73.347  0.00  0.00     0.159 HD
ATOM    202  OD1 ASN d   1      56.818  -2.267  71.567  0.00  0.00    -0.274 OA
ENDBRANCH 195 198
ENDBRANCH 115 195
ENDBRANCH   1 115
TORSDOF 51
