REMARK  9 active torsions:
REMARK  status: ('A' for Active; 'I' for Inactive)
REMARK    1  A    between atoms: C2_4  and  C1_1 
REMARK    2  A    between atoms: C2_4  and  O2_20 
REMARK    3  A    between atoms: C4_6  and  O4_7 
REMARK    4  A    between atoms: C5_8  and  O5_9 
REMARK    5  A    between atoms: C7_12  and  C6_10 
REMARK    6  A    between atoms: C7_12  and  O7_13 
REMARK    7  A    between atoms: C8_14  and  C7_12 
REMARK    8  A    between atoms: O_18  and  C8_14 
REMARK    9  A    between atoms: P1_15  and  O_18 
ROOT
ATOM      1  C2  DO8 d   1       7.002 -12.248  40.579  0.00  0.00     0.256 C 
ATOM      2  C3  DO8 d   1       5.994 -13.360  40.088  0.00  0.00     0.024 C 
ATOM      3  C4  DO8 d   1       5.588 -13.045  38.650  0.00  0.00     0.068 C 
ATOM      4  C5  DO8 d   1       4.928 -11.669  38.565  0.00  0.00     0.088 C 
ATOM      5  C6  DO8 d   1       6.002 -10.565  38.996  0.00  0.00     0.096 C 
ATOM      6  O6  DO8 d   1       6.550 -10.828  40.372  0.00  0.00    -0.336 OA
ATOM      7  H1  DO8 d   1       5.103 -13.364  40.733  0.00  0.00     0.045 H 
ATOM      8  H2  DO8 d   1       6.480 -14.346  40.129  0.00  0.00     0.045 H 
ATOM      9  H3  DO8 d   1       6.462 -13.075  37.982  0.00  0.00     0.087 H 
ATOM     10  H5  DO8 d   1       4.633 -11.481  37.522  0.00  0.00     0.091 H 
ATOM     11  H7  DO8 d   1       6.816 -10.609  38.258  0.00  0.00     0.091 H 
ENDROOT
BRANCH   5  12
ATOM     12  C7  DO8 d   1       5.481  -9.004  39.109  0.00  0.00     0.084 C 
ATOM     13  H8  DO8 d   1       6.486  -8.566  39.024  0.00  0.00     0.090 H 
BRANCH  12  14
ATOM     14  O7  DO8 d   1       5.010  -7.913  39.976  0.00  0.00    -0.391 OA
ATOM     15  H9  DO8 d   1       4.833  -7.144  39.447  0.00  0.00     0.210 HD
ENDBRANCH  12  14
BRANCH  12  16
ATOM     16  C8  DO8 d   1       4.920  -8.860  37.628  0.00  0.00     0.059 C 
ATOM     17  H10 DO8 d   1       3.831  -9.013  37.621  0.00  0.00     0.079 H 
ATOM     18  H11 DO8 d   1       5.399  -9.601  36.970  0.00  0.00     0.079 H 
BRANCH  16  19
ATOM     19  O   DO8 d   1       5.248  -7.465  37.159  0.00  0.00    -0.280 OA
BRANCH  19  20
ATOM     20  P1  DO8 d   1       5.023  -6.015  38.107  0.00  0.00     0.422 P 
ATOM     21  O2P DO8 d   1       3.699  -6.253  39.162  0.00  0.00    -0.617 OA
ATOM     22  O3P DO8 d   1       6.451  -5.736  38.941  0.00  0.00    -0.617 OA
ATOM     23  O1P DO8 d   1       4.613  -4.669  37.183  0.00  0.00    -0.617 OA
ENDBRANCH  19  20
ENDBRANCH  16  19
ENDBRANCH  12  16
ENDBRANCH   5  12
BRANCH   4  24
ATOM     24  O5  DO8 d   1       3.731 -11.621  39.389  0.00  0.00    -0.390 OA
ATOM     25  H6  DO8 d   1       3.114 -12.277  39.087  0.00  0.00     0.210 HD
ENDBRANCH   4  24
BRANCH   3  26
ATOM     26  O4  DO8 d   1       4.635 -14.097  38.305  0.00  0.00    -0.393 OA
ATOM     27  H4  DO8 d   1       3.895 -14.060  38.900  0.00  0.00     0.210 HD
ENDBRANCH   3  26
BRANCH   1  28
ATOM     28  C1  DO8 d   1       7.160 -12.399  42.086  0.00  0.00     0.238 C 
ATOM     29  O1A DO8 d   1       6.208 -12.869  42.741  0.00  0.00    -0.644 OA
ATOM     30  O1B DO8 d   1       8.221 -12.041  42.712  0.00  0.00    -0.644 OA
ENDBRANCH   1  28
BRANCH   1  31
ATOM     31  O2  DO8 d   1       8.336 -12.481  39.895  0.00  0.00    -0.357 OA
ATOM     32  H12 DO8 d   1       8.609 -13.380  40.034  0.00  0.00     0.213 HD
ENDBRANCH   1  31
TORSDOF 9
