REMARK  6 active torsions:
REMARK  status: ('A' for Active; 'I' for Inactive)
REMARK    1  A    between atoms: C3_3  and  C11_9 
REMARK    2  A    between atoms: C11_9  and  C12_10 
REMARK    3  A    between atoms: C12_10  and  C15_11 
REMARK    4  A    between atoms: C12_10  and  N20_14 
REMARK    5  A    between atoms: C15_11  and  C16_12 
REMARK       I    between atoms: C16_12  and  N19_13 
REMARK    6  A    between atoms: C39_21  and  C42_24 
ROOT
ATOM      1  C15 715 d   1      40.380  51.831  35.445  0.00  0.00     0.031 C 
ATOM      2  H6  715 d   1      40.140  52.715  36.053  0.00  0.00     0.049 H 
ATOM      3  H7  715 d   1      40.745  52.153  34.458  0.00  0.00     0.049 H 
ENDROOT
BRANCH   1   4
ATOM      4  C12 715 d   1      39.093  51.076  35.223  0.00  0.00     0.111 C 
ATOM      5  H5  715 d   1      39.300  50.095  34.770  0.00  0.00     0.085 H 
BRANCH   4   6
ATOM      6  C11 715 d   1      38.429  50.903  36.604  0.00  0.00    -0.011 C 
ATOM      7  H3  715 d   1      39.080  50.277  37.232  0.00  0.00     0.043 H 
ATOM      8  H4  715 d   1      38.315  51.894  37.067  0.00  0.00     0.043 H 
BRANCH   6   9
ATOM      9  C3  715 d   1      37.081  50.257  36.515  0.00  0.00    -0.015 A 
ATOM     10  C2  715 d   1      35.916  51.058  36.804  0.00  0.00     0.125 A 
ATOM     11  C1  715 d   1      34.588  50.540  36.740  0.00  0.00    -0.005 A 
ATOM     12  F10 715 d   1      36.068  52.327  37.154  0.00  0.00    -0.205 F 
ATOM     13  C6  715 d   1      34.432  49.180  36.366  0.00  0.00     0.157 A 
ATOM     14  H1  715 d   1      33.730  51.162  36.969  0.00  0.00     0.093 H 
ATOM     15  C5  715 d   1      35.556  48.363  36.077  0.00  0.00     0.155 A 
ATOM     16  F46 715 d   1      33.229  48.684  36.298  0.00  0.00    -0.203 F 
ATOM     17  C4  715 d   1      36.890  48.884  36.140  0.00  0.00    -0.034 A 
ATOM     18  F9  715 d   1      35.381  47.113  35.732  0.00  0.00    -0.203 F 
ATOM     19  H2  715 d   1      37.740  48.252  35.908  0.00  0.00     0.089 H 
ENDBRANCH   6   9
ENDBRANCH   4   6
BRANCH   4  20
ATOM     20  N20 715 d   1      38.203  51.846  34.353  0.00  0.00    -0.074 N 
ATOM     21  H8  715 d   1      37.347  51.334  34.211  0.00  0.00     0.274 HD
ATOM     22  H9  715 d   1      38.653  52.001  33.465  0.00  0.00     0.274 HD
ATOM     23  H10 715 d   1      37.996  52.733  34.785  0.00  0.00     0.274 HD
ENDBRANCH   4  20
ENDBRANCH   1   4
BRANCH   1  24
ATOM     24  C16 715 d   1      41.576  51.071  36.167  0.00  0.00     0.202 C 
ATOM     25  N19 715 d   1      42.763  51.839  36.434  0.00  0.00    -0.245 NA
ATOM     26  C25 715 d   1      42.999  52.741  35.282  0.00  0.00     0.002 C 
ATOM     27  C29 715 d   1      43.916  50.891  36.883  0.00  0.00     0.043 C 
ATOM     28  C26 715 d   1      44.167  52.411  34.374  0.00  0.00     0.014 C 
ATOM     29  H11 715 d   1      43.166  53.752  35.682  0.00  0.00     0.059 H 
ATOM     30  H12 715 d   1      42.088  52.736  34.665  0.00  0.00     0.059 H 
ATOM     31  N27 715 d   1      45.349  51.891  35.123  0.00  0.00    -0.311 N 
ATOM     32  H13 715 d   1      44.464  53.324  33.837  0.00  0.00     0.066 H 
ATOM     33  H14 715 d   1      43.846  51.648  33.650  0.00  0.00     0.066 H 
ATOM     34  C28 715 d   1      45.311  51.180  36.290  0.00  0.00     0.144 A 
ATOM     35  C39 715 d   1      46.669  51.962  34.865  0.00  0.00     0.237 A 
ATOM     36  N41 715 d   1      46.537  50.867  36.688  0.00  0.00    -0.133 NA
ATOM     37  N40 715 d   1      47.349  51.331  35.841  0.00  0.00    -0.125 NA
ATOM     38  H15 715 d   1      43.637  49.866  36.598  0.00  0.00     0.068 H 
ATOM     39  H16 715 d   1      43.997  50.958  37.978  0.00  0.00     0.068 H 
ATOM     40  O22 715 d   1      41.417  49.885  36.513  0.00  0.00    -0.280 OA
BRANCH  35  41
ATOM     41  C42 715 d   1      47.333  52.643  33.664  0.00  0.00     0.453 C 
ATOM     42  F43 715 d   1      48.623  52.472  33.770  0.00  0.00    -0.163 F 
ATOM     43  F44 715 d   1      47.013  53.930  33.726  0.00  0.00    -0.163 F 
ATOM     44  F45 715 d   1      46.888  52.085  32.532  0.00  0.00    -0.163 F 
ENDBRANCH  35  41
ENDBRANCH   1  24
TORSDOF 6
