REMARK  3 active torsions:
REMARK  status: ('A' for Active; 'I' for Inactive)
REMARK    1  A    between atoms: C1_1  and  O11_7 
REMARK    2  A    between atoms: C4_4  and  C12_8 
REMARK    3  A    between atoms: C18_14  and  O23_17 
ROOT
ATOM      1  C12 697 d   1      29.386  36.307  39.013  0.00  0.00     0.087 A 
ATOM      2  C13 697 d   1      30.552  35.508  39.009  0.00  0.00    -0.037 A 
ATOM      3  C14 697 d   1      31.323  36.110  37.980  0.00  0.00     0.005 A 
ATOM      4  C15 697 d   1      30.561  37.223  37.444  0.00  0.00     0.107 A 
ATOM      5  O16 697 d   1      29.387  37.300  38.105  0.00  0.00    -0.307 OA
ATOM      6  C17 697 d   1      32.615  35.845  37.417  0.00  0.00    -0.038 A 
ATOM      7  C18 697 d   1      33.116  36.675  36.354  0.00  0.00     0.068 A 
ATOM      8  C19 697 d   1      32.342  37.765  35.848  0.00  0.00    -0.028 A 
ATOM      9  C20 697 d   1      31.061  38.021  36.411  0.00  0.00     0.082 A 
ATOM     10  C7  697 d   1      30.268  39.109  35.924  0.00  0.00     0.102 C 
ATOM     11  N27 697 d   1      29.605  39.985  35.567  0.00  0.00    -0.191 NA
ATOM     12  H6  697 d   1      30.796  34.651  39.635  0.00  0.00     0.089 H 
ATOM     13  H7  697 d   1      33.212  35.022  37.791  0.00  0.00     0.089 H 
ATOM     14  H8  697 d   1      32.725  38.387  35.047  0.00  0.00     0.090 H 
ENDROOT
BRANCH   7  15
ATOM     15  O23 697 d   1      34.351  36.424  35.817  0.00  0.00    -0.361 OA
ATOM     16  H9  697 d   1      34.260  36.239  34.889  0.00  0.00     0.217 HD
ENDBRANCH   7  15
BRANCH   1  17
ATOM     17  C4  697 d   1      28.197  36.148  39.918  0.00  0.00    -0.002 A 
ATOM     18  C3  697 d   1      28.324  35.642  41.263  0.00  0.00    -0.068 A 
ATOM     19  C2  697 d   1      27.156  35.532  42.084  0.00  0.00    -0.050 A 
ATOM     20  H2  697 d   1      29.294  35.348  41.648  0.00  0.00     0.085 H 
ATOM     21  C1  697 d   1      25.880  35.929  41.554  0.00  0.00     0.065 A 
ATOM     22  H1  697 d   1      27.233  35.153  43.096  0.00  0.00     0.087 H 
ATOM     23  C6  697 d   1      25.750  36.430  40.222  0.00  0.00    -0.050 A 
ATOM     24  C5  697 d   1      26.912  36.540  39.404  0.00  0.00    -0.068 A 
ATOM     25  H4  697 d   1      24.779  36.723  39.838  0.00  0.00     0.087 H 
ATOM     26  H3  697 d   1      26.827  36.920  38.392  0.00  0.00     0.085 H 
BRANCH  21  27
ATOM     27  O11 697 d   1      24.757  35.829  42.336  0.00  0.00    -0.361 OA
ATOM     28  H5  697 d   1      24.996  35.483  43.188  0.00  0.00     0.217 HD
ENDBRANCH  21  27
ENDBRANCH   1  17
TORSDOF 3
