REMARK  4 active torsions:
REMARK  status: ('A' for Active; 'I' for Inactive)
REMARK    1  A    between atoms: C2_2  and  C13_11 
REMARK    2  A    between atoms: C6_6  and  O12_10 
REMARK    3  A    between atoms: C10_8  and  C18_14 
REMARK    4  A    between atoms: C21_17  and  O28_20 
ROOT
ATOM      1  C13 244 d   1      30.023  37.870  35.237  0.00  0.00     0.041 C 
ATOM      2  C14 244 d   1      29.493  39.059  35.952  0.00  0.00     0.063 C 
ATOM      3  N17 244 d   1      29.047  39.960  36.526  0.00  0.00    -0.197 NA
ATOM      4  H5  244 d   1      29.174  37.261  34.892  0.00  0.00     0.062 H 
ATOM      5  H6  244 d   1      30.605  38.213  34.369  0.00  0.00     0.062 H 
ENDROOT
BRANCH   1   6
ATOM      6  C2  244 d   1      30.923  36.999  36.113  0.00  0.00    -0.008 A 
ATOM      7  C1  244 d   1      32.265  36.764  35.703  0.00  0.00    -0.041 A 
ATOM      8  C6  244 d   1      33.112  35.953  36.510  0.00  0.00     0.067 A 
ATOM      9  H1  244 d   1      32.639  37.199  34.783  0.00  0.00     0.088 H 
ATOM     10  C5  244 d   1      32.630  35.374  37.726  0.00  0.00    -0.038 A 
ATOM     11  C4  244 d   1      31.287  35.601  38.151  0.00  0.00     0.004 A 
ATOM     12  H2  244 d   1      33.289  34.759  38.328  0.00  0.00     0.089 H 
ATOM     13  C3  244 d   1      30.437  36.431  37.315  0.00  0.00     0.093 A 
ATOM     14  C11 244 d   1      30.527  35.187  39.275  0.00  0.00    -0.037 A 
ATOM     15  O9  244 d   1      29.209  36.518  37.902  0.00  0.00    -0.308 OA
ATOM     16  C10 244 d   1      29.270  35.792  39.047  0.00  0.00     0.087 A 
ATOM     17  H3  244 d   1      30.836  34.558  40.108  0.00  0.00     0.089 H 
BRANCH   8  18
ATOM     18  O12 244 d   1      34.397  35.739  36.100  0.00  0.00    -0.361 OA
ATOM     19  H4  244 d   1      34.546  36.194  35.279  0.00  0.00     0.217 HD
ENDBRANCH   8  18
BRANCH  16  20
ATOM     20  C18 244 d   1      28.068  35.712  39.948  0.00  0.00    -0.002 A 
ATOM     21  C19 244 d   1      26.795  36.143  39.423  0.00  0.00    -0.068 A 
ATOM     22  C20 244 d   1      25.626  36.115  40.241  0.00  0.00    -0.050 A 
ATOM     23  H7  244 d   1      26.726  36.491  38.399  0.00  0.00     0.085 H 
ATOM     24  C21 244 d   1      25.722  35.659  41.584  0.00  0.00     0.065 A 
ATOM     25  H8  244 d   1      24.672  36.439  39.841  0.00  0.00     0.087 H 
ATOM     26  C22 244 d   1      26.981  35.223  42.129  0.00  0.00    -0.050 A 
ATOM     27  C23 244 d   1      28.156  35.250  41.313  0.00  0.00    -0.068 A 
ATOM     28  H9  244 d   1      27.039  34.875  43.154  0.00  0.00     0.087 H 
ATOM     29  H10 244 d   1      29.108  34.925  41.718  0.00  0.00     0.085 H 
BRANCH  24  30
ATOM     30  O28 244 d   1      24.583  35.643  42.361  0.00  0.00    -0.361 OA
ATOM     31  H11 244 d   1      24.410  34.755  42.649  0.00  0.00     0.217 HD
ENDBRANCH  24  30
ENDBRANCH  16  20
ENDBRANCH   1   6
TORSDOF 4
