REMARK  7 active torsions:
REMARK  status: ('A' for Active; 'I' for Inactive)
REMARK    1  A    between atoms: N1_10  and  C4_4 
REMARK    2  A    between atoms: C6_6  and  C20_7 
REMARK    3  A    between atoms: C20_7  and  N3_8 
REMARK    4  A    between atoms: N5_12  and  C7_13 
REMARK       I    between atoms: C8_26  and  N5_12 
REMARK    5  A    between atoms: C16_16  and  N7_17 
REMARK    6  A    between atoms: C13_24  and  C8_26 
REMARK    7  A    between atoms: C10_27  and  C11_29 
ROOT
ATOM      1  N5  187 d   1      72.657  17.099  53.926  0.00  0.00    -0.319 N 
ATOM      2  C8  187 d   1      72.119  18.261  53.877  0.00  0.00     0.275 C 
ATOM      3  O3  187 d   1      71.716  18.801  54.901  0.00  0.00    -0.266 OA
ATOM      4  H9  187 d   1      73.146  16.720  53.140  0.00  0.00     0.169 HD
ENDROOT
BRANCH   2   5
ATOM      5  C13 187 d   1      71.935  18.905  52.696  0.00  0.00     0.129 A 
ATOM      6  N1  187 d   1      71.081  19.944  52.505  0.00  0.00    -0.228 N 
ATOM      7  N6  187 d   1      71.284  20.378  51.243  0.00  0.00    -0.162 NA
ATOM      8  C10 187 d   1      72.215  19.667  50.586  0.00  0.00     0.163 A 
ATOM      9  C12 187 d   1      72.685  18.666  51.507  0.00  0.00    -0.015 A 
ATOM     10  H14 187 d   1      73.441  17.901  51.335  0.00  0.00     0.091 H 
BRANCH   6  11
ATOM     11  C4  187 d   1      70.108  20.460  53.433  0.00  0.00     0.060 A 
ATOM     12  C3  187 d   1      70.496  21.342  54.483  0.00  0.00    -0.055 A 
ATOM     13  C2  187 d   1      69.575  22.049  55.295  0.00  0.00    -0.080 A 
ATOM     14  H3  187 d   1      71.555  21.480  54.671  0.00  0.00     0.087 H 
ATOM     15  C1  187 d   1      68.218  21.885  55.054  0.00  0.00    -0.069 A 
ATOM     16  H2  187 d   1      69.922  22.703  56.087  0.00  0.00     0.083 H 
ATOM     17  C6  187 d   1      67.779  20.986  54.074  0.00  0.00     0.009 A 
ATOM     18  H1  187 d   1      67.495  22.455  55.627  0.00  0.00     0.085 H 
ATOM     19  C5  187 d   1      68.701  20.267  53.281  0.00  0.00    -0.042 A 
ATOM     20  H4  187 d   1      68.335  19.559  52.547  0.00  0.00     0.088 H 
BRANCH  17  21
ATOM     21  C20 187 d   1      66.317  20.718  53.946  0.00  0.00     0.102 C 
ATOM     22  N4  187 d   1      65.398  21.527  54.537  0.00  0.00    -0.385 N 
ATOM     23  H7  187 d   1      65.706  22.356  55.066  0.00  0.00     0.157 HD
ATOM     24  H8  187 d   1      64.394  21.311  54.456  0.00  0.00     0.157 HD
BRANCH  21  25
ATOM     25  N3  187 d   1      65.987  19.630  53.247  0.00  0.00    -0.385 N 
ATOM     26  H5  187 d   1      64.996  19.382  53.117  0.00  0.00     0.157 HD
ATOM     27  H6  187 d   1      66.724  19.038  52.837  0.00  0.00     0.157 HD
ENDBRANCH  21  25
ENDBRANCH  17  21
ENDBRANCH   6  11
BRANCH   8  28
ATOM     28  C11 187 d   1      72.554  19.883  49.119  0.00  0.00     0.436 C 
ATOM     29  F1  187 d   1      71.841  20.727  48.468  0.00  0.00    -0.165 F 
ATOM     30  F3  187 d   1      72.591  18.801  48.444  0.00  0.00    -0.165 F 
ATOM     31  F2  187 d   1      73.691  20.397  49.105  0.00  0.00    -0.165 F 
ENDBRANCH   8  28
ENDBRANCH   2   5
BRANCH   1  32
ATOM     32  C7  187 d   1      72.535  16.380  55.119  0.00  0.00     0.074 A 
ATOM     33  C44 187 d   1      72.067  15.070  55.034  0.00  0.00     0.145 A 
ATOM     34  C14 187 d   1      72.087  14.237  56.191  0.00  0.00    -0.017 A 
ATOM     35  F4  187 d   1      71.651  14.695  53.854  0.00  0.00    -0.204 F 
ATOM     36  C16 187 d   1      72.561  14.769  57.425  0.00  0.00     0.043 A 
ATOM     37  H10 187 d   1      71.745  13.210  56.133  0.00  0.00     0.091 H 
ATOM     38  C18 187 d   1      73.041  16.101  57.509  0.00  0.00    -0.054 A 
ATOM     39  C22 187 d   1      73.008  16.903  56.355  0.00  0.00    -0.052 A 
ATOM     40  H11 187 d   1      73.425  16.492  58.444  0.00  0.00     0.087 H 
ATOM     41  H12 187 d   1      73.347  17.931  56.407  0.00  0.00     0.087 H 
BRANCH  36  42
ATOM     42  N7  187 d   1      72.250  14.169  58.575  0.00  0.00    -0.304 N 
ATOM     43  C9  187 d   1      72.887  14.185  59.786  0.00  0.00     0.069 A 
ATOM     44  C23 187 d   1      71.957  13.497  60.732  0.00  0.00     0.085 A 
ATOM     45  C27 187 d   1      74.133  14.587  60.248  0.00  0.00    -0.054 A 
ATOM     46  N2  187 d   1      70.865  13.219  59.990  0.00  0.00    -0.241 NA
ATOM     47  C17 187 d   1      72.303  13.176  62.060  0.00  0.00    -0.053 A 
ATOM     48  C15 187 d   1      71.050  13.597  58.704  0.00  0.00     0.072 A 
ATOM     49  H13 187 d   1      70.331  13.457  57.898  0.00  0.00     0.144 H 
ATOM     50  C21 187 d   1      73.574  13.536  62.482  0.00  0.00    -0.081 A 
ATOM     51  H15 187 d   1      71.608  12.671  62.721  0.00  0.00     0.087 H 
ATOM     52  C25 187 d   1      74.456  14.239  61.594  0.00  0.00    -0.081 A 
ATOM     53  H16 187 d   1      73.902  13.286  63.484  0.00  0.00     0.083 H 
ATOM     54  H17 187 d   1      75.432  14.524  61.971  0.00  0.00     0.083 H 
ATOM     55  H18 187 d   1      74.824  15.136  59.619  0.00  0.00     0.087 H 
ENDBRANCH  36  42
ENDBRANCH   1  32
TORSDOF 7
