REMARK  4 active torsions:
REMARK  status: ('A' for Active; 'I' for Inactive)
REMARK    1  A    between atoms: C2_2  and  C24_19 
REMARK    2  A    between atoms: C6_6  and  O21_16 
REMARK    3  A    between atoms: C10_8  and  C12_10 
REMARK    4  A    between atoms: C15_13  and  O23_18 
ROOT
ATOM      1  C1  041 d   1      32.640  37.617  35.801  0.00  0.00    -0.038 A 
ATOM      2  C2  041 d   1      31.321  37.916  36.274  0.00  0.00     0.002 A 
ATOM      3  C3  041 d   1      30.800  37.170  37.360  0.00  0.00     0.117 A 
ATOM      4  C4  041 d   1      31.558  36.115  38.004  0.00  0.00     0.097 A 
ATOM      5  C5  041 d   1      32.868  35.830  37.521  0.00  0.00    -0.020 A 
ATOM      6  C6  041 d   1      33.409  36.577  36.423  0.00  0.00     0.068 A 
ATOM      7  O9  041 d   1      29.610  37.245  37.995  0.00  0.00    -0.288 OA
ATOM      8  C10 041 d   1      29.581  36.317  38.984  0.00  0.00     0.181 A 
ATOM      9  N11 041 d   1      30.754  35.609  39.015  0.00  0.00    -0.221 NA
ATOM     10  H1  041 d   1      33.058  38.177  34.972  0.00  0.00     0.089 H 
ATOM     11  H2  041 d   1      33.457  35.047  37.985  0.00  0.00     0.091 H 
ENDROOT
BRANCH   8  12
ATOM     12  C12 041 d   1      28.406  36.163  39.887  0.00  0.00     0.020 A 
ATOM     13  C13 041 d   1      28.548  35.562  41.189  0.00  0.00    -0.066 A 
ATOM     14  C14 041 d   1      27.428  35.437  42.062  0.00  0.00    -0.047 A 
ATOM     15  H3  041 d   1      29.519  35.200  41.509  0.00  0.00     0.085 H 
ATOM     16  C15 041 d   1      26.153  35.925  41.619  0.00  0.00     0.104 A 
ATOM     17  H4  041 d   1      27.537  34.983  43.040  0.00  0.00     0.087 H 
ATOM     18  C16 041 d   1      26.023  36.521  40.323  0.00  0.00     0.150 A 
ATOM     19  C17 041 d   1      27.130  36.645  39.454  0.00  0.00    -0.029 A 
ATOM     20  F22 041 d   1      24.809  36.964  39.961  0.00  0.00    -0.203 F 
ATOM     21  H5  041 d   1      27.015  37.098  38.476  0.00  0.00     0.089 H 
BRANCH  16  22
ATOM     22  O23 041 d   1      25.073  35.811  42.462  0.00  0.00    -0.358 OA
ATOM     23  H7  041 d   1      25.346  35.394  43.271  0.00  0.00     0.217 HD
ENDBRANCH  16  22
ENDBRANCH   8  12
BRANCH   2  24
ATOM     24  C24 041 d   1      30.507  38.999  35.634  0.00  0.00    -0.079 C 
ATOM     25  C25 041 d   1      29.648  39.833  36.275  0.00  0.00    -0.120 C 
ATOM     26  H9  041 d   1      29.103  40.590  35.713  0.00  0.00     0.066 H 
ATOM     27  H10 041 d   1      29.505  39.745  37.351  0.00  0.00     0.066 H 
ATOM     28  H8  041 d   1      30.614  39.129  34.558  0.00  0.00     0.083 H 
ENDBRANCH   2  24
BRANCH   6  29
ATOM     29  O21 041 d   1      34.679  36.313  35.955  0.00  0.00    -0.361 OA
ATOM     30  H6  041 d   1      34.876  36.895  35.231  0.00  0.00     0.217 HD
ENDBRANCH   6  29
TORSDOF 4
