REMARK  4 active torsions:
REMARK  status: ('A' for Active; 'I' for Inactive)
REMARK    1  A    between atoms: C2_2  and  C13_11 
REMARK    2  A    between atoms: C6_6  and  O12_10 
REMARK    3  A    between atoms: C10_8  and  C18_14 
REMARK    4  A    between atoms: C21_17  and  O28_20 
ROOT
ATOM      1  C13 244 d   1      23.277  17.801  24.228  0.00  0.00     0.041 C 
ATOM      2  C14 244 d   1      23.971  16.507  23.989  0.00  0.00     0.063 C 
ATOM      3  N17 244 d   1      24.563  15.532  23.823  0.00  0.00    -0.197 NA
ATOM      4  H5  244 d   1      22.888  18.168  23.267  0.00  0.00     0.062 H 
ATOM      5  H6  244 d   1      22.439  17.622  24.918  0.00  0.00     0.062 H 
ENDROOT
BRANCH   1   6
ATOM      6  C2  244 d   1      24.180  18.892  24.834  0.00  0.00    -0.008 A 
ATOM      7  C1  244 d   1      23.751  19.578  26.037  0.00  0.00    -0.041 A 
ATOM      8  C6  244 d   1      24.588  20.610  26.613  0.00  0.00     0.067 A 
ATOM      9  H1  244 d   1      22.807  19.320  26.504  0.00  0.00     0.088 H 
ATOM     10  C5  244 d   1      25.853  20.961  25.992  0.00  0.00    -0.038 A 
ATOM     11  C4  244 d   1      26.297  20.286  24.792  0.00  0.00     0.004 A 
ATOM     12  H2  244 d   1      26.470  21.736  26.432  0.00  0.00     0.089 H 
ATOM     13  C3  244 d   1      25.435  19.242  24.223  0.00  0.00     0.093 A 
ATOM     14  C11 244 d   1      27.437  20.389  23.972  0.00  0.00    -0.037 A 
ATOM     15  O9  244 d   1      26.043  18.745  23.112  0.00  0.00    -0.308 OA
ATOM     16  C10 244 d   1      27.208  19.408  22.963  0.00  0.00     0.087 A 
ATOM     17  H3  244 d   1      28.289  21.058  24.082  0.00  0.00     0.089 H 
BRANCH   8  18
ATOM     18  O12 244 d   1      24.164  21.253  27.750  0.00  0.00    -0.361 OA
ATOM     19  H4  244 d   1      23.323  20.900  28.017  0.00  0.00     0.217 HD
ENDBRANCH   8  18
BRANCH  16  20
ATOM     20  C18 244 d   1      28.119  19.082  21.799  0.00  0.00    -0.002 A 
ATOM     21  C19 244 d   1      27.577  18.283  20.702  0.00  0.00    -0.068 A 
ATOM     22  C20 244 d   1      28.386  17.957  19.558  0.00  0.00    -0.050 A 
ATOM     23  H7  244 d   1      26.553  17.932  20.751  0.00  0.00     0.085 H 
ATOM     24  C21 244 d   1      29.741  18.430  19.504  0.00  0.00     0.065 A 
ATOM     25  H8  244 d   1      27.979  17.363  18.748  0.00  0.00     0.087 H 
ATOM     26  C22 244 d   1      30.312  19.221  20.582  0.00  0.00    -0.050 A 
ATOM     27  C23 244 d   1      29.507  19.548  21.727  0.00  0.00    -0.068 A 
ATOM     28  H9  244 d   1      31.339  19.562  20.523  0.00  0.00     0.087 H 
ATOM     29  H10 244 d   1      29.925  20.137  22.535  0.00  0.00     0.085 H 
BRANCH  24  30
ATOM     30  O28 244 d   1      30.499  18.124  18.411  0.00  0.00    -0.361 OA
ATOM     31  H11 244 d   1      30.779  18.926  17.986  0.00  0.00     0.217 HD
ENDBRANCH  24  30
ENDBRANCH  16  20
ENDBRANCH   1   6
TORSDOF 4
