REMARK WARNING: 32 MAX_TORS EXCEEDED!!!
REMARK  36 active torsions:
REMARK  status: ('A' for Active; 'I' for Inactive)
REMARK    1  A    between atoms: N_1  and  CA_2 
REMARK    2  A    between atoms: CA_2  and  C_3 
REMARK    3  A    between atoms: CA_2  and  CB_5 
REMARK       I    between atoms: C_3  and  N_10 
REMARK    4  A    between atoms: CB_5  and  CG_6 
REMARK    5  A    between atoms: CG_6  and  CD_7 
REMARK    6  A    between atoms: CD_7  and  CE_8 
REMARK    7  A    between atoms: CE_8  and  NZ_9 
REMARK    8  A    between atoms: N_10  and  CA_11 
REMARK    9  A    between atoms: CA_11  and  C_12 
REMARK   10  A    between atoms: CA_11  and  CB_14 
REMARK       I    between atoms: C_12  and  N_17 
REMARK   11  A    between atoms: CB_14  and  OG1_15 
REMARK   12  A    between atoms: CB_14  and  CG2_16 
REMARK   13  A    between atoms: N_17  and  CA_18 
REMARK   14  A    between atoms: CA_18  and  C_19 
REMARK   15  A    between atoms: CA_18  and  CB_21 
REMARK       I    between atoms: C_19  and  N_28 
REMARK   16  A    between atoms: CB_21  and  CG_22 
REMARK   17  A    between atoms: CA_29  and  C_30 
REMARK       I    between atoms: C_30  and  N_35 
REMARK   18  A    between atoms: CA_36  and  C_37 
REMARK       I    between atoms: C_37  and  N_42 
REMARK   19  A    between atoms: N_42  and  CA_43 
REMARK   20  A    between atoms: CA_43  and  C_44 
REMARK   21  A    between atoms: CA_43  and  CB_46 
REMARK       I    between atoms: C_44  and  N_49 
REMARK   22  A    between atoms: CB_46  and  OG1_47 
REMARK   23  A    between atoms: CB_46  and  CG2_48 
REMARK   24  A    between atoms: N_49  and  CA_50 
REMARK   25  A    between atoms: CA_50  and  C_51 
REMARK   26  A    between atoms: CA_50  and  CB_53 
REMARK       I    between atoms: C_51  and  N_58 
REMARK   27  A    between atoms: CB_53  and  CG_54 
REMARK   28  A    between atoms: CG_54  and  CD_55 
REMARK   29  A    between atoms: CA_59  and  C_60 
REMARK       I    between atoms: C_60  and  N_65 
REMARK   30  A    between atoms: N_65  and  CA_66 
REMARK   31  A    between atoms: CA_66  and  C_67 
REMARK   32  A    between atoms: CA_66  and  CB_69 
REMARK   33  A    between atoms: CB_69  and  CG_70 
REMARK   34  A    between atoms: CG_70  and  CD_71 
REMARK   35  A    between atoms: CD_71  and  CE_72 
REMARK   36  A    between atoms: CE_72  and  NZ_73 
ROOT
ATOM      1  C   PRO d   1       1.046  52.307  38.667  0.00  0.00     0.243 C 
ATOM      2  O   PRO d   1       1.475  51.933  39.738  0.00  0.00    -0.271 OA
ATOM      3  N   PRO d   1       1.449  53.444  38.118  0.00  0.00    -0.337 N 
ATOM      4  CA  PRO d   1       2.453  54.271  38.803  0.00  0.00     0.091 C 
ATOM      5  CB  PRO d   1       2.539  55.506  37.909  0.00  0.00    -0.036 C 
ATOM      6  CG  PRO d   1       1.905  55.147  36.631  0.00  0.00    -0.048 C 
ATOM      7  CD  PRO d   1       1.007  53.949  36.807  0.00  0.00    -0.001 C 
ATOM      8  H39 PRO d   1       3.420  53.748  38.822  0.00  0.00     0.087 H 
ATOM      9  H40 PRO d   1       3.591  55.783  37.746  0.00  0.00     0.036 H 
ATOM     10  H41 PRO d   1       2.005  56.348  38.373  0.00  0.00     0.036 H 
ATOM     11  H42 PRO d   1       2.686  54.909  35.894  0.00  0.00     0.035 H 
ATOM     12  H43 PRO d   1       1.308  55.998  36.271  0.00  0.00     0.035 H 
ATOM     13  H44 PRO d   1      -0.053  54.240  36.825  0.00  0.00     0.064 H 
ATOM     14  H45 PRO d   1       1.169  53.205  36.014  0.00  0.00     0.064 H 
ENDROOT
BRANCH   1  15
ATOM     15  CA  PRO d   1       0.099  51.428  37.852  0.00  0.00     0.092 C 
ATOM     16  N   PRO d   1       0.080  50.051  38.349  0.00  0.00    -0.337 N 
ATOM     17  C   PHE d   1       1.182  49.297  38.323  0.00  0.00     0.243 C 
ATOM     18  CD  PRO d   1      -1.268  49.639  38.793  0.00  0.00    -0.001 C 
ATOM     19  O   PHE d   1       2.190  49.797  37.801  0.00  0.00    -0.271 OA
ATOM     20  CG  PRO d   1      -2.148  50.777  38.420  0.00  0.00    -0.048 C 
ATOM     21  H37 PRO d   1      -1.286  49.474  39.880  0.00  0.00     0.064 H 
ATOM     22  H38 PRO d   1      -1.583  48.719  38.278  0.00  0.00     0.064 H 
ATOM     23  CB  PRO d   1      -1.300  51.933  38.041  0.00  0.00    -0.036 C 
ATOM     24  H35 PRO d   1      -2.783  50.490  37.569  0.00  0.00     0.035 H 
ATOM     25  H36 PRO d   1      -2.783  51.049  39.276  0.00  0.00     0.035 H 
ATOM     26  H33 PRO d   1      -1.668  52.377  37.104  0.00  0.00     0.036 H 
ATOM     27  H34 PRO d   1      -1.321  52.690  38.838  0.00  0.00     0.036 H 
ATOM     28  H32 PRO d   1       0.389  51.451  36.791  0.00  0.00     0.087 H 
BRANCH  17  29
ATOM     29  CA  PHE d   1       1.248  47.881  38.865  0.00  0.00     0.093 C 
ATOM     30  H24 PHE d   1       0.227  47.504  39.026  0.00  0.00     0.088 H 
BRANCH  29  31
ATOM     31  N   PHE d   1       1.959  47.035  37.907  0.00  0.00    -0.346 N 
ATOM     32  C   THR d   1       1.367  46.408  36.904  0.00  0.00     0.243 C 
ATOM     33  O   THR d   1       0.137  46.284  36.815  0.00  0.00    -0.271 OA
ATOM     34  H23 PHE d   1       2.947  46.925  38.016  0.00  0.00     0.163 HD
BRANCH  32  35
ATOM     35  CA  THR d   1       2.322  45.814  35.873  0.00  0.00     0.113 C 
ATOM     36  H17 THR d   1       3.191  45.397  36.404  0.00  0.00     0.091 H 
BRANCH  35  37
ATOM     37  N   THR d   1       1.713  44.737  35.100  0.00  0.00    -0.344 N 
ATOM     38  C   LYS d   1       1.452  43.534  35.605  0.00  0.00     0.249 C 
ATOM     39  O   LYS d   1       1.616  43.200  36.780  0.00  0.00    -0.271 OA
ATOM     40  H16 THR d   1       1.480  44.911  34.143  0.00  0.00     0.163 HD
BRANCH  38  41
ATOM     41  CA  LYS d   1       0.873  42.535  34.604  0.00  0.00     0.176 C 
ATOM     42  H4  LYS d   1       1.101  42.872  33.582  0.00  0.00     0.099 H 
BRANCH  41  43
ATOM     43  N   LYS d   1       1.424  41.208  34.788  0.00  0.00    -0.067 N 
ATOM     44  H1  LYS d   1       1.019  40.579  34.112  0.00  0.00     0.275 HD
ATOM     45  H2  LYS d   1       1.212  40.882  35.718  0.00  0.00     0.275 HD
ATOM     46  H3  LYS d   1       2.424  41.239  34.662  0.00  0.00     0.275 HD
ENDBRANCH  41  43
BRANCH  41  47
ATOM     47  CB  LYS d   1      -0.633  42.515  34.810  0.00  0.00    -0.030 C 
ATOM     48  H5  LYS d   1      -0.967  43.528  35.080  0.00  0.00     0.036 H 
ATOM     49  H6  LYS d   1      -0.869  41.820  35.630  0.00  0.00     0.036 H 
BRANCH  47  50
ATOM     50  CG  LYS d   1      -1.377  42.072  33.566  0.00  0.00    -0.061 C 
ATOM     51  H7  LYS d   1      -1.292  40.979  33.474  0.00  0.00     0.033 H 
ATOM     52  H8  LYS d   1      -0.916  42.551  32.689  0.00  0.00     0.033 H 
BRANCH  50  53
ATOM     53  CD  LYS d   1      -2.838  42.443  33.609  0.00  0.00    -0.043 C 
ATOM     54  H9  LYS d   1      -2.935  43.536  33.680  0.00  0.00     0.035 H 
ATOM     55  H10 LYS d   1      -3.308  41.975  34.486  0.00  0.00     0.035 H 
BRANCH  53  56
ATOM     56  CE  LYS d   1      -3.533  41.953  32.339  0.00  0.00     0.080 C 
ATOM     57  H11 LYS d   1      -3.533  40.853  32.320  0.00  0.00     0.075 H 
ATOM     58  H12 LYS d   1      -2.999  42.335  31.456  0.00  0.00     0.075 H 
BRANCH  56  59
ATOM     59  NZ  LYS d   1      -4.954  42.458  32.328  0.00  0.00    -0.079 N 
ATOM     60  H13 LYS d   1      -5.418  42.138  31.492  0.00  0.00     0.274 HD
ATOM     61  H14 LYS d   1      -4.953  43.466  32.346  0.00  0.00     0.274 HD
ATOM     62  H15 LYS d   1      -5.441  42.108  33.138  0.00  0.00     0.274 HD
ENDBRANCH  56  59
ENDBRANCH  53  56
ENDBRANCH  50  53
ENDBRANCH  47  50
ENDBRANCH  41  47
ENDBRANCH  38  41
ENDBRANCH  35  37
BRANCH  35  63
ATOM     63  CB  THR d   1       2.800  46.942  34.966  0.00  0.00     0.060 C 
ATOM     64  H18 THR d   1       3.070  47.802  35.597  0.00  0.00     0.086 H 
BRANCH  63  65
ATOM     65  OG1 THR d   1       1.734  47.336  34.073  0.00  0.00    -0.393 OA
ATOM     66  H19 THR d   1       1.476  46.592  33.541  0.00  0.00     0.210 HD
ENDBRANCH  63  65
BRANCH  63  67
ATOM     67  CG2 THR d   1       4.016  46.544  34.157  0.00  0.00    -0.050 C 
ATOM     68  H20 THR d   1       4.324  47.386  33.520  0.00  0.00     0.031 H 
ATOM     69  H21 THR d   1       3.769  45.678  33.526  0.00  0.00     0.031 H 
ATOM     70  H22 THR d   1       4.839  46.279  34.838  0.00  0.00     0.031 H 
ENDBRANCH  63  67
ENDBRANCH  35  63
ENDBRANCH  32  35
ENDBRANCH  29  31
BRANCH  29  71
ATOM     71  CB  PHE d   1       2.033  47.817  40.163  0.00  0.00    -0.014 C 
ATOM     72  H25 PHE d   1       3.052  48.172  39.948  0.00  0.00     0.043 H 
ATOM     73  H26 PHE d   1       2.070  46.762  40.472  0.00  0.00     0.043 H 
BRANCH  71  74
ATOM     74  CG  PHE d   1       1.516  48.617  41.346  0.00  0.00    -0.056 A 
ATOM     75  CD1 PHE d   1       0.237  48.408  41.826  0.00  0.00    -0.077 A 
ATOM     76  CE1 PHE d   1      -0.269  49.122  42.910  0.00  0.00    -0.082 A 
ATOM     77  H27 PHE d   1      -0.391  47.667  41.345  0.00  0.00     0.084 H 
ATOM     78  CZ  PHE d   1       0.544  50.052  43.533  0.00  0.00    -0.083 A 
ATOM     79  H29 PHE d   1      -1.281  48.952  43.259  0.00  0.00     0.083 H 
ATOM     80  CE2 PHE d   1       1.827  50.285  43.057  0.00  0.00    -0.082 A 
ATOM     81  H31 PHE d   1       0.179  50.600  44.394  0.00  0.00     0.083 H 
ATOM     82  CD2 PHE d   1       2.306  49.576  41.981  0.00  0.00    -0.077 A 
ATOM     83  H30 PHE d   1       2.454  51.029  43.536  0.00  0.00     0.083 H 
ATOM     84  H28 PHE d   1       3.311  49.764  41.621  0.00  0.00     0.084 H 
ENDBRANCH  71  74
ENDBRANCH  29  71
ENDBRANCH  17  29
ENDBRANCH   1  15
BRANCH   4  85
ATOM     85  C   PRO d   1       2.079  54.620  40.231  0.00  0.00     0.241 C 
ATOM     86  O   PRO d   1       0.951  54.962  40.556  0.00  0.00    -0.271 OA
ATOM     87  N   THR d   1       3.008  54.517  41.197  0.00  0.00    -0.344 N 
ATOM     88  H46 THR d   1       3.928  54.176  41.002  0.00  0.00     0.163 HD
BRANCH  87  89
ATOM     89  CA  THR d   1       2.618  54.924  42.543  0.00  0.00     0.113 C 
ATOM     90  H47 THR d   1       1.548  54.707  42.677  0.00  0.00     0.091 H 
BRANCH  89  91
ATOM     91  C   THR d   1       2.838  56.430  42.721  0.00  0.00     0.243 C 
ATOM     92  O   THR d   1       3.155  57.183  41.781  0.00  0.00    -0.271 OA
ATOM     93  N   GLU d   1       2.598  56.890  43.953  0.00  0.00    -0.346 N 
ATOM     94  H53 GLU d   1       2.443  56.213  44.673  0.00  0.00     0.163 HD
BRANCH  93  95
ATOM     95  CA  GLU d   1       2.544  58.279  44.331  0.00  0.00     0.090 C 
ATOM     96  H54 GLU d   1       1.774  58.768  43.717  0.00  0.00     0.087 H 
BRANCH  95  97
ATOM     97  C   GLU d   1       3.910  58.898  43.993  0.00  0.00     0.243 C 
ATOM     98  O   GLU d   1       4.952  58.253  44.153  0.00  0.00    -0.271 OA
ATOM     99  N   PRO d   1       3.921  60.126  43.535  0.00  0.00    -0.337 N 
ATOM    100  CA  PRO d   1       5.198  60.815  43.349  0.00  0.00     0.091 C 
ATOM    101  CD  PRO d   1       2.806  60.997  43.102  0.00  0.00    -0.001 C 
ATOM    102  CB  PRO d   1       4.772  62.219  42.888  0.00  0.00    -0.036 C 
ATOM    103  H59 PRO d   1       5.796  60.316  42.572  0.00  0.00     0.087 H 
ATOM    104  CG  PRO d   1       3.498  61.915  42.131  0.00  0.00    -0.048 C 
ATOM    105  H60 PRO d   1       5.530  62.674  42.233  0.00  0.00     0.036 H 
ATOM    106  H61 PRO d   1       4.582  62.883  43.744  0.00  0.00     0.036 H 
ATOM    107  H62 PRO d   1       3.705  61.411  41.175  0.00  0.00     0.035 H 
ATOM    108  H63 PRO d   1       2.910  62.826  41.946  0.00  0.00     0.035 H 
ATOM    109  H64 PRO d   1       2.381  61.556  43.949  0.00  0.00     0.064 H 
ATOM    110  H65 PRO d   1       2.012  60.417  42.609  0.00  0.00     0.064 H 
BRANCH 100 111
ATOM    111  C   PRO d   1       6.011  60.871  44.637  0.00  0.00     0.241 C 
ATOM    112  O   PRO d   1       5.496  60.903  45.754  0.00  0.00    -0.271 OA
ATOM    113  N   LYS d   1       7.328  60.910  44.454  0.00  0.00    -0.345 N 
ATOM    114  H66 LYS d   1       7.671  60.880  43.515  0.00  0.00     0.163 HD
BRANCH 113 115
ATOM    115  CA  LYS d   1       8.301  60.993  45.532  0.00  0.00     0.096 C 
ATOM    116  H67 LYS d   1       7.983  60.302  46.327  0.00  0.00     0.089 H 
BRANCH 115 117
ATOM    117  C   LYS d   1       8.405  62.383  46.154  0.00  0.00     0.196 C 
ATOM    118  O   LYS d   1       9.034  62.490  47.262  0.00  0.00    -0.646 OA
ATOM    119  OXT LYS d   1       7.860  63.326  45.533  0.00  0.00    -0.646 OA
ENDBRANCH 115 117
BRANCH 115 120
ATOM    120  CB  LYS d   1       9.665  60.516  44.993  0.00  0.00    -0.037 C 
ATOM    121  H68 LYS d   1      10.450  60.751  45.727  0.00  0.00     0.036 H 
ATOM    122  H69 LYS d   1       9.883  61.031  44.045  0.00  0.00     0.036 H 
BRANCH 120 123
ATOM    123  CG  LYS d   1       9.630  58.988  44.751  0.00  0.00    -0.061 C 
ATOM    124  H70 LYS d   1       8.800  58.757  44.067  0.00  0.00     0.033 H 
ATOM    125  H71 LYS d   1       9.464  58.481  45.713  0.00  0.00     0.033 H 
BRANCH 123 126
ATOM    126  CD  LYS d   1      10.918  58.474  44.145  0.00  0.00    -0.043 C 
ATOM    127  H72 LYS d   1      11.770  58.967  44.636  0.00  0.00     0.035 H 
ATOM    128  H73 LYS d   1      10.929  58.707  43.070  0.00  0.00     0.035 H 
BRANCH 126 129
ATOM    129  CE  LYS d   1      11.036  56.981  44.330  0.00  0.00     0.080 C 
ATOM    130  H74 LYS d   1      10.284  56.658  45.065  0.00  0.00     0.075 H 
ATOM    131  H75 LYS d   1      12.043  56.753  44.711  0.00  0.00     0.075 H 
BRANCH 129 132
ATOM    132  NZ  LYS d   1      10.831  56.251  43.118  0.00  0.00    -0.079 N 
ATOM    133  H76 LYS d   1      10.921  55.264  43.301  0.00  0.00     0.274 HD
ATOM    134  H77 LYS d   1      11.519  56.531  42.437  0.00  0.00     0.274 HD
ATOM    135  H78 LYS d   1       9.908  56.444  42.762  0.00  0.00     0.274 HD
ENDBRANCH 129 132
ENDBRANCH 126 129
ENDBRANCH 123 126
ENDBRANCH 120 123
ENDBRANCH 115 120
ENDBRANCH 113 115
ENDBRANCH 100 111
ENDBRANCH  95  97
BRANCH  95 136
ATOM    136  CB  GLU d   1       2.177  58.531  45.813  0.00  0.00    -0.029 C 
ATOM    137  H55 GLU d   1       2.907  59.228  46.250  0.00  0.00     0.037 H 
ATOM    138  H56 GLU d   1       2.209  57.576  46.358  0.00  0.00     0.037 H 
BRANCH 136 139
ATOM    139  CG  GLU d   1       0.771  59.134  45.941  0.00  0.00     0.018 C 
ATOM    140  H57 GLU d   1       0.250  58.646  46.778  0.00  0.00     0.049 H 
ATOM    141  H58 GLU d   1       0.219  58.949  45.008  0.00  0.00     0.049 H 
BRANCH 139 142
ATOM    142  CD  GLU d   1       0.814  60.626  46.196  0.00  0.00     0.172 C 
ATOM    143  OE1 GLU d   1       1.407  61.070  47.211  0.00  0.00    -0.648 OA
ATOM    144  OE2 GLU d   1       0.269  61.420  45.399  0.00  0.00    -0.648 OA
ENDBRANCH 139 142
ENDBRANCH 136 139
ENDBRANCH  95 136
ENDBRANCH  93  95
ENDBRANCH  89  91
BRANCH  89 145
ATOM    145  CB  THR d   1       3.410  54.142  43.603  0.00  0.00     0.060 C 
ATOM    146  H48 THR d   1       3.559  53.107  43.261  0.00  0.00     0.086 H 
BRANCH 145 147
ATOM    147  OG1 THR d   1       2.713  54.119  44.848  0.00  0.00    -0.393 OA
ATOM    148  H49 THR d   1       3.221  53.631  45.485  0.00  0.00     0.210 HD
ENDBRANCH 145 147
BRANCH 145 149
ATOM    149  CG2 THR d   1       4.762  54.829  43.751  0.00  0.00    -0.050 C 
ATOM    150  H50 THR d   1       5.363  54.298  44.504  0.00  0.00     0.031 H 
ATOM    151  H51 THR d   1       4.611  55.871  44.071  0.00  0.00     0.031 H 
ATOM    152  H52 THR d   1       5.288  54.814  42.785  0.00  0.00     0.031 H 
ENDBRANCH 145 149
ENDBRANCH  89 145
ENDBRANCH  87  89
ENDBRANCH   4  85
TORSDOF 36
