REMARK  4 active torsions:
REMARK  status: ('A' for Active; 'I' for Inactive)
REMARK    1  A    between atoms: C2_2  and  O2_3 
REMARK    2  A    between atoms: C4_5  and  O4_6 
REMARK    3  A    between atoms: C7_10  and  C11_14 
REMARK    4  A    between atoms: C14_17  and  O14_18 
ROOT
ATOM      1  C1  GEN d   1      17.154  31.920  25.815  0.00  0.00    -0.017 A 
ATOM      2  C2  GEN d   1      17.707  33.197  26.103  0.00  0.00     0.071 A 
ATOM      3  C3  GEN d   1      17.704  34.304  25.193  0.00  0.00    -0.018 A 
ATOM      4  C4  GEN d   1      17.114  34.150  23.899  0.00  0.00     0.085 A 
ATOM      5  C5  GEN d   1      16.540  32.845  23.579  0.00  0.00     0.082 A 
ATOM      6  C6  GEN d   1      15.912  32.625  22.239  0.00  0.00     0.200 A 
ATOM      7  O6  GEN d   1      15.843  33.484  21.371  0.00  0.00    -0.286 OA
ATOM      8  C7  GEN d   1      15.358  31.214  22.027  0.00  0.00     0.048 A 
ATOM      9  C8  GEN d   1      15.441  30.234  23.030  0.00  0.00     0.034 A 
ATOM     10  O9  GEN d   1      16.036  30.474  24.296  0.00  0.00    -0.321 OA
ATOM     11  C10 GEN d   1      16.555  31.735  24.522  0.00  0.00     0.094 A 
ATOM     12  H1  GEN d   1      17.183  31.117  26.542  0.00  0.00     0.092 H 
ATOM     13  H3  GEN d   1      18.145  35.251  25.483  0.00  0.00     0.092 H 
ATOM     14  H5  GEN d   1      15.030  29.246  22.827  0.00  0.00     0.125 H 
ENDROOT
BRANCH   8  15
ATOM     15  C11 GEN d   1      14.682  30.712  20.719  0.00  0.00    -0.020 A 
ATOM     16  C12 GEN d   1      15.253  31.103  19.456  0.00  0.00    -0.069 A 
ATOM     17  C13 GEN d   1      14.608  30.573  18.294  0.00  0.00    -0.050 A 
ATOM     18  H6  GEN d   1      16.115  31.756  19.390  0.00  0.00     0.085 H 
ATOM     19  C14 GEN d   1      13.501  29.734  18.432  0.00  0.00     0.065 A 
ATOM     20  H7  GEN d   1      14.979  30.823  17.307  0.00  0.00     0.087 H 
ATOM     21  C15 GEN d   1      12.895  29.324  19.674  0.00  0.00    -0.050 A 
ATOM     22  C16 GEN d   1      13.535  29.851  20.872  0.00  0.00    -0.069 A 
ATOM     23  H9  GEN d   1      12.029  28.673  19.714  0.00  0.00     0.087 H 
ATOM     24  H10 GEN d   1      13.157  29.601  21.857  0.00  0.00     0.085 H 
BRANCH  19  25
ATOM     25  O14 GEN d   1      12.946  29.258  17.241  0.00  0.00    -0.361 OA
ATOM     26  H8  GEN d   1      12.203  28.700  17.440  0.00  0.00     0.217 HD
ENDBRANCH  19  25
ENDBRANCH   8  15
BRANCH   4  27
ATOM     27  O4  GEN d   1      17.082  35.189  22.988  0.00  0.00    -0.360 OA
ATOM     28  H4  GEN d   1      16.653  34.898  22.192  0.00  0.00     0.217 HD
ENDBRANCH   4  27
BRANCH   2  29
ATOM     29  O2  GEN d   1      18.278  33.332  27.367  0.00  0.00    -0.361 OA
ATOM     30  H2  GEN d   1      18.619  34.213  27.467  0.00  0.00     0.217 HD
ENDBRANCH   2  29
TORSDOF 4
