REMARK  7 active torsions:
REMARK  status: ('A' for Active; 'I' for Inactive)
REMARK    1  A    between atoms: C1_1  and  N1_2 
REMARK    2  A    between atoms: C4_6  and  C5_7 
REMARK    3  A    between atoms: C5_7  and  C6_8 
REMARK    4  A    between atoms: C5_7  and  N3_15 
REMARK    5  A    between atoms: C5_7  and  C12_16 
REMARK    6  A    between atoms: N4_22  and  C18_23 
REMARK    7  A    between atoms: C21_27  and  C22_28 
ROOT
ATOM      1  C12 JAN d   1      49.709  48.741  -1.414  0.00  0.00    -0.011 A 
ATOM      2  C13 JAN d   1      50.320  49.978  -1.179  0.00  0.00    -0.061 A 
ATOM      3  C14 JAN d   1      49.867  51.205  -1.671  0.00  0.00     0.003 A 
ATOM      4  C15 JAN d   1      48.497  48.741  -2.199  0.00  0.00    -0.071 A 
ATOM      5  C16 JAN d   1      47.954  49.932  -2.774  0.00  0.00    -0.056 A 
ATOM      6  C17 JAN d   1      48.540  51.190  -2.518  0.00  0.00     0.048 A 
ATOM      7  N4  JAN d   1      48.072  52.401  -3.062  0.00  0.00    -0.318 N 
ATOM      8  C19 JAN d   1      48.724  53.659  -2.790  0.00  0.00     0.248 A 
ATOM      9  O1  JAN d   1      48.298  54.725  -3.251  0.00  0.00    -0.268 OA
ATOM     10  C20 JAN d   1      49.896  53.650  -2.005  0.00  0.00    -0.006 A 
ATOM     11  C21 JAN d   1      50.475  52.461  -1.443  0.00  0.00    -0.008 A 
ATOM     12  H13 JAN d   1      51.215  49.985  -0.567  0.00  0.00     0.085 H 
ATOM     13  H14 JAN d   1      47.979  47.802  -2.358  0.00  0.00     0.084 H 
ATOM     14  H15 JAN d   1      47.082  49.868  -3.414  0.00  0.00     0.087 H 
ATOM     15  H19 JAN d   1      50.391  54.601  -1.813  0.00  0.00     0.093 H 
ENDROOT
BRANCH   1  16
ATOM     16  C5  JAN d   1      50.287  47.418  -0.821  0.00  0.00     0.221 C 
BRANCH  16  17
ATOM     17  C4  JAN d   1      50.767  46.535  -2.013  0.00  0.00     0.075 A 
ATOM     18  N1  JAN d   1      51.326  45.267  -1.780  0.00  0.00    -0.345 N 
ATOM     19  C2  JAN d   1      51.625  44.810  -3.030  0.00  0.00     0.065 A 
ATOM     20  N2  JAN d   1      51.340  45.630  -4.005  0.00  0.00    -0.254 NA
ATOM     21  H4  JAN d   1      52.070  43.831  -3.202  0.00  0.00     0.143 H 
ATOM     22  C3  JAN d   1      50.810  46.723  -3.383  0.00  0.00     0.029 A 
ATOM     23  H5  JAN d   1      50.468  47.621  -3.895  0.00  0.00     0.118 H 
BRANCH  18  24
ATOM     24  C1  JAN d   1      51.541  44.516  -0.558  0.00  0.00    -0.013 C 
ATOM     25  H1  JAN d   1      52.011  43.551  -0.799  0.00  0.00     0.057 H 
ATOM     26  H2  JAN d   1      50.575  44.340  -0.061  0.00  0.00     0.057 H 
ATOM     27  H3  JAN d   1      52.200  45.088   0.113  0.00  0.00     0.057 H 
ENDBRANCH  18  24
ENDBRANCH  16  17
BRANCH  16  28
ATOM     28  C6  JAN d   1      51.502  47.741   0.171  0.00  0.00    -0.012 A 
ATOM     29  C7  JAN d   1      52.818  48.159  -0.316  0.00  0.00    -0.072 A 
ATOM     30  C8  JAN d   1      53.897  48.425   0.596  0.00  0.00    -0.061 A 
ATOM     31  H6  JAN d   1      52.981  48.270  -1.382  0.00  0.00     0.084 H 
ATOM     32  C9  JAN d   1      53.676  48.346   1.998  0.00  0.00     0.034 A 
ATOM     33  H7  JAN d   1      54.878  48.685   0.215  0.00  0.00     0.086 H 
ATOM     34 CL1  JAN d   1      54.950  48.696   3.065  0.00  0.00    -0.084 Cl
ATOM     35  C10 JAN d   1      52.395  47.935   2.503  0.00  0.00    -0.061 A 
ATOM     36  C11 JAN d   1      51.339  47.664   1.612  0.00  0.00    -0.072 A 
ATOM     37  H8  JAN d   1      52.242  47.834   3.571  0.00  0.00     0.086 H 
ATOM     38  H9  JAN d   1      50.371  47.389   2.015  0.00  0.00     0.084 H 
ENDBRANCH  16  28
BRANCH  16  39
ATOM     39  N3  JAN d   1      49.220  46.604  -0.151  0.00  0.00    -0.056 N 
ATOM     40  H10 JAN d   1      49.625  45.759   0.220  0.00  0.00     0.276 HD
ATOM     41  H11 JAN d   1      48.506  46.368  -0.822  0.00  0.00     0.276 HD
ATOM     42  H12 JAN d   1      48.811  47.138   0.600  0.00  0.00     0.276 HD
ENDBRANCH  16  39
ENDBRANCH   1  16
BRANCH  11  43
ATOM     43  C22 JAN d   1      51.715  52.645  -0.643  0.00  0.00    -0.023 A 
ATOM     44  C23 JAN d   1      52.894  51.935  -0.972  0.00  0.00    -0.051 A 
ATOM     45  C24 JAN d   1      54.111  52.122  -0.214  0.00  0.00     0.034 A 
ATOM     46  H20 JAN d   1      52.885  51.241  -1.804  0.00  0.00     0.087 H 
ATOM     47 CL2  JAN d   1      55.522  51.286  -0.624  0.00  0.00    -0.084 Cl
ATOM     48  C25 JAN d   1      54.117  53.009   0.932  0.00  0.00    -0.062 A 
ATOM     49  C26 JAN d   1      52.904  53.723   1.267  0.00  0.00    -0.081 A 
ATOM     50  H21 JAN d   1      55.014  53.135   1.527  0.00  0.00     0.086 H 
ATOM     51  C27 JAN d   1      51.707  53.528   0.482  0.00  0.00    -0.072 A 
ATOM     52  H22 JAN d   1      52.893  54.406   2.109  0.00  0.00     0.083 H 
ATOM     53  H23 JAN d   1      50.797  54.054   0.747  0.00  0.00     0.084 H 
ENDBRANCH  11  43
BRANCH   7  54
ATOM     54  C18 JAN d   1      46.836  52.385  -3.884  0.00  0.00    -0.011 C 
ATOM     55  H16 JAN d   1      46.478  51.350  -3.989  0.00  0.00     0.057 H 
ATOM     56  H17 JAN d   1      47.052  52.800  -4.879  0.00  0.00     0.057 H 
ATOM     57  H18 JAN d   1      46.061  52.993  -3.393  0.00  0.00     0.057 H 
ENDBRANCH   7  54
TORSDOF 7
