REMARK  1 active torsions:
REMARK  status: ('A' for Active; 'I' for Inactive)
REMARK    1  A    between atoms: C2_18  and  C7_20 
ROOT
ATOM      1  O3  824 d   1       8.189  55.652  21.934  0.00  0.00    -0.197 OA
ATOM      2  C19 824 d   1       7.021  55.262  22.405  0.00  0.00     0.089 A 
ATOM      3  C20 824 d   1       6.045  54.866  21.433  0.00  0.00    -0.049 A 
ATOM      4  C18 824 d   1       4.766  54.389  21.750  0.00  0.00    -0.054 A 
ATOM      5  C16 824 d   1       4.403  54.355  23.103  0.00  0.00     0.040 A 
ATOM      6  C15 824 d   1       5.397  54.747  24.096  0.00  0.00    -0.012 A 
ATOM      7  C17 824 d   1       6.712  55.183  23.785  0.00  0.00     0.009 A 
ATOM      8  C13 824 d   1       4.677  54.554  25.349  0.00  0.00     0.016 A 
ATOM      9  C14 824 d   1       3.343  54.030  25.093  0.00  0.00     0.045 A 
ATOM     10  N2  824 d   1       3.271  53.934  23.735  0.00  0.00    -0.355 N 
ATOM     11  C4  824 d   1       5.033  54.757  26.721  0.00  0.00     0.062 A 
ATOM     12  C5  824 d   1       6.249  55.187  27.392  0.00  0.00     0.260 A 
ATOM     13  O1  824 d   1       7.299  55.625  26.841  0.00  0.00    -0.267 OA
ATOM     14  C3  824 d   1       4.093  54.441  27.760  0.00  0.00     0.060 A 
ATOM     15  C6  824 d   1       4.859  54.781  28.971  0.00  0.00     0.260 A 
ATOM     16  O2  824 d   1       4.397  54.623  30.143  0.00  0.00    -0.267 OA
ATOM     17  N1  824 d   1       6.132  55.184  28.731  0.00  0.00    -0.289 N 
ATOM     18  C2  824 d   1       2.732  53.990  27.482  0.00  0.00    -0.007 A 
ATOM     19  C1  824 d   1       2.399  53.779  26.109  0.00  0.00    -0.045 A 
ATOM     20  H1  824 d   1       6.315  54.941  20.381  0.00  0.00     0.087 H 
ATOM     21  H2  824 d   1       4.079  54.057  20.973  0.00  0.00     0.087 H 
ATOM     22  H3  824 d   1       6.848  56.184  24.220  0.00  0.00     0.050 H 
ATOM     23  H4  824 d   1       7.420  54.481  24.251  0.00  0.00     0.050 H 
ATOM     24  H5  824 d   1       2.443  53.578  23.236  0.00  0.00     0.166 HD
ATOM     25  H6  824 d   1       6.831  55.426  29.404  0.00  0.00     0.172 HD
ATOM     26  H7  824 d   1       1.410  53.422  25.846  0.00  0.00     0.088 H 
ENDROOT
BRANCH  18  27
ATOM     27  C7  824 d   1       1.748  53.690  28.532  0.00  0.00    -0.025 A 
ATOM     28  C8  824 d   1       1.446  54.684  29.492  0.00  0.00    -0.072 A 
ATOM     29  C9  824 d   1       0.490  54.433  30.509  0.00  0.00    -0.082 A 
ATOM     30  H8  824 d   1       1.948  55.644  29.450  0.00  0.00     0.084 H 
ATOM     31  C10 824 d   1      -0.219  53.238  30.425  0.00  0.00    -0.083 A 
ATOM     32  H9  824 d   1       0.319  55.139  31.314  0.00  0.00     0.083 H 
ATOM     33  C11 824 d   1       0.033  52.300  29.453  0.00  0.00    -0.082 A 
ATOM     34  H10 824 d   1      -0.998  53.040  31.152  0.00  0.00     0.083 H 
ATOM     35  C12 824 d   1       1.020  52.503  28.465  0.00  0.00    -0.072 A 
ATOM     36  H11 824 d   1      -0.541  51.380  29.445  0.00  0.00     0.083 H 
ATOM     37  H12 824 d   1       1.204  51.769  27.689  0.00  0.00     0.084 H 
ENDBRANCH  18  27
TORSDOF 1
