REMARK WARNING: 32 MAX_TORS EXCEEDED!!!
REMARK  38 active torsions:
REMARK  status: ('A' for Active; 'I' for Inactive)
REMARK    1  A    between atoms: N_1  and  CA_2 
REMARK    2  A    between atoms: CA_2  and  C_3 
REMARK    3  A    between atoms: CA_2  and  CB_5 
REMARK       I    between atoms: C_3  and  N_11 
REMARK    4  A    between atoms: CB_5  and  CG_6 
REMARK    5  A    between atoms: N_11  and  CA_12 
REMARK    6  A    between atoms: CA_12  and  C_13 
REMARK    7  A    between atoms: CA_12  and  CB_15 
REMARK       I    between atoms: C_13  and  N_22 
REMARK    8  A    between atoms: CB_15  and  CG_16 
REMARK    9  A    between atoms: CG_16  and  CD_17 
REMARK   10  A    between atoms: CD_17  and  NE_18 
REMARK       I    between atoms: NE_18  and  CZ_19 
REMARK       I    between atoms: CZ_19  and  NH1_20 
REMARK   11  A    between atoms: N_22  and  CA_23 
REMARK   12  A    between atoms: CA_23  and  C_24 
REMARK   13  A    between atoms: CA_23  and  CB_26 
REMARK       I    between atoms: C_24  and  N_31 
REMARK   14  A    between atoms: CB_26  and  CG_27 
REMARK   15  A    between atoms: CG_27  and  CD_28 
REMARK   16  A    between atoms: N_31  and  CA_32 
REMARK   17  A    between atoms: CA_32  and  C_33 
REMARK   18  A    between atoms: CA_32  and  CB_35 
REMARK       I    between atoms: C_33  and  N_39 
REMARK   19  A    between atoms: CB_35  and  CG_36 
REMARK   20  A    between atoms: CG_36  and  SD_37 
REMARK   21  A    between atoms: SD_37  and  CE_38 
REMARK   22  A    between atoms: N_39  and  CA_40 
REMARK   23  A    between atoms: CA_40  and  C_41 
REMARK   24  A    between atoms: CA_40  and  CB_43 
REMARK       I    between atoms: C_41  and  N_44 
REMARK   25  A    between atoms: N_44  and  CA_45 
REMARK   26  A    between atoms: CA_45  and  C_46 
REMARK   27  A    between atoms: CA_45  and  CB_48 
REMARK       I    between atoms: C_46  and  N_51 
REMARK   28  A    between atoms: CB_48  and  CG1_49 
REMARK   29  A    between atoms: CB_48  and  CG2_50 
REMARK   30  A    between atoms: N_51  and  CA_52 
REMARK   31  A    between atoms: CA_52  and  C_53 
REMARK   32  A    between atoms: CA_52  and  CB_55 
REMARK       I    between atoms: C_53  and  N_59 
REMARK   33  A    between atoms: CB_55  and  CG_56 
REMARK   34  A    between atoms: N_59  and  CA_60 
REMARK   35  A    between atoms: CA_60  and  C_61 
REMARK   36  A    between atoms: CA_60  and  CB_63 
REMARK       I    between atoms: C_61  and  N_65 
REMARK   37  A    between atoms: CB_63  and  SG_64 
REMARK   38  A    between atoms: CA_66  and  C_67 
ROOT
ATOM      1  CA  MET d   1      -9.430  19.905  -5.634  0.00  0.00     0.090 C 
ATOM      2  H30 MET d   1     -10.376  19.682  -6.150  0.00  0.00     0.087 H 
ENDROOT
BRANCH   1   3
ATOM      3  N   MET d   1      -9.125  18.803  -4.736  0.00  0.00    -0.346 N 
ATOM      4  C   GLU d   1     -10.064  18.026  -4.207  0.00  0.00     0.241 C 
ATOM      5  O   GLU d   1     -11.268  18.169  -4.416  0.00  0.00    -0.271 OA
ATOM      6  H29 MET d   1      -8.168  18.622  -4.507  0.00  0.00     0.163 HD
BRANCH   4   7
ATOM      7  CA  GLU d   1      -9.544  16.916  -3.310  0.00  0.00     0.090 C 
ATOM      8  H24 GLU d   1      -8.771  17.346  -2.657  0.00  0.00     0.087 H 
BRANCH   7   9
ATOM      9  N   GLU d   1     -10.582  16.351  -2.451  0.00  0.00    -0.346 N 
ATOM     10  C   ARG d   1     -10.429  16.275  -1.132  0.00  0.00     0.241 C 
ATOM     11  O   ARG d   1      -9.465  16.750  -0.537  0.00  0.00    -0.271 OA
ATOM     12  H23 GLU d   1     -11.428  16.013  -2.865  0.00  0.00     0.163 HD
BRANCH  10  13
ATOM     13  CA  ARG d   1     -11.531  15.568  -0.360  0.00  0.00     0.089 C 
ATOM     14  H11 ARG d   1     -12.001  14.825  -1.021  0.00  0.00     0.087 H 
BRANCH  13  15
ATOM     15  N   ARG d   1     -10.971  14.863   0.799  0.00  0.00    -0.346 N 
ATOM     16  C   HIS d   1     -10.497  13.623   0.702  0.00  0.00     0.249 C 
ATOM     17  O   HIS d   1     -10.568  12.956  -0.334  0.00  0.00    -0.271 OA
ATOM     18  H10 ARG d   1     -10.945  15.326   1.685  0.00  0.00     0.163 HD
BRANCH  16  19
ATOM     19  CA  HIS d   1      -9.846  13.040   1.958  0.00  0.00     0.181 C 
ATOM     20  H4  HIS d   1      -9.902  13.785   2.765  0.00  0.00     0.099 H 
BRANCH  19  21
ATOM     21  N   HIS d   1     -10.561  11.806   2.403  0.00  0.00    -0.066 N 
ATOM     22  H1  HIS d   1     -10.116  11.440   3.230  0.00  0.00     0.275 HD
ATOM     23  H2  HIS d   1     -10.527  11.115   1.670  0.00  0.00     0.275 HD
ATOM     24  H3  HIS d   1     -11.522  12.030   2.610  0.00  0.00     0.275 HD
ENDBRANCH  19  21
BRANCH  19  25
ATOM     25  CB  HIS d   1      -8.369  12.741   1.661  0.00  0.00     0.011 C 
ATOM     26  H5  HIS d   1      -7.886  13.675   1.339  0.00  0.00     0.046 H 
ATOM     27  H6  HIS d   1      -8.324  12.004   0.845  0.00  0.00     0.046 H 
BRANCH  25  28
ATOM     28  CG  HIS d   1      -7.604  12.196   2.829  0.00  0.00     0.053 A 
ATOM     29  ND1 HIS d   1      -7.358  12.931   3.969  0.00  0.00    -0.247 NA
ATOM     30  CE1 HIS d   1      -6.654  12.202   4.817  0.00  0.00     0.064 A 
ATOM     31  NE2 HIS d   1      -6.429  11.022   4.267  0.00  0.00    -0.359 N 
ATOM     32  H8  HIS d   1      -6.316  12.520   5.802  0.00  0.00     0.143 H 
ATOM     33  CD2 HIS d   1      -7.009  10.995   3.021  0.00  0.00     0.002 A 
ATOM     34  H9  HIS d   1      -5.905  10.249   4.701  0.00  0.00     0.166 HD
ATOM     35  H7  HIS d   1      -6.993  10.163   2.319  0.00  0.00     0.114 H 
ENDBRANCH  25  28
ENDBRANCH  19  25
ENDBRANCH  16  19
ENDBRANCH  13  15
BRANCH  13  36
ATOM     36  CB  ARG d   1     -12.598  16.580   0.062  0.00  0.00    -0.036 C 
ATOM     37  H12 ARG d   1     -13.418  16.027   0.543  0.00  0.00     0.036 H 
ATOM     38  H13 ARG d   1     -12.973  17.076  -0.846  0.00  0.00     0.036 H 
BRANCH  36  39
ATOM     39  CG  ARG d   1     -12.130  17.662   1.029  0.00  0.00    -0.048 C 
ATOM     40  H14 ARG d   1     -11.279  18.198   0.583  0.00  0.00     0.035 H 
ATOM     41  H15 ARG d   1     -11.813  17.189   1.970  0.00  0.00     0.035 H 
BRANCH  39  42
ATOM     42  CD  ARG d   1     -13.241  18.657   1.325  0.00  0.00     0.009 C 
ATOM     43  H16 ARG d   1     -13.450  18.641   2.405  0.00  0.00     0.064 H 
ATOM     44  H17 ARG d   1     -14.142  18.353   0.773  0.00  0.00     0.064 H 
BRANCH  42  45
ATOM     45  NE  ARG d   1     -12.893  20.025   0.936  0.00  0.00    -0.227 N 
ATOM     46  CZ  ARG d   1     -12.952  20.524  -0.299  0.00  0.00     0.665 C 
ATOM     47  NH1 ARG d   1     -13.341  19.781  -1.335  0.00  0.00    -0.235 N 
ATOM     48  NH2 ARG d   1     -12.607  21.792  -0.495  0.00  0.00    -0.235 N 
ATOM     49  H19 ARG d   1     -13.377  20.192  -2.279  0.00  0.00     0.174 HD
ATOM     50  H20 ARG d   1     -13.605  18.796  -1.192  0.00  0.00     0.174 HD
ATOM     51  H21 ARG d   1     -12.305  22.372   0.300  0.00  0.00     0.174 HD
ATOM     52  H22 ARG d   1     -12.641  22.195  -1.442  0.00  0.00     0.174 HD
ATOM     53  H18 ARG d   1     -12.574  20.658   1.683  0.00  0.00     0.177 HD
ENDBRANCH  42  45
ENDBRANCH  39  42
ENDBRANCH  36  39
ENDBRANCH  13  36
ENDBRANCH  10  13
ENDBRANCH   7   9
BRANCH   7  54
ATOM     54  CB  GLU d   1      -8.893  15.826  -4.168  0.00  0.00    -0.029 C 
ATOM     55  H25 GLU d   1      -8.682  14.962  -3.521  0.00  0.00     0.037 H 
ATOM     56  H26 GLU d   1      -7.949  16.224  -4.568  0.00  0.00     0.037 H 
BRANCH  54  57
ATOM     57  CG  GLU d   1      -9.739  15.344  -5.342  0.00  0.00     0.018 C 
ATOM     58  H27 GLU d   1      -9.730  16.118  -6.124  0.00  0.00     0.049 H 
ATOM     59  H28 GLU d   1     -10.770  15.187  -4.992  0.00  0.00     0.049 H 
BRANCH  57  60
ATOM     60  CD  GLU d   1      -9.225  14.045  -5.938  0.00  0.00     0.172 C 
ATOM     61  OE1 GLU d   1      -7.992  13.851  -5.981  0.00  0.00    -0.648 OA
ATOM     62  OE2 GLU d   1     -10.058  13.220  -6.369  0.00  0.00    -0.648 OA
ENDBRANCH  57  60
ENDBRANCH  54  57
ENDBRANCH   7  54
ENDBRANCH   4   7
ENDBRANCH   1   3
BRANCH   1  63
ATOM     63  C   MET d   1      -8.336  20.061  -6.680  0.00  0.00     0.241 C 
ATOM     64  O   MET d   1      -7.166  19.777  -6.423  0.00  0.00    -0.271 OA
ATOM     65  N   ALA d   1      -8.739  20.522  -7.859  0.00  0.00    -0.346 N 
ATOM     66  H38 ALA d   1      -9.670  20.878  -7.943  0.00  0.00     0.163 HD
BRANCH  65  67
ATOM     67  CA  ALA d   1      -7.878  20.529  -9.035  0.00  0.00     0.086 C 
ATOM     68  H39 ALA d   1      -7.072  19.798  -8.876  0.00  0.00     0.086 H 
BRANCH  67  69
ATOM     69  C   ALA d   1      -7.247  21.892  -9.263  0.00  0.00     0.240 C 
ATOM     70  O   ALA d   1      -7.938  22.915  -9.270  0.00  0.00    -0.271 OA
ATOM     71  N   VAL d   1      -5.931  21.889  -9.458  0.00  0.00    -0.346 N 
ATOM     72  H43 VAL d   1      -5.426  21.035  -9.331  0.00  0.00     0.163 HD
BRANCH  71  73
ATOM     73  CA  VAL d   1      -5.203  23.085  -9.849  0.00  0.00     0.092 C 
ATOM     74  H44 VAL d   1      -5.817  23.968  -9.618  0.00  0.00     0.088 H 
BRANCH  73  75
ATOM     75  C   VAL d   1      -4.946  23.032 -11.356  0.00  0.00     0.241 C 
ATOM     76  O   VAL d   1      -4.133  22.234 -11.824  0.00  0.00    -0.271 OA
ATOM     77  N   ASP d   1      -5.656  23.876 -12.103  0.00  0.00    -0.345 N 
ATOM     78  H52 ASP d   1      -6.323  24.469 -11.652  0.00  0.00     0.163 HD
BRANCH  77  79
ATOM     79  CA  ASP d   1      -5.502  23.972 -13.554  0.00  0.00     0.098 C 
ATOM     80  H53 ASP d   1      -6.367  24.526 -13.949  0.00  0.00     0.088 H 
BRANCH  79  81
ATOM     81  C   ASP d   1      -5.488  22.594 -14.216  0.00  0.00     0.241 C 
ATOM     82  O   ASP d   1      -4.425  22.032 -14.493  0.00  0.00    -0.271 OA
ATOM     83  N   CYS d   1      -6.684  22.060 -14.457  0.00  0.00    -0.345 N 
ATOM     84  H56 CYS d   1      -7.502  22.564 -14.178  0.00  0.00     0.163 HD
BRANCH  83  85
ATOM     85  CA  CYS d   1      -6.845  20.764 -15.114  0.00  0.00     0.097 C 
ATOM     86  H57 CYS d   1      -5.870  20.450 -15.517  0.00  0.00     0.088 H 
BRANCH  85  87
ATOM     87  C   CYS d   1      -7.838  20.877 -16.275  0.00  0.00     0.244 C 
ATOM     88  O   CYS d   1      -8.887  21.499 -16.126  0.00  0.00    -0.271 OA
ATOM     89  N   PRO d   1      -7.510  20.274 -17.435  0.00  0.00    -0.336 N 
ATOM     90  CA  PRO d   1      -8.349  20.381 -18.633  0.00  0.00     0.098 C 
ATOM     91  CD  PRO d   1      -6.320  19.438 -17.680  0.00  0.00    -0.001 C 
ATOM     92  CB  PRO d   1      -7.397  19.952 -19.751  0.00  0.00    -0.035 C 
ATOM     93  H61 PRO d   1      -8.681  21.420 -18.775  0.00  0.00     0.089 H 
ATOM     94  CG  PRO d   1      -6.502  18.964 -19.099  0.00  0.00    -0.048 C 
ATOM     95  H62 PRO d   1      -6.823  20.811 -20.127  0.00  0.00     0.036 H 
ATOM     96  H63 PRO d   1      -7.951  19.490 -20.581  0.00  0.00     0.036 H 
ATOM     97  H64 PRO d   1      -5.532  18.927 -19.617  0.00  0.00     0.035 H 
ATOM     98  H65 PRO d   1      -6.962  17.965 -19.112  0.00  0.00     0.035 H 
ATOM     99  H66 PRO d   1      -6.288  18.587 -16.983  0.00  0.00     0.064 H 
ATOM    100  H67 PRO d   1      -5.398  20.029 -17.579  0.00  0.00     0.064 H 
BRANCH  90 101
ATOM    101  C   PRO d   1      -9.579  19.467 -18.606  0.00  0.00     0.196 C 
ATOM    102  O   PRO d   1      -9.901  18.857 -17.584  0.00  0.00    -0.646 OA
ATOM    103  OXT PRO d   1     -10.284  19.313 -19.608  0.00  0.00    -0.646 OA
ENDBRANCH  90 101
ENDBRANCH  85  87
BRANCH  85 104
ATOM    104  CB  CYS d   1      -7.315  19.715 -14.102  0.00  0.00     0.001 C 
ATOM    105  H58 CYS d   1      -7.500  18.773 -14.640  0.00  0.00     0.052 H 
ATOM    106  H59 CYS d   1      -8.252  20.068 -13.647  0.00  0.00     0.052 H 
BRANCH 104 107
ATOM    107  SG  CYS d   1      -6.115  19.387 -12.766  0.00  0.00    -0.180 SA
ATOM    108  H60 CYS d   1      -6.491  18.690 -12.142  0.00  0.00     0.101 HD
ENDBRANCH 104 107
ENDBRANCH  85 104
ENDBRANCH  83  85
ENDBRANCH  79  81
BRANCH  79 109
ATOM    109  CB  ASP d   1      -4.232  24.758 -13.908  0.00  0.00     0.043 C 
ATOM    110  H54 ASP d   1      -3.357  24.131 -13.682  0.00  0.00     0.052 H 
ATOM    111  H55 ASP d   1      -4.200  25.669 -13.292  0.00  0.00     0.052 H 
BRANCH 109 112
ATOM    112  CG  ASP d   1      -4.173  25.163 -15.377  0.00  0.00     0.175 C 
ATOM    113  OD1 ASP d   1      -5.103  24.831 -16.144  0.00  0.00    -0.648 OA
ATOM    114  OD2 ASP d   1      -3.190  25.824 -15.771  0.00  0.00    -0.648 OA
ENDBRANCH 109 112
ENDBRANCH  79 109
ENDBRANCH  77  79
ENDBRANCH  73  75
BRANCH  73 115
ATOM    115  CB  VAL d   1      -3.872  23.199  -9.090  0.00  0.00    -0.033 C 
ATOM    116  H45 VAL d   1      -3.255  22.322  -9.334  0.00  0.00     0.042 H 
BRANCH 115 117
ATOM    117  CG1 VAL d   1      -3.114  24.453  -9.524  0.00  0.00    -0.071 C 
ATOM    118  H46 VAL d   1      -2.165  24.518  -8.971  0.00  0.00     0.028 H 
ATOM    119  H47 VAL d   1      -3.724  25.343  -9.310  0.00  0.00     0.028 H 
ATOM    120  H48 VAL d   1      -2.907  24.401 -10.603  0.00  0.00     0.028 H 
ENDBRANCH 115 117
BRANCH 115 121
ATOM    121  CG2 VAL d   1      -4.127  23.204  -7.587  0.00  0.00    -0.071 C 
ATOM    122  H49 VAL d   1      -4.673  22.292  -7.305  0.00  0.00     0.028 H 
ATOM    123  H50 VAL d   1      -4.726  24.087  -7.320  0.00  0.00     0.028 H 
ATOM    124  H51 VAL d   1      -3.166  23.237  -7.052  0.00  0.00     0.028 H 
ENDBRANCH 115 121
ENDBRANCH  73 115
ENDBRANCH  71  73
ENDBRANCH  67  69
BRANCH  67 125
ATOM    125  CB  ALA d   1      -8.675  20.116 -10.268  0.00  0.00    -0.049 C 
ATOM    126  H40 ALA d   1      -8.017  20.124 -11.149  0.00  0.00     0.030 H 
ATOM    127  H41 ALA d   1      -9.504  20.823 -10.422  0.00  0.00     0.030 H 
ATOM    128  H42 ALA d   1      -9.079  19.103 -10.121  0.00  0.00     0.030 H 
ENDBRANCH  67 125
ENDBRANCH  65  67
ENDBRANCH   1  63
BRANCH   1 129
ATOM    129  CB  MET d   1      -9.603  21.198  -4.845  0.00  0.00    -0.030 C 
ATOM    130  H31 MET d   1      -9.437  22.047  -5.524  0.00  0.00     0.037 H 
ATOM    131  H32 MET d   1      -8.853  21.220  -4.040  0.00  0.00     0.037 H 
BRANCH 129 132
ATOM    132  CG  MET d   1     -10.979  21.337  -4.226  0.00  0.00    -0.021 C 
ATOM    133  H33 MET d   1     -11.027  20.709  -3.324  0.00  0.00     0.049 H 
ATOM    134  H34 MET d   1     -11.731  20.994  -4.952  0.00  0.00     0.049 H 
BRANCH 132 135
ATOM    135  SD  MET d   1     -11.347  23.036  -3.769  0.00  0.00    -0.173 SA
BRANCH 135 136
ATOM    136  CE  MET d   1     -13.141  22.993  -3.781  0.00  0.00    -0.035 C 
ATOM    137  H35 MET d   1     -13.533  23.985  -3.514  0.00  0.00     0.041 H 
ATOM    138  H36 MET d   1     -13.495  22.250  -3.051  0.00  0.00     0.041 H 
ATOM    139  H37 MET d   1     -13.495  22.717  -4.785  0.00  0.00     0.041 H 
ENDBRANCH 135 136
ENDBRANCH 132 135
ENDBRANCH 129 132
ENDBRANCH   1 129
TORSDOF 38
