REMARK  13 active torsions:
REMARK  status: ('A' for Active; 'I' for Inactive)
REMARK    1  A    between atoms: O12_1  and  C12_2 
REMARK    2  A    between atoms: C13_3  and  O13_4 
REMARK    3  A    between atoms: C14_5  and  O14_6 
REMARK    4  A    between atoms: C15_7  and  C16_8 
REMARK    5  A    between atoms: C16_8  and  O16_9 
REMARK    6  A    between atoms: C11_11  and  S22_12 
REMARK    7  A    between atoms: S22_12  and  C22_13 
REMARK    8  A    between atoms: C21_14  and  O21_15 
REMARK    9  A    between atoms: O21_15  and  C27_16 
REMARK   10  A    between atoms: C23_18  and  O23_19 
REMARK   11  A    between atoms: C24_20  and  O24_21 
REMARK   12  A    between atoms: C25_22  and  C26_23 
REMARK   13  A    between atoms: C26_23  and  O26_24 
ROOT
ATOM      1  C22 SMD d   1       2.918  -7.077   0.784  0.00  0.00     0.068 C 
ATOM      2  C21 SMD d   1       3.993  -8.069   0.411  0.00  0.00     0.145 C 
ATOM      3  O25 SMD d   1       3.592  -8.831  -0.720  0.00  0.00    -0.350 OA
ATOM      4  C23 SMD d   1       1.611  -7.844   1.050  0.00  0.00     0.079 C 
ATOM      5  C24 SMD d   1       1.225  -8.756  -0.126  0.00  0.00     0.088 C 
ATOM      6  C25 SMD d   1       2.393  -9.621  -0.554  0.00  0.00     0.089 C 
ATOM      7  H12 SMD d   1       3.213  -6.576   1.718  0.00  0.00     0.068 H 
ATOM      8  H13 SMD d   1       4.922  -7.534   0.165  0.00  0.00     0.131 H 
ATOM      9  H17 SMD d   1       1.756  -8.482   1.935  0.00  0.00     0.089 H 
ATOM     10  H19 SMD d   1       0.896  -8.135  -0.972  0.00  0.00     0.091 H 
ATOM     11  H21 SMD d   1       2.567 -10.398   0.204  0.00  0.00     0.090 H 
ENDROOT
BRANCH   1  12
ATOM     12  S22 SMD d   1       2.759  -5.803  -0.496  0.00  0.00    -0.122 SA
BRANCH  12  13
ATOM     13  C11 SMD d   1       1.967  -4.366   0.314  0.00  0.00     0.111 C 
ATOM     14  C12 SMD d   1       1.425  -3.472  -0.762  0.00  0.00     0.096 C 
ATOM     15  C13 SMD d   1       1.915  -2.055  -0.693  0.00  0.00     0.090 C 
ATOM     16  H2  SMD d   1       1.721  -3.892  -1.735  0.00  0.00     0.092 H 
ATOM     17  C14 SMD d   1       3.407  -1.986  -0.468  0.00  0.00     0.089 C 
ATOM     18  H3  SMD d   1       1.674  -1.558  -1.644  0.00  0.00     0.091 H 
ATOM     19  C15 SMD d   1       3.757  -2.686   0.838  0.00  0.00     0.087 C 
ATOM     20  H5  SMD d   1       3.696  -0.930  -0.366  0.00  0.00     0.091 H 
ATOM     21  O15 SMD d   1       2.779  -3.650   1.277  0.00  0.00    -0.363 OA
ATOM     22  H7  SMD d   1       4.727  -3.190   0.714  0.00  0.00     0.090 H 
ATOM     23  H11 SMD d   1       1.108  -4.757   0.879  0.00  0.00     0.104 H 
BRANCH  14  24
ATOM     24  O12 SMD d   1      -0.004  -3.449  -0.670  0.00  0.00    -0.389 OA
ATOM     25  H1  SMD d   1      -0.337  -4.338  -0.712  0.00  0.00     0.210 HD
ENDBRANCH  14  24
BRANCH  15  26
ATOM     26  O13 SMD d   1       1.267  -1.342   0.398  0.00  0.00    -0.390 OA
ATOM     27  H4  SMD d   1       0.328  -1.337   0.258  0.00  0.00     0.210 HD
ENDBRANCH  15  26
BRANCH  17  28
ATOM     28  O14 SMD d   1       4.093  -2.518  -1.627  0.00  0.00    -0.390 OA
ATOM     29  H6  SMD d   1       3.863  -2.005  -2.393  0.00  0.00     0.210 HD
ENDBRANCH  17  28
BRANCH  19  30
ATOM     30  C16 SMD d   1       3.843  -1.644   1.953  0.00  0.00     0.043 C 
ATOM     31  H8  SMD d   1       2.890  -1.096   2.004  0.00  0.00     0.078 H 
ATOM     32  H9  SMD d   1       4.658  -0.942   1.723  0.00  0.00     0.078 H 
BRANCH  30  33
ATOM     33  O16 SMD d   1       4.094  -2.242   3.206  0.00  0.00    -0.398 OA
ATOM     34  H10 SMD d   1       3.391  -2.846   3.414  0.00  0.00     0.209 HD
ENDBRANCH  30  33
ENDBRANCH  19  30
ENDBRANCH  12  13
ENDBRANCH   1  12
BRANCH   2  35
ATOM     35  O21 SMD d   1       4.209  -8.893   1.557  0.00  0.00    -0.365 OA
BRANCH  35  36
ATOM     36  C27 SMD d   1       5.377  -9.728   1.466  0.00  0.00     0.007 C 
ATOM     37  H14 SMD d   1       5.471 -10.328   2.383  0.00  0.00     0.066 H 
ATOM     38  H15 SMD d   1       6.270  -9.097   1.347  0.00  0.00     0.066 H 
ATOM     39  H16 SMD d   1       5.282 -10.397   0.598  0.00  0.00     0.066 H 
ENDBRANCH  35  36
ENDBRANCH   2  35
BRANCH   4  40
ATOM     40  O23 SMD d   1       0.589  -6.898   1.339  0.00  0.00    -0.392 OA
ATOM     41  H18 SMD d   1      -0.227  -7.356   1.506  0.00  0.00     0.210 HD
ENDBRANCH   4  40
BRANCH   5  42
ATOM     42  O24 SMD d   1       0.158  -9.646   0.278  0.00  0.00    -0.390 OA
ATOM     43  H20 SMD d   1      -0.597  -9.134   0.541  0.00  0.00     0.210 HD
ENDBRANCH   5  42
BRANCH   6  44
ATOM     44  C26 SMD d   1       2.071 -10.262  -1.885  0.00  0.00     0.043 C 
ATOM     45  H22 SMD d   1       2.106  -9.501  -2.678  0.00  0.00     0.078 H 
ATOM     46  H23 SMD d   1       1.065 -10.704  -1.846  0.00  0.00     0.078 H 
BRANCH  44  47
ATOM     47  O26 SMD d   1       3.033 -11.285  -2.161  0.00  0.00    -0.398 OA
ATOM     48  H24 SMD d   1       2.833 -11.689  -2.997  0.00  0.00     0.209 HD
ENDBRANCH  44  47
ENDBRANCH   6  44
TORSDOF 13
