REMARK  14 active torsions:
REMARK  status: ('A' for Active; 'I' for Inactive)
REMARK    1  A    between atoms: C11_2  and  O2_3 
REMARK    2  A    between atoms: C11_2  and  C10_5 
REMARK    3  A    between atoms: O2_3  and  C9_4 
REMARK    4  A    between atoms: C10_5  and  C12_6 
REMARK    5  A    between atoms: C18_9  and  O19_10 
REMARK    6  A    between atoms: O19_10  and  C20_11 
REMARK    7  A    between atoms: N24_14  and  C25_15 
REMARK    8  A    between atoms: C29_23  and  C35_26 
REMARK    9  A    between atoms: C35_26  and  C36_27 
REMARK   10  A    between atoms: N85_35  and  C19_36 
REMARK   11  A    between atoms: C19_36  and  C30_37 
REMARK   12  A    between atoms: C46_43  and  O10_44 
REMARK   13  A    between atoms: C46_43  and  C94_45 
REMARK   14  A    between atoms: C94_45  and  C45_46 
ROOT
ATOM      1  C12 KAR d   1      14.386  23.293 133.224  0.00  0.00     0.000 A 
ATOM      2  C14 KAR d   1      14.032  24.162 132.187  0.00  0.00    -0.063 A 
ATOM      3  C15 KAR d   1      13.837  25.517 132.448  0.00  0.00    -0.018 A 
ATOM      4  C18 KAR d   1      14.546  23.859 134.514  0.00  0.00     0.078 A 
ATOM      5  C17 KAR d   1      14.365  25.239 134.753  0.00  0.00    -0.024 A 
ATOM      6  C16 KAR d   1      14.018  26.071 133.690  0.00  0.00     0.040 A 
ATOM      7  N24 KAR d   1      13.795  27.410 133.641  0.00  0.00    -0.375 N 
ATOM      8  C22 KAR d   1      13.745  27.895 132.252  0.00  0.00     0.064 C 
ATOM      9  C21 KAR d   1      13.520  26.580 131.484  0.00  0.00     0.044 C 
ATOM     10  C23 KAR d   1      12.004  26.371 131.741  0.00  0.00    -0.027 C 
ATOM     11  C27 KAR d   1      13.520  26.496 129.955  0.00  0.00     0.128 C 
ATOM     12  N30 KAR d   1      12.254  27.202 129.625  0.00  0.00    -0.062 N 
ATOM     13  C34 KAR d   1      11.699  27.022 128.289  0.00  0.00     0.099 C 
ATOM     14  C31 KAR d   1      11.276  27.239 130.721  0.00  0.00     0.085 C 
ATOM     15  C29 KAR d   1      14.654  27.272 129.257  0.00  0.00     0.010 C 
ATOM     16  C32 KAR d   1      14.104  27.655 127.877  0.00  0.00    -0.095 C 
ATOM     17  C33 KAR d   1      12.816  27.545 127.450  0.00  0.00    -0.081 C 
ATOM     18  C26 KAR d   1      15.067  28.536 131.710  0.00  0.00     0.175 A 
ATOM     19  C83 KAR d   1      16.293  27.874 132.149  0.00  0.00     0.266 A 
ATOM     20  O4  KAR d   1      16.661  26.717 132.011  0.00  0.00    -0.269 OA
ATOM     21  C28 KAR d   1      15.107  28.531 130.122  0.00  0.00    -0.013 C 
ATOM     22  O61 KAR d   1      15.162  29.900 132.163  0.00  0.00    -0.280 OA
ATOM     23  C24 KAR d   1      16.340  30.076 132.821  0.00  0.00     0.371 A 
ATOM     24  O3  KAR d   1      16.702  31.123 133.315  0.00  0.00    -0.238 OA
ATOM     25  N85 KAR d   1      17.033  28.917 132.842  0.00  0.00    -0.260 N 
ATOM     26  H4  KAR d   1      13.909  23.781 131.179  0.00  0.00     0.085 H 
ATOM     27  H8  KAR d   1      14.494  25.646 135.750  0.00  0.00     0.091 H 
ATOM     28  H12 KAR d   1      12.914  28.604 132.119  0.00  0.00     0.080 H 
ATOM     29  H13 KAR d   1      11.744  26.684 132.763  0.00  0.00     0.037 H 
ATOM     30  H14 KAR d   1      11.736  25.313 131.602  0.00  0.00     0.037 H 
ATOM     31  H15 KAR d   1      13.522  25.448 129.619  0.00  0.00     0.088 H 
ATOM     32  H16 KAR d   1      12.561  28.161 129.585  0.00  0.00     0.280 HD
ATOM     33  H17 KAR d   1      10.779  27.609 128.150  0.00  0.00     0.082 H 
ATOM     34  H18 KAR d   1      11.494  25.963 128.075  0.00  0.00     0.082 H 
ATOM     35  H19 KAR d   1      11.116  28.262 131.093  0.00  0.00     0.076 H 
ATOM     36  H20 KAR d   1      10.311  26.801 130.424  0.00  0.00     0.076 H 
ATOM     37  H21 KAR d   1      14.820  28.058 127.163  0.00  0.00     0.077 H 
ATOM     38  H22 KAR d   1      12.587  27.858 126.433  0.00  0.00     0.079 H 
ATOM     39  H28 KAR d   1      14.472  29.369 129.798  0.00  0.00     0.040 H 
ATOM     40  H29 KAR d   1      16.151  28.734 129.842  0.00  0.00     0.040 H 
ENDROOT
BRANCH   1  41
ATOM     41  C10 KAR d   1      14.562  21.771 132.894  0.00  0.00     0.121 C 
ATOM     42  C13 KAR d   1      13.344  21.163 133.663  0.00  0.00    -0.035 C 
ATOM     43  C41 KAR d   1      11.941  21.848 133.568  0.00  0.00    -0.026 C 
ATOM     44  H34 KAR d   1      13.617  21.145 134.728  0.00  0.00     0.036 H 
ATOM     45  H35 KAR d   1      13.220  20.133 133.299  0.00  0.00     0.036 H 
ATOM     46  C91 KAR d   1      11.445  22.108 132.112  0.00  0.00     0.087 C 
ATOM     47  C92 KAR d   1      10.829  21.122 134.403  0.00  0.00    -0.030 C 
ATOM     48  H36 KAR d   1      12.069  22.840 134.026  0.00  0.00     0.042 H 
ATOM     49  N48 KAR d   1      10.653  21.001 131.509  0.00  0.00    -0.068 N 
ATOM     50  H37 KAR d   1      12.326  22.282 131.477  0.00  0.00     0.076 H 
ATOM     51  H38 KAR d   1      10.817  23.011 132.122  0.00  0.00     0.076 H 
ATOM     52  C95 KAR d   1       9.586  20.414 132.350  0.00  0.00     0.111 C 
ATOM     53  C90 KAR d   1      11.229  20.099 130.489  0.00  0.00     0.087 C 
ATOM     54  H49 KAR d   1      10.081  21.560 130.895  0.00  0.00     0.280 HD
ATOM     55  C46 KAR d   1      10.156  19.910 133.699  0.00  0.00     0.082 C 
ATOM     56  H47 KAR d   1       8.821  21.180 132.546  0.00  0.00     0.080 H 
ATOM     57  H48 KAR d   1       9.130  19.569 131.814  0.00  0.00     0.080 H 
ATOM     58  C89 KAR d   1      12.724  19.728 130.681  0.00  0.00    -0.015 C 
ATOM     59  H50 KAR d   1      11.126  20.588 129.509  0.00  0.00     0.076 H 
ATOM     60  H51 KAR d   1      10.646  19.166 130.496  0.00  0.00     0.076 H 
ATOM     61  C7  KAR d   1      13.924  20.673 130.591  0.00  0.00    -0.020 A 
ATOM     62  H52 KAR d   1      12.921  18.947 129.932  0.00  0.00     0.042 H 
ATOM     63  H53 KAR d   1      12.781  19.292 131.689  0.00  0.00     0.042 H 
ATOM     64  C3  KAR d   1      14.507  20.813 129.210  0.00  0.00    -0.001 A 
ATOM     65  C8  KAR d   1      14.653  21.486 131.393  0.00  0.00     0.040 A 
ATOM     66  C4  KAR d   1      15.550  21.699 129.381  0.00  0.00     0.043 A 
ATOM     67  C2  KAR d   1      14.215  20.258 127.960  0.00  0.00    -0.070 A 
ATOM     68  C5  KAR d   1      16.364  22.093 128.313  0.00  0.00    -0.056 A 
ATOM     69  N9  KAR d   1      15.601  22.065 130.674  0.00  0.00    -0.357 N 
ATOM     70  C6  KAR d   1      16.080  21.540 127.055  0.00  0.00    -0.081 A 
ATOM     71  H54 KAR d   1      17.178  22.795 128.452  0.00  0.00     0.086 H 
ATOM     72  C1  KAR d   1      15.021  20.637 126.878  0.00  0.00    -0.082 A 
ATOM     73  H58 KAR d   1      16.691  21.816 126.203  0.00  0.00     0.083 H 
ATOM     74  H57 KAR d   1      14.824  20.228 125.894  0.00  0.00     0.083 H 
ATOM     75  H55 KAR d   1      16.297  22.720 131.060  0.00  0.00     0.166 HD
ATOM     76  H56 KAR d   1      13.395  19.560 127.833  0.00  0.00     0.084 H 
ATOM     77  H39 KAR d   1      10.045  21.857 134.637  0.00  0.00     0.038 H 
ATOM     78  H40 KAR d   1      11.285  20.762 135.337  0.00  0.00     0.038 H 
BRANCH  41  79
ATOM     79  C11 KAR d   1      15.848  21.210 133.576  0.00  0.00     0.278 C 
ATOM     80  O1  KAR d   1      15.833  20.165 134.216  0.00  0.00    -0.264 OA
BRANCH  79  81
ATOM     81  O2  KAR d   1      16.970  21.909 133.428  0.00  0.00    -0.325 OA
BRANCH  81  82
ATOM     82  C9  KAR d   1      18.102  21.033 133.494  0.00  0.00     0.013 C 
ATOM     83  H1  KAR d   1      19.026  21.618 133.371  0.00  0.00     0.067 H 
ATOM     84  H2  KAR d   1      18.033  20.283 132.692  0.00  0.00     0.067 H 
ATOM     85  H3  KAR d   1      18.117  20.526 134.470  0.00  0.00     0.067 H 
ENDBRANCH  81  82
ENDBRANCH  79  81
ENDBRANCH  41  79
BRANCH  55  86
ATOM     86  O10 KAR d   1      11.088  18.823 133.522  0.00  0.00    -0.388 OA
ATOM     87  H41 KAR d   1      10.650  18.099 133.091  0.00  0.00     0.210 HD
ENDBRANCH  55  86
BRANCH  55  88
ATOM     88  C94 KAR d   1       9.072  19.219 134.598  0.00  0.00    -0.038 C 
ATOM     89  H42 KAR d   1       9.515  19.065 135.593  0.00  0.00     0.036 H 
ATOM     90  H43 KAR d   1       8.839  18.244 134.146  0.00  0.00     0.036 H 
BRANCH  88  91
ATOM     91  C45 KAR d   1       7.727  19.978 134.796  0.00  0.00    -0.074 C 
ATOM     92  H44 KAR d   1       7.063  19.385 135.443  0.00  0.00     0.027 H 
ATOM     93  H45 KAR d   1       7.245  20.132 133.819  0.00  0.00     0.027 H 
ATOM     94  H46 KAR d   1       7.922  20.953 135.266  0.00  0.00     0.027 H 
ENDBRANCH  88  91
ENDBRANCH  55  88
ENDBRANCH   1  41
BRANCH   4  95
ATOM     95  O19 KAR d   1      14.895  23.043 135.593  0.00  0.00    -0.355 OA
BRANCH  95  96
ATOM     96  C20 KAR d   1      16.250  23.100 136.070  0.00  0.00     0.010 C 
ATOM     97  H5  KAR d   1      16.370  22.407 136.916  0.00  0.00     0.066 H 
ATOM     98  H6  KAR d   1      16.480  24.124 136.399  0.00  0.00     0.066 H 
ATOM     99  H7  KAR d   1      16.936  22.812 135.260  0.00  0.00     0.066 H 
ENDBRANCH  95  96
ENDBRANCH   4  95
BRANCH   7 100
ATOM    100  C25 KAR d   1      13.913  28.293 134.800  0.00  0.00    -0.018 C 
ATOM    101  H9  KAR d   1      13.929  27.690 135.720  0.00  0.00     0.056 H 
ATOM    102  H10 KAR d   1      13.054  28.980 134.827  0.00  0.00     0.056 H 
ATOM    103  H11 KAR d   1      14.844  28.874 134.725  0.00  0.00     0.056 H 
ENDBRANCH   7 100
BRANCH  15 104
ATOM    104  C35 KAR d   1      15.785  26.212 128.943  0.00  0.00    -0.056 C 
ATOM    105  H23 KAR d   1      15.702  25.965 127.874  0.00  0.00     0.034 H 
ATOM    106  H24 KAR d   1      15.560  25.319 129.544  0.00  0.00     0.034 H 
BRANCH 104 107
ATOM    107  C36 KAR d   1      17.278  26.571 129.209  0.00  0.00    -0.075 C 
ATOM    108  H25 KAR d   1      17.915  25.718 128.933  0.00  0.00     0.027 H 
ATOM    109  H26 KAR d   1      17.415  26.801 130.276  0.00  0.00     0.027 H 
ATOM    110  H27 KAR d   1      17.558  27.447 128.606  0.00  0.00     0.027 H 
ENDBRANCH 104 107
ENDBRANCH  15 104
BRANCH  25 111
ATOM    111  C19 KAR d   1      18.331  28.754 133.466  0.00  0.00     0.019 C 
ATOM    112  H30 KAR d   1      19.032  29.495 133.054  0.00  0.00     0.067 H 
ATOM    113  H31 KAR d   1      18.710  27.741 133.267  0.00  0.00     0.067 H 
BRANCH 111 114
ATOM    114  C30 KAR d   1      18.196  28.963 134.987  0.00  0.00     0.018 C 
ATOM    115 CL1  KAR d   1      17.666  27.445 135.716  0.00  0.00    -0.129 Cl
ATOM    116  H32 KAR d   1      17.455  29.750 135.189  0.00  0.00     0.059 H 
ATOM    117  H33 KAR d   1      19.168  29.258 135.409  0.00  0.00     0.059 H 
ENDBRANCH 111 114
ENDBRANCH  25 111
TORSDOF 14
