REMARK  9 active torsions:
REMARK  status: ('A' for Active; 'I' for Inactive)
REMARK    1  A    between atoms: C5_3  and  C7_7 
REMARK    2  A    between atoms: C9_11  and  N13_13 
REMARK    3  A    between atoms: N13_13  and  C14_14 
REMARK    4  A    between atoms: C19_15  and  C20_37 
REMARK    5  A    between atoms: C16_18  and  N21_20 
REMARK       I    between atoms: N21_20  and  C22_21 
REMARK    6  A    between atoms: C22_21  and  C23_22 
REMARK    7  A    between atoms: C27_25  and  C46_28 
REMARK    8  A    between atoms: C46_28  and  N48_29 
REMARK    9  A    between atoms: N51_32  and  C54_33 
ROOT
ATOM      1  N21 STI d   1      -1.113   1.152  11.859  0.00  0.00    -0.323 N 
ATOM      2  C22 STI d   1      -0.299   2.052  11.312  0.00  0.00     0.256 C 
ATOM      3  O29 STI d   1       0.916   1.934  11.355  0.00  0.00    -0.267 OA
ATOM      4  H11 STI d   1      -2.059   1.192  11.537  0.00  0.00     0.169 HD
ENDROOT
BRANCH   1   5
ATOM      5  C16 STI d   1      -0.863   0.181  12.791  0.00  0.00     0.037 A 
ATOM      6  C17 STI d   1      -1.957  -0.636  13.054  0.00  0.00    -0.057 A 
ATOM      7  C18 STI d   1      -1.891  -1.672  13.985  0.00  0.00    -0.073 A 
ATOM      8  H9  STI d   1      -2.885  -0.463  12.521  0.00  0.00     0.086 H 
ATOM      9  C19 STI d   1      -0.689  -1.895  14.657  0.00  0.00    -0.035 A 
ATOM     10  H8  STI d   1      -2.757  -2.292  14.183  0.00  0.00     0.084 H 
ATOM     11  C14 STI d   1       0.425  -1.090  14.415  0.00  0.00     0.057 A 
ATOM     12  C15 STI d   1       0.350  -0.045  13.470  0.00  0.00    -0.030 A 
ATOM     13  H10 STI d   1       1.215   0.576  13.269  0.00  0.00     0.090 H 
BRANCH   9  14
ATOM     14  C20 STI d   1      -0.640  -3.027  15.660  0.00  0.00    -0.049 C 
ATOM     15  H31 STI d   1       0.365  -3.079  16.105  0.00  0.00     0.033 H 
ATOM     16  H32 STI d   1      -0.866  -3.977  15.153  0.00  0.00     0.033 H 
ATOM     17  H33 STI d   1      -1.383  -2.848  16.451  0.00  0.00     0.033 H 
ENDBRANCH   9  14
BRANCH  11  18
ATOM     18  N13 STI d   1       1.551  -1.398  15.143  0.00  0.00    -0.188 N 
ATOM     19  H7  STI d   1       1.452  -2.169  15.819  0.00  0.00     0.184 HD
BRANCH  18  20
ATOM     20  C9  STI d   1       2.786  -0.810  15.084  0.00  0.00     0.727 A 
ATOM     21  N10 STI d   1       3.715  -1.277  15.952  0.00  0.00    -0.075 NA
ATOM     22  C11 STI d   1       5.000  -0.793  15.991  0.00  0.00     0.023 A 
ATOM     23  C12 STI d   1       5.354   0.266  15.158  0.00  0.00    -0.036 A 
ATOM     24  H6  STI d   1       5.730  -1.230  16.662  0.00  0.00     0.115 H 
ATOM     25  C7  STI d   1       4.356   0.777  14.295  0.00  0.00     0.089 A 
ATOM     26  H5  STI d   1       6.355   0.682  15.171  0.00  0.00     0.089 H 
ATOM     27  N8  STI d   1       3.097   0.226  14.269  0.00  0.00    -0.062 NA
BRANCH  25  28
ATOM     28  C5  STI d   1       4.617   1.869  13.447  0.00  0.00     0.011 A 
ATOM     29  C6  STI d   1       3.629   2.370  12.601  0.00  0.00    -0.068 A 
ATOM     30  C1  STI d   1       3.938   3.465  11.778  0.00  0.00    -0.065 A 
ATOM     31  H2  STI d   1       2.642   1.923  12.579  0.00  0.00     0.085 H 
ATOM     32  C2  STI d   1       5.220   4.013  11.820  0.00  0.00     0.002 A 
ATOM     33  H1  STI d   1       3.187   3.881  11.116  0.00  0.00     0.085 H 
ATOM     34  N3  STI d   1       6.153   3.528  12.658  0.00  0.00    -0.272 NA
ATOM     35  H4  STI d   1       5.468   4.842  11.167  0.00  0.00     0.114 H 
ATOM     36  C4  STI d   1       5.870   2.492  13.470  0.00  0.00     0.014 A 
ATOM     37  H3  STI d   1       6.629   2.133  14.156  0.00  0.00     0.116 H 
ENDBRANCH  25  28
ENDBRANCH  18  20
ENDBRANCH  11  18
ENDBRANCH   1   5
BRANCH   2  38
ATOM     38  C23 STI d   1      -0.854   3.216  10.521  0.00  0.00     0.032 A 
ATOM     39  C25 STI d   1      -0.159   3.641   9.384  0.00  0.00    -0.067 A 
ATOM     40  C26 STI d   1      -0.623   4.716   8.626  0.00  0.00    -0.074 A 
ATOM     41  H12 STI d   1       0.750   3.129   9.089  0.00  0.00     0.085 H 
ATOM     42  C27 STI d   1      -1.795   5.374   9.002  0.00  0.00    -0.033 A 
ATOM     43  H13 STI d   1      -0.075   5.039   7.748  0.00  0.00     0.084 H 
ATOM     44  C28 STI d   1      -2.492   4.956  10.145  0.00  0.00    -0.074 A 
ATOM     45  C29 STI d   1      -2.022   3.879  10.905  0.00  0.00    -0.067 A 
ATOM     46  H14 STI d   1      -3.399   5.470  10.441  0.00  0.00     0.084 H 
ATOM     47  H15 STI d   1      -2.563   3.560  11.789  0.00  0.00     0.085 H 
BRANCH  42  48
ATOM     48  C46 STI d   1      -2.248   6.542   8.144  0.00  0.00     0.107 C 
ATOM     49  H16 STI d   1      -1.918   6.350   7.112  0.00  0.00     0.083 H 
ATOM     50  H17 STI d   1      -1.755   7.449   8.524  0.00  0.00     0.083 H 
BRANCH  48  51
ATOM     51  N48 STI d   1      -3.684   6.794   8.113  0.00  0.00    -0.064 N 
ATOM     52  C53 STI d   1      -4.252   7.780   9.036  0.00  0.00     0.106 C 
ATOM     53  C52 STI d   1      -5.466   7.145   9.717  0.00  0.00     0.105 C 
ATOM     54  H19 STI d   1      -4.563   8.677   8.480  0.00  0.00     0.078 H 
ATOM     55  H20 STI d   1      -3.503   8.059   9.792  0.00  0.00     0.078 H 
ATOM     56  N51 STI d   1      -6.273   6.601   8.631  0.00  0.00    -0.072 N 
ATOM     57  H21 STI d   1      -6.034   7.902  10.277  0.00  0.00     0.078 H 
ATOM     58  H22 STI d   1      -5.149   6.344  10.401  0.00  0.00     0.078 H 
ATOM     59  C50 STI d   1      -5.738   5.523   7.811  0.00  0.00     0.105 C 
ATOM     60  H23 STI d   1      -6.670   5.925   9.264  0.00  0.00     0.279 HD
ATOM     61  C49 STI d   1      -4.502   6.099   7.115  0.00  0.00     0.106 C 
ATOM     62  H27 STI d   1      -6.482   5.203   7.067  0.00  0.00     0.078 H 
ATOM     63  H28 STI d   1      -5.458   4.666   8.441  0.00  0.00     0.078 H 
ATOM     64  H29 STI d   1      -3.919   5.284   6.661  0.00  0.00     0.078 H 
ATOM     65  H30 STI d   1      -4.814   6.807   6.333  0.00  0.00     0.078 H 
ATOM     66  H18 STI d   1      -3.851   6.057   8.780  0.00  0.00     0.280 HD
BRANCH  56  67
ATOM     67  C54 STI d   1      -7.604   7.129   8.364  0.00  0.00     0.066 C 
ATOM     68  H24 STI d   1      -8.047   6.592   7.513  0.00  0.00     0.068 H 
ATOM     69  H25 STI d   1      -7.532   8.200   8.125  0.00  0.00     0.068 H 
ATOM     70  H26 STI d   1      -8.237   6.994   9.253  0.00  0.00     0.068 H 
ENDBRANCH  56  67
ENDBRANCH  48  51
ENDBRANCH  42  48
ENDBRANCH   2  38
TORSDOF 9
