REMARK  9 active torsions:
REMARK  status: ('A' for Active; 'I' for Inactive)
REMARK    1  A    between atoms: N6_6  and  C24_24 
REMARK    2  A    between atoms: C7_7  and  C8_8 
REMARK    3  A    between atoms: N9_9  and  C28_28 
REMARK    4  A    between atoms: C16_16  and  C17_17 
REMARK    5  A    between atoms: C24_24  and  C35_35 
REMARK    6  A    between atoms: C25_25  and  O33_33 
REMARK    7  A    between atoms: C26_26  and  N31_31 
REMARK    8  A    between atoms: N31_31  and  C32_32 
REMARK    9  A    between atoms: O33_33  and  C34_34 
ROOT
ATOM      1  C24 STU d   1       1.124   3.807  11.415  0.00  0.00     0.168 C 
ATOM      2  C25 STU d   1       0.513   4.768  12.457  0.00  0.00     0.113 C 
ATOM      3  C26 STU d   1      -0.994   4.598  12.489  0.00  0.00     0.134 C 
ATOM      4  C27 STU d   1      -1.320   3.187  12.985  0.00  0.00     0.005 C 
ATOM      5  C28 STU d   1      -0.553   2.114  12.183  0.00  0.00     0.115 C 
ATOM      6  O29 STU d   1       0.288   2.662  11.159  0.00  0.00    -0.333 OA
ATOM      7  H12 STU d   1       0.767   5.800  12.171  0.00  0.00     0.094 H 
ATOM      8  H13 STU d   1      -1.388   4.703  11.467  0.00  0.00     0.088 H 
ATOM      9  H14 STU d   1      -2.400   3.010  12.876  0.00  0.00     0.042 H 
ATOM     10  H15 STU d   1      -1.041   3.108  14.046  0.00  0.00     0.042 H 
ATOM     11  H16 STU d   1      -1.297   1.469  11.693  0.00  0.00     0.118 H 
ENDROOT
BRANCH   3  12
ATOM     12  N31 STU d   1      -1.581   5.643  13.308  0.00  0.00    -0.072 N 
ATOM     13  H17 STU d   1      -1.129   5.604  14.208  0.00  0.00     0.277 HD
ATOM     14  H18 STU d   1      -2.559   5.424  13.413  0.00  0.00     0.277 HD
BRANCH  12  15
ATOM     15  C32 STU d   1      -1.497   7.025  12.845  0.00  0.00     0.065 C 
ATOM     16  H19 STU d   1      -1.986   7.687  13.575  0.00  0.00     0.067 H 
ATOM     17  H20 STU d   1      -2.001   7.117  11.871  0.00  0.00     0.067 H 
ATOM     18  H21 STU d   1      -0.441   7.313  12.740  0.00  0.00     0.067 H 
ENDBRANCH  12  15
ENDBRANCH   3  12
BRANCH   2  19
ATOM     19  O33 STU d   1       0.976   4.522  13.792  0.00  0.00    -0.384 OA
BRANCH  19  20
ATOM     20  C34 STU d   1       1.898   5.488  14.297  0.00  0.00     0.005 C 
ATOM     21  H22 STU d   1       2.192   5.214  15.321  0.00  0.00     0.066 H 
ATOM     22  H23 STU d   1       1.422   6.480  14.306  0.00  0.00     0.066 H 
ATOM     23  H24 STU d   1       2.790   5.515  13.654  0.00  0.00     0.066 H 
ENDBRANCH  19  20
ENDBRANCH   2  19
BRANCH   1  24
ATOM     24  N6  STU d   1       2.457   3.347  11.916  0.00  0.00    -0.308 N 
ATOM     25  C5  STU d   1       3.663   3.939  11.730  0.00  0.00     0.049 A 
ATOM     26  C4  STU d   1       4.095   5.040  10.983  0.00  0.00    -0.056 A 
ATOM     27  C23 STU d   1       4.713   3.271  12.511  0.00  0.00     0.004 A 
ATOM     28  C3  STU d   1       5.435   5.442  11.007  0.00  0.00    -0.081 A 
ATOM     29  H4  STU d   1       3.382   5.589  10.378  0.00  0.00     0.087 H 
ATOM     30  C2  STU d   1       6.395   4.772  11.776  0.00  0.00    -0.082 A 
ATOM     31  H3  STU d   1       5.739   6.297  10.413  0.00  0.00     0.083 H 
ATOM     32  C1  STU d   1       6.043   3.669  12.556  0.00  0.00    -0.070 A 
ATOM     33  H2  STU d   1       7.424   5.114  11.765  0.00  0.00     0.083 H 
ATOM     34  H1  STU d   1       6.772   3.149  13.167  0.00  0.00     0.084 H 
ATOM     35  C22 STU d   1       3.980   2.192  13.204  0.00  0.00     0.015 A 
ATOM     36  C7  STU d   1       2.547   2.307  12.769  0.00  0.00     0.077 A 
ATOM     37  C21 STU d   1       4.430   1.225  14.104  0.00  0.00    -0.010 A 
ATOM     38  C17 STU d   1       3.482   0.266  14.660  0.00  0.00     0.054 A 
ATOM     39  C20 STU d   1       5.802   0.942  14.674  0.00  0.00     0.021 A 
ATOM     40  C18 STU d   1       4.240  -0.605  15.582  0.00  0.00     0.253 A 
ATOM     41  N19 STU d   1       5.502  -0.152  15.618  0.00  0.00    -0.353 N 
ATOM     42  O30 STU d   1       3.762  -1.552  16.189  0.00  0.00    -0.268 OA
ATOM     43  H9  STU d   1       6.189  -0.528  16.239  0.00  0.00     0.163 HD
ATOM     44  H10 STU d   1       6.504   0.618  13.892  0.00  0.00     0.071 H 
ATOM     45  H11 STU d   1       6.212   1.821  15.193  0.00  0.00     0.071 H 
BRANCH  36  46
ATOM     46  C8  STU d   1       1.634   1.404  13.324  0.00  0.00     0.077 A 
ATOM     47  N9  STU d   1       0.245   1.288  13.093  0.00  0.00    -0.316 N 
ATOM     48  C10 STU d   1      -0.251   0.219  13.873  0.00  0.00     0.048 A 
ATOM     49  C11 STU d   1      -1.547  -0.280  13.990  0.00  0.00    -0.056 A 
ATOM     50  C15 STU d   1       0.846  -0.405  14.631  0.00  0.00     0.004 A 
ATOM     51  C12 STU d   1      -1.738  -1.367  14.854  0.00  0.00    -0.081 A 
ATOM     52  H5  STU d   1      -2.372   0.154  13.437  0.00  0.00     0.087 H 
ATOM     53  C13 STU d   1      -0.682  -1.948  15.580  0.00  0.00    -0.082 A 
ATOM     54  H6  STU d   1      -2.736  -1.775  14.967  0.00  0.00     0.083 H 
ATOM     55  C14 STU d   1       0.632  -1.473  15.489  0.00  0.00    -0.070 A 
ATOM     56  H7  STU d   1      -0.892  -2.790  16.230  0.00  0.00     0.083 H 
ATOM     57  H8  STU d   1       1.440  -1.917  16.059  0.00  0.00     0.084 H 
ATOM     58  C16 STU d   1       2.059   0.358  14.278  0.00  0.00     0.022 A 
ENDBRANCH  36  46
ENDBRANCH   1  24
BRANCH   1  59
ATOM     59  C35 STU d   1       1.227   4.496  10.054  0.00  0.00    -0.028 C 
ATOM     60  H25 STU d   1       0.226   4.815   9.728  0.00  0.00     0.034 H 
ATOM     61  H26 STU d   1       1.645   3.794   9.318  0.00  0.00     0.034 H 
ATOM     62  H27 STU d   1       1.883   5.375  10.137  0.00  0.00     0.034 H 
ENDBRANCH   1  59
TORSDOF 9
