REMARK  18 active torsions:
REMARK  status: ('A' for Active; 'I' for Inactive)
REMARK    1  A    between atoms: C51_2  and  C53_3 
REMARK    2  A    between atoms: C51_2  and  O50_7 
REMARK    3  A    between atoms: C53_3  and  C62_4 
REMARK    4  A    between atoms: C53_3  and  C55_5 
REMARK    5  A    between atoms: C55_5  and  C58_6 
REMARK    6  A    between atoms: O50_7  and  C26_8 
REMARK    7  A    between atoms: C31_10  and  C46_11 
REMARK    8  A    between atoms: C40_17  and  C42_18 
REMARK    9  A    between atoms: C22_19  and  C19_20 
REMARK   10  A    between atoms: C19_20  and  C16_21 
REMARK   11  A    between atoms: C16_21  and  C2_22 
REMARK   12  A    between atoms: N1_23  and  C66_30 
REMARK   13  A    between atoms: C7_27  and  O14_28 
REMARK   14  A    between atoms: C66_30  and  C69_31 
REMARK   15  A    between atoms: C74_35  and  C85_36 
REMARK   16  A    between atoms: C85_36  and  O88_37 
REMARK   17  A    between atoms: C75_38  and  O80_39 
REMARK   18  A    between atoms: O80_39  and  C81_40 
ROOT
ATOM      1  C19 AAY d   1      30.984  88.368  41.601  0.00  0.00    -0.059 C 
ATOM      2  H26 AAY d   1      31.389  87.796  42.449  0.00  0.00     0.033 H 
ATOM      3  H27 AAY d   1      30.137  87.821  41.161  0.00  0.00     0.033 H 
ENDROOT
BRANCH   1   4
ATOM      4  C22 AAY d   1      32.110  88.515  40.510  0.00  0.00    -0.038 C 
ATOM      5  C24 AAY d   1      32.721  87.136  40.151  0.00  0.00     0.001 C 
ATOM      6  C26 AAY d   1      31.643  86.128  39.690  0.00  0.00     0.056 C 
ATOM      7  C35 AAY d   1      33.731  87.360  39.036  0.00  0.00    -0.055 C 
ATOM      8  H18 AAY d   1      33.232  86.726  41.035  0.00  0.00     0.051 H 
ATOM      9  C28 AAY d   1      32.289  84.837  39.173  0.00  0.00    -0.034 C 
ATOM     10  H10 AAY d   1      30.981  85.878  40.532  0.00  0.00     0.085 H 
ATOM     11  C31 AAY d   1      33.324  85.100  38.067  0.00  0.00    -0.038 C 
ATOM     12  H11 AAY d   1      31.500  84.184  38.770  0.00  0.00     0.037 H 
ATOM     13  H12 AAY d   1      32.790  84.332  40.012  0.00  0.00     0.037 H 
ATOM     14  C33 AAY d   1      33.948  86.452  38.087  0.00  0.00    -0.093 C 
ATOM     15  H13 AAY d   1      34.120  84.352  38.194  0.00  0.00     0.045 H 
ATOM     16  H17 AAY d   1      34.624  86.714  37.275  0.00  0.00     0.078 H 
ATOM     17  C36 AAY d   1      34.443  88.505  38.953  0.00  0.00    -0.080 C 
ATOM     18  C38 AAY d   1      34.346  89.471  39.862  0.00  0.00    -0.099 C 
ATOM     19  H19 AAY d   1      35.121  88.642  38.112  0.00  0.00     0.083 H 
ATOM     20  C40 AAY d   1      33.223  89.506  40.881  0.00  0.00    -0.037 C 
ATOM     21  H20 AAY d   1      35.096  90.261  39.875  0.00  0.00     0.077 H 
ATOM     22  H21 AAY d   1      32.788  90.516  40.901  0.00  0.00     0.046 H 
ATOM     23  H25 AAY d   1      31.623  88.907  39.605  0.00  0.00     0.042 H 
BRANCH   6  24
ATOM     24  O50 AAY d   1      30.882  86.802  38.657  0.00  0.00    -0.315 OA
BRANCH  24  25
ATOM     25  C51 AAY d   1      29.723  86.255  38.296  0.00  0.00     0.263 C 
ATOM     26  O52 AAY d   1      29.167  85.354  38.886  0.00  0.00    -0.265 OA
BRANCH  25  27
ATOM     27  C53 AAY d   1      29.135  86.914  37.054  0.00  0.00     0.026 C 
ATOM     28  H1  AAY d   1      29.881  87.597  36.621  0.00  0.00     0.054 H 
BRANCH  27  29
ATOM     29  C62 AAY d   1      28.754  85.855  36.008  0.00  0.00    -0.064 C 
ATOM     30  H2  AAY d   1      28.332  86.351  35.121  0.00  0.00     0.028 H 
ATOM     31  H3  AAY d   1      28.007  85.170  36.435  0.00  0.00     0.028 H 
ATOM     32  H4  AAY d   1      29.650  85.286  35.719  0.00  0.00     0.028 H 
ENDBRANCH  27  29
BRANCH  27  33
ATOM     33  C55 AAY d   1      27.894  87.704  37.445  0.00  0.00    -0.057 C 
ATOM     34  H5  AAY d   1      27.147  87.017  37.869  0.00  0.00     0.033 H 
ATOM     35  H6  AAY d   1      27.479  88.190  36.550  0.00  0.00     0.033 H 
BRANCH  33  36
ATOM     36  C58 AAY d   1      28.241  88.781  38.491  0.00  0.00    -0.076 C 
ATOM     37  H7  AAY d   1      27.331  89.339  38.759  0.00  0.00     0.027 H 
ATOM     38  H8  AAY d   1      28.985  89.474  38.071  0.00  0.00     0.027 H 
ATOM     39  H9  AAY d   1      28.654  88.300  39.390  0.00  0.00     0.027 H 
ENDBRANCH  33  36
ENDBRANCH  27  33
ENDBRANCH  25  27
ENDBRANCH  24  25
ENDBRANCH   6  24
BRANCH  11  40
ATOM     40  C46 AAY d   1      32.727  84.958  36.638  0.00  0.00    -0.070 C 
ATOM     41  H14 AAY d   1      33.511  85.157  35.892  0.00  0.00     0.028 H 
ATOM     42  H15 AAY d   1      31.907  85.680  36.510  0.00  0.00     0.028 H 
ATOM     43  H16 AAY d   1      32.341  83.937  36.502  0.00  0.00     0.028 H 
ENDBRANCH  11  40
BRANCH  20  44
ATOM     44  C42 AAY d   1      33.841  89.200  42.270  0.00  0.00    -0.069 C 
ATOM     45  H22 AAY d   1      34.630  89.934  42.490  0.00  0.00     0.028 H 
ATOM     46  H23 AAY d   1      34.273  88.188  42.264  0.00  0.00     0.028 H 
ATOM     47  H24 AAY d   1      33.059  89.261  43.041  0.00  0.00     0.028 H 
ENDBRANCH  20  44
ENDBRANCH   1   4
BRANCH   1  48
ATOM     48  C16 AAY d   1      30.475  89.733  42.122  0.00  0.00    -0.045 C 
ATOM     49  H28 AAY d   1      30.094  90.310  41.267  0.00  0.00     0.036 H 
ATOM     50  H29 AAY d   1      31.322  90.268  42.578  0.00  0.00     0.036 H 
BRANCH  48  51
ATOM     51  C2  AAY d   1      29.343  89.619  43.178  0.00  0.00     0.017 C 
ATOM     52  N1  AAY d   1      29.707  88.901  44.401  0.00  0.00    -0.343 N 
ATOM     53  C12 AAY d   1      28.858  88.019  44.987  0.00  0.00     0.222 C 
ATOM     54  O13 AAY d   1      29.139  87.455  46.025  0.00  0.00    -0.273 OA
ATOM     55  C9  AAY d   1      27.515  87.695  44.426  0.00  0.00     0.033 C 
ATOM     56  C7  AAY d   1      26.989  88.851  43.573  0.00  0.00     0.045 C 
ATOM     57  H31 AAY d   1      26.814  87.509  45.253  0.00  0.00     0.051 H 
ATOM     58  H32 AAY d   1      27.593  86.793  43.802  0.00  0.00     0.051 H 
ATOM     59  C4  AAY d   1      28.077  89.056  42.508  0.00  0.00    -0.022 C 
ATOM     60  H33 AAY d   1      26.835  89.759  44.175  0.00  0.00     0.083 H 
ATOM     61  H35 AAY d   1      28.311  88.093  42.031  0.00  0.00     0.039 H 
ATOM     62  H36 AAY d   1      27.718  89.764  41.747  0.00  0.00     0.039 H 
ATOM     63  H30 AAY d   1      29.107  90.646  43.494  0.00  0.00     0.072 H 
BRANCH  52  64
ATOM     64  C66 AAY d   1      30.969  89.145  45.058  0.00  0.00     0.022 C 
ATOM     65  H37 AAY d   1      31.766  89.264  44.309  0.00  0.00     0.071 H 
ATOM     66  H38 AAY d   1      31.215  88.305  45.725  0.00  0.00     0.071 H 
BRANCH  64  67
ATOM     67  C69 AAY d   1      30.821  90.409  45.856  0.00  0.00    -0.039 A 
ATOM     68  C92 AAY d   1      31.234  91.626  45.332  0.00  0.00    -0.074 A 
ATOM     69  C90 AAY d   1      31.094  92.804  46.058  0.00  0.00    -0.071 A 
ATOM     70  H39 AAY d   1      31.673  91.659  44.341  0.00  0.00     0.084 H 
ATOM     71  C73 AAY d   1      30.533  92.745  47.340  0.00  0.00    -0.015 A 
ATOM     72  H40 AAY d   1      31.413  93.751  45.639  0.00  0.00     0.084 H 
ATOM     73  C74 AAY d   1      30.370  93.904  48.117  0.00  0.00     0.010 A 
ATOM     74  C72 AAY d   1      30.119  91.508  47.854  0.00  0.00    -0.025 A 
ATOM     75  C75 AAY d   1      29.790  93.789  49.385  0.00  0.00     0.077 A 
ATOM     76  C76 AAY d   1      29.373  92.551  49.886  0.00  0.00    -0.049 A 
ATOM     77  C78 AAY d   1      29.544  91.407  49.118  0.00  0.00    -0.070 A 
ATOM     78  H47 AAY d   1      28.919  92.485  50.868  0.00  0.00     0.087 H 
ATOM     79  H48 AAY d   1      29.232  90.442  49.500  0.00  0.00     0.085 H 
ATOM     80  C70 AAY d   1      30.253  90.339  47.113  0.00  0.00    -0.065 A 
ATOM     81  H49 AAY d   1      29.918  89.390  47.515  0.00  0.00     0.085 H 
BRANCH  73  82
ATOM     82  C85 AAY d   1      30.812  95.289  47.619  0.00  0.00     0.044 C 
ATOM     83  H41 AAY d   1      31.879  95.250  47.355  0.00  0.00     0.081 H 
ATOM     84  H42 AAY d   1      30.660  96.024  48.423  0.00  0.00     0.081 H 
BRANCH  82  85
ATOM     85  O88 AAY d   1      30.064  95.695  46.472  0.00  0.00    -0.396 OA
ATOM     86  H43 AAY d   1      30.360  96.552  46.189  0.00  0.00     0.209 HD
ENDBRANCH  82  85
ENDBRANCH  73  82
BRANCH  75  87
ATOM     87  O80 AAY d   1      29.622  94.918  50.174  0.00  0.00    -0.355 OA
BRANCH  87  88
ATOM     88  C81 AAY d   1      28.237  95.300  50.336  0.00  0.00     0.010 C 
ATOM     89  H44 AAY d   1      28.176  96.198  50.969  0.00  0.00     0.066 H 
ATOM     90  H45 AAY d   1      27.683  94.477  50.812  0.00  0.00     0.066 H 
ATOM     91  H46 AAY d   1      27.798  95.516  49.351  0.00  0.00     0.066 H 
ENDBRANCH  87  88
ENDBRANCH  75  87
ENDBRANCH  64  67
ENDBRANCH  52  64
BRANCH  56  92
ATOM     92  O14 AAY d   1      25.775  88.465  42.933  0.00  0.00    -0.395 OA
ATOM     93  H34 AAY d   1      25.937  87.712  42.377  0.00  0.00     0.210 HD
ENDBRANCH  56  92
ENDBRANCH  48  51
ENDBRANCH   1  48
TORSDOF 18
