REMARK  19 active torsions:
REMARK  status: ('A' for Active; 'I' for Inactive)
REMARK    1  A    between atoms: C88_1  and  O87_2 
REMARK    2  A    between atoms: O87_2  and  C79_3 
REMARK    3  A    between atoms: C80_4  and  O85_5 
REMARK    4  A    between atoms: C76_9  and  C73_10 
REMARK    5  A    between atoms: C73_10  and  N1_11 
REMARK    6  A    between atoms: C2_12  and  C62_13 
REMARK    7  A    between atoms: C62_13  and  C65_14 
REMARK       I    between atoms: C65_14  and  N67_15 
REMARK    8  A    between atoms: N67_15  and  C69_16 
REMARK    9  A    between atoms: C7_19  and  C12_23 
REMARK   10  A    between atoms: C12_23  and  C15_24 
REMARK   11  A    between atoms: C15_24  and  C18_25 
REMARK   12  A    between atoms: C36_30  and  C38_31 
REMARK   13  A    between atoms: C27_33  and  C42_34 
REMARK   14  A    between atoms: C22_36  and  O46_37 
REMARK   15  A    between atoms: O46_37  and  C47_38 
REMARK   16  A    between atoms: C47_38  and  C49_40 
REMARK   17  A    between atoms: C49_40  and  C58_41 
REMARK   18  A    between atoms: C49_40  and  C51_42 
REMARK   19  A    between atoms: C51_42  and  C54_43 
ROOT
ATOM      1  C15 AB8 d   1      50.464  21.604  22.859  0.00  0.00    -0.058 C 
ATOM      2  H22 AB8 d   1      51.328  21.194  22.316  0.00  0.00     0.033 H 
ATOM      3  H23 AB8 d   1      49.534  21.233  22.403  0.00  0.00     0.033 H 
ENDROOT
BRANCH   1   4
ATOM      4  C12 AB8 d   1      50.494  23.164  22.774  0.00  0.00    -0.040 C 
ATOM      5  H20 AB8 d   1      49.699  23.562  23.422  0.00  0.00     0.036 H 
ATOM      6  H21 AB8 d   1      51.472  23.512  23.138  0.00  0.00     0.036 H 
BRANCH   4   7
ATOM      7  C7  AB8 d   1      50.281  23.713  21.348  0.00  0.00     0.051 C 
ATOM      8  C4  AB8 d   1      50.393  25.278  21.361  0.00  0.00    -0.021 C 
ATOM      9  C2  AB8 d   1      50.045  25.808  19.957  0.00  0.00     0.027 C 
ATOM     10  H17 AB8 d   1      49.691  25.694  22.099  0.00  0.00     0.039 H 
ATOM     11  H18 AB8 d   1      51.419  25.574  21.625  0.00  0.00     0.039 H 
ATOM     12  N1  AB8 d   1      49.177  24.915  19.182  0.00  0.00    -0.319 N 
ATOM     13  H10 AB8 d   1      50.987  25.906  19.398  0.00  0.00     0.073 H 
ATOM     14  C10 AB8 d   1      48.617  23.825  19.741  0.00  0.00     0.363 C 
ATOM     15  O9  AB8 d   1      48.946  23.401  20.954  0.00  0.00    -0.298 OA
ATOM     16  O11 AB8 d   1      47.769  23.162  19.146  0.00  0.00    -0.238 OA
ATOM     17  H19 AB8 d   1      51.013  23.275  20.653  0.00  0.00     0.084 H 
BRANCH   9  18
ATOM     18  C62 AB8 d   1      49.410  27.239  20.094  0.00  0.00     0.028 C 
ATOM     19  H11 AB8 d   1      48.433  27.134  20.588  0.00  0.00     0.050 H 
ATOM     20  H12 AB8 d   1      49.268  27.649  19.083  0.00  0.00     0.050 H 
BRANCH  18  21
ATOM     21  C65 AB8 d   1      50.246  28.234  20.898  0.00  0.00     0.219 C 
ATOM     22  N67 AB8 d   1      49.666  28.884  21.941  0.00  0.00    -0.365 N 
ATOM     23  H13 AB8 d   1      48.849  28.499  22.370  0.00  0.00     0.161 HD
ATOM     24  O66 AB8 d   1      51.427  28.348  20.604  0.00  0.00    -0.274 OA
BRANCH  22  25
ATOM     25  C69 AB8 d   1      50.223  30.140  22.444  0.00  0.00    -0.018 C 
ATOM     26  H14 AB8 d   1      49.612  30.502  23.284  0.00  0.00     0.056 H 
ATOM     27  H15 AB8 d   1      50.221  30.890  21.640  0.00  0.00     0.056 H 
ATOM     28  H16 AB8 d   1      51.255  29.972  22.787  0.00  0.00     0.056 H 
ENDBRANCH  22  25
ENDBRANCH  18  21
ENDBRANCH   9  18
BRANCH  12  29
ATOM     29  C73 AB8 d   1      48.789  25.237  17.821  0.00  0.00     0.024 C 
ATOM     30  H8  AB8 d   1      48.064  24.502  17.441  0.00  0.00     0.071 H 
ATOM     31  H9  AB8 d   1      48.350  26.244  17.771  0.00  0.00     0.071 H 
BRANCH  29  32
ATOM     32  C76 AB8 d   1      50.078  25.176  17.027  0.00  0.00    -0.037 A 
ATOM     33  C83 AB8 d   1      50.652  23.932  16.802  0.00  0.00    -0.072 A 
ATOM     34  C81 AB8 d   1      51.846  23.814  16.097  0.00  0.00    -0.048 A 
ATOM     35  H6  AB8 d   1      50.164  23.041  17.180  0.00  0.00     0.084 H 
ATOM     36  C80 AB8 d   1      52.452  24.970  15.612  0.00  0.00     0.099 A 
ATOM     37  H5  AB8 d   1      52.295  22.842  15.929  0.00  0.00     0.087 H 
ATOM     38  C79 AB8 d   1      51.892  26.228  15.844  0.00  0.00     0.101 A 
ATOM     39  C77 AB8 d   1      50.696  26.331  16.553  0.00  0.00    -0.040 A 
ATOM     40  H7  AB8 d   1      50.250  27.302  16.734  0.00  0.00     0.088 H 
BRANCH  36  41
ATOM     41  O85 AB8 d   1      53.639  24.887  14.894  0.00  0.00    -0.358 OA
ATOM     42  H4  AB8 d   1      53.898  23.976  14.816  0.00  0.00     0.217 HD
ENDBRANCH  36  41
BRANCH  38  43
ATOM     43  O87 AB8 d   1      52.573  27.341  15.317  0.00  0.00    -0.353 OA
BRANCH  43  44
ATOM     44  C88 AB8 d   1      52.363  28.625  15.921  0.00  0.00     0.010 C 
ATOM     45  H1  AB8 d   1      52.964  29.381  15.394  0.00  0.00     0.066 H 
ATOM     46  H2  AB8 d   1      52.666  28.587  16.978  0.00  0.00     0.066 H 
ATOM     47  H3  AB8 d   1      51.298  28.892  15.854  0.00  0.00     0.066 H 
ENDBRANCH  43  44
ENDBRANCH  38  43
ENDBRANCH  29  32
ENDBRANCH  12  29
ENDBRANCH   4   7
ENDBRANCH   1   4
BRANCH   1  48
ATOM     48  C18 AB8 d   1      50.526  21.149  24.332  0.00  0.00    -0.038 C 
ATOM     49  C20 AB8 d   1      50.413  19.613  24.271  0.00  0.00     0.001 C 
ATOM     50  C31 AB8 d   1      50.375  19.071  25.663  0.00  0.00    -0.055 C 
ATOM     51  C22 AB8 d   1      51.583  19.030  23.440  0.00  0.00     0.056 C 
ATOM     52  H25 AB8 d   1      49.471  19.346  23.770  0.00  0.00     0.051 H 
ATOM     53  C32 AB8 d   1      49.722  19.865  26.727  0.00  0.00    -0.080 C 
ATOM     54  C29 AB8 d   1      50.906  17.881  25.945  0.00  0.00    -0.093 C 
ATOM     55  C34 AB8 d   1      49.236  21.069  26.489  0.00  0.00    -0.099 C 
ATOM     56  H26 AB8 d   1      49.641  19.447  27.729  0.00  0.00     0.083 H 
ATOM     57  C36 AB8 d   1      49.355  21.745  25.144  0.00  0.00    -0.037 C 
ATOM     58  H27 AB8 d   1      48.729  21.596  27.296  0.00  0.00     0.077 H 
ATOM     59  H28 AB8 d   1      49.553  22.816  25.300  0.00  0.00     0.046 H 
ATOM     60  C27 AB8 d   1      51.580  16.972  24.951  0.00  0.00    -0.038 C 
ATOM     61  H32 AB8 d   1      50.848  17.539  26.977  0.00  0.00     0.078 H 
ATOM     62  C24 AB8 d   1      51.473  17.478  23.494  0.00  0.00    -0.034 C 
ATOM     63  H33 AB8 d   1      51.082  15.992  24.998  0.00  0.00     0.045 H 
ATOM     64  H37 AB8 d   1      50.504  17.170  23.075  0.00  0.00     0.037 H 
ATOM     65  H38 AB8 d   1      52.286  17.038  22.898  0.00  0.00     0.037 H 
ATOM     66  H39 AB8 d   1      51.519  19.369  22.395  0.00  0.00     0.085 H 
ATOM     67  H24 AB8 d   1      51.480  21.451  24.790  0.00  0.00     0.042 H 
BRANCH  57  68
ATOM     68  C38 AB8 d   1      48.008  21.593  24.396  0.00  0.00    -0.069 C 
ATOM     69  H29 AB8 d   1      47.200  22.028  25.003  0.00  0.00     0.028 H 
ATOM     70  H30 AB8 d   1      47.803  20.526  24.223  0.00  0.00     0.028 H 
ATOM     71  H31 AB8 d   1      48.063  22.117  23.431  0.00  0.00     0.028 H 
ENDBRANCH  57  68
BRANCH  60  72
ATOM     72  C42 AB8 d   1      53.057  16.787  25.361  0.00  0.00    -0.070 C 
ATOM     73  H34 AB8 d   1      53.557  16.124  24.640  0.00  0.00     0.028 H 
ATOM     74  H35 AB8 d   1      53.106  16.340  26.365  0.00  0.00     0.028 H 
ATOM     75  H36 AB8 d   1      53.560  17.765  25.370  0.00  0.00     0.028 H 
ENDBRANCH  60  72
BRANCH  51  76
ATOM     76  O46 AB8 d   1      52.805  19.497  24.022  0.00  0.00    -0.315 OA
BRANCH  76  77
ATOM     77  C47 AB8 d   1      53.887  19.422  23.259  0.00  0.00     0.263 C 
ATOM     78  O48 AB8 d   1      53.859  19.091  22.077  0.00  0.00    -0.265 OA
BRANCH  77  79
ATOM     79  C49 AB8 d   1      55.155  19.760  24.016  0.00  0.00     0.026 C 
ATOM     80  H40 AB8 d   1      54.904  19.993  25.061  0.00  0.00     0.054 H 
BRANCH  79  81
ATOM     81  C58 AB8 d   1      56.140  18.571  23.980  0.00  0.00    -0.064 C 
ATOM     82  H41 AB8 d   1      57.053  18.834  24.534  0.00  0.00     0.028 H 
ATOM     83  H42 AB8 d   1      56.398  18.340  22.936  0.00  0.00     0.028 H 
ATOM     84  H43 AB8 d   1      55.670  17.692  24.445  0.00  0.00     0.028 H 
ENDBRANCH  79  81
BRANCH  79  85
ATOM     85  C51 AB8 d   1      55.809  20.963  23.369  0.00  0.00    -0.057 C 
ATOM     86  H44 AB8 d   1      55.954  20.780  22.294  0.00  0.00     0.033 H 
ATOM     87  H45 AB8 d   1      56.782  21.163  23.842  0.00  0.00     0.033 H 
BRANCH  85  88
ATOM     88  C54 AB8 d   1      54.863  22.163  23.578  0.00  0.00    -0.076 C 
ATOM     89  H46 AB8 d   1      55.303  23.061  23.120  0.00  0.00     0.027 H 
ATOM     90  H47 AB8 d   1      54.719  22.333  24.655  0.00  0.00     0.027 H 
ATOM     91  H48 AB8 d   1      53.892  21.951  23.107  0.00  0.00     0.027 H 
ENDBRANCH  85  88
ENDBRANCH  79  85
ENDBRANCH  77  79
ENDBRANCH  76  77
ENDBRANCH  51  76
ENDBRANCH   1  48
TORSDOF 19
