REMARK  10 active torsions:
REMARK  status: ('A' for Active; 'I' for Inactive)
REMARK    1  A    between atoms: O3B_8  and  PG_1 
REMARK    2  A    between atoms: PB_5  and  O3B_8 
REMARK    3  A    between atoms: O3A_12  and  PB_5 
REMARK    4  A    between atoms: PA_9  and  O3A_12 
REMARK    5  A    between atoms: PA_9  and  O5_13 
REMARK    6  A    between atoms: O5_13  and  C5_14 
REMARK    7  A    between atoms: C5_14  and  C4_15 
REMARK    8  A    between atoms: C2_18  and  O2_19 
REMARK    9  A    between atoms: C1_20  and  N9_21 
REMARK   10  A    between atoms: C6_25  and  N6_26 
ROOT
ATOM      1  C4  3AT d   1      62.243 299.359  39.710  0.00  0.00     0.064 C 
ATOM      2  O4  3AT d   1      61.954 300.749  39.810  0.00  0.00    -0.356 OA
ATOM      3  C3  3AT d   1      60.982 298.638  40.125  0.00  0.00    -0.011 C 
ATOM      4  C2  3AT d   1      60.285 299.691  40.925  0.00  0.00     0.080 C 
ATOM      5  C1  3AT d   1      61.178 300.939  40.957  0.00  0.00     0.137 C 
ATOM      6  H3  3AT d   1      63.043 299.097  40.418  0.00  0.00     0.086 H 
ATOM      7  H4  3AT d   1      61.209 297.753  40.737  0.00  0.00     0.041 H 
ATOM      8  H5  3AT d   1      60.386 298.337  39.251  0.00  0.00     0.041 H 
ATOM      9  H6  3AT d   1      59.341 299.941  40.419  0.00  0.00     0.089 H 
ATOM     10  H8  3AT d   1      61.787 300.970  41.873  0.00  0.00     0.122 H 
ENDROOT
BRANCH   1  11
ATOM     11  C5  3AT d   1      62.736 299.043  38.320  0.00  0.00     0.056 C 
ATOM     12  H1  3AT d   1      62.017 298.364  37.838  0.00  0.00     0.079 H 
ATOM     13  H2  3AT d   1      62.796 299.980  37.747  0.00  0.00     0.079 H 
BRANCH  11  14
ATOM     14  O5  3AT d   1      64.034 298.417  38.315  0.00  0.00    -0.287 OA
BRANCH  14  15
ATOM     15  PA  3AT d   1      64.297 296.932  37.874  0.00  0.00     0.417 P 
ATOM     16  O1A 3AT d   1      63.383 296.023  38.590  0.00  0.00    -0.624 OA
ATOM     17  O2A 3AT d   1      65.772 296.702  38.076  0.00  0.00    -0.624 OA
BRANCH  15  18
ATOM     18  O3A 3AT d   1      63.711 296.880  36.337  0.00  0.00    -0.180 OA
BRANCH  18  19
ATOM     19  PB  3AT d   1      63.632 295.734  35.221  0.00  0.00     0.428 P 
ATOM     20  O1B 3AT d   1      62.299 296.111  34.480  0.00  0.00    -0.624 OA
ATOM     21  O2B 3AT d   1      64.868 295.779  34.389  0.00  0.00    -0.624 OA
BRANCH  19  22
ATOM     22  O3B 3AT d   1      63.483 294.190  35.896  0.00  0.00    -0.173 OA
BRANCH  22  23
ATOM     23  PG  3AT d   1      64.120 293.151  37.015  0.00  0.00     0.431 P 
ATOM     24  O1G 3AT d   1      63.146 292.838  38.066  0.00  0.00    -0.616 OA
ATOM     25  O2G 3AT d   1      65.184 293.887  37.632  0.00  0.00    -0.616 OA
ATOM     26  O3G 3AT d   1      64.620 291.882  36.342  0.00  0.00    -0.616 OA
ENDBRANCH  22  23
ENDBRANCH  19  22
ENDBRANCH  18  19
ENDBRANCH  15  18
ENDBRANCH  14  15
ENDBRANCH  11  14
ENDBRANCH   1  11
BRANCH   5  27
ATOM     27  N9  3AT d   1      60.425 302.209  40.811  0.00  0.00    -0.294 N 
ATOM     28  C8  3AT d   1      60.391 303.088  39.743  0.00  0.00     0.071 A 
ATOM     29  N7  3AT d   1      59.640 304.129  39.904  0.00  0.00    -0.236 NA
ATOM     30  H9  3AT d   1      60.958 302.915  38.829  0.00  0.00     0.144 H 
ATOM     31  C5  3AT d   1      59.140 303.932  41.155  0.00  0.00     0.149 A 
ATOM     32  C6  3AT d   1      58.263 304.693  41.953  0.00  0.00     0.155 A 
ATOM     33  C4  3AT d   1      59.613 302.761  41.734  0.00  0.00     0.167 A 
ATOM     34  N1  3AT d   1      57.923 304.243  43.208  0.00  0.00    -0.222 NA
ATOM     35  C2  3AT d   1      58.445 303.074  43.666  0.00  0.00     0.091 A 
ATOM     36  N3  3AT d   1      59.301 302.254  43.000  0.00  0.00    -0.222 NA
ATOM     37  H12 3AT d   1      58.149 302.765  44.662  0.00  0.00     0.146 H 
BRANCH  32  38
ATOM     38  N6  3AT d   1      57.772 305.815  41.497  0.00  0.00    -0.382 N 
ATOM     39  H10 3AT d   1      57.131 306.371  42.080  0.00  0.00     0.157 HD
ATOM     40  H11 3AT d   1      58.026 306.143  40.554  0.00  0.00     0.157 HD
ENDBRANCH  32  38
ENDBRANCH   5  27
BRANCH   4  41
ATOM     41  O2  3AT d   1      59.977 299.279  42.237  0.00  0.00    -0.391 OA
ATOM     42  H7  3AT d   1      59.537 299.986  42.695  0.00  0.00     0.210 HD
ENDBRANCH   4  41
TORSDOF 10
