REMARK  1 active torsions:
REMARK  status: ('A' for Active; 'I' for Inactive)
REMARK    1  A    between atoms: C6_8  and  C7_9 
ROOT
ATOM      1  O2  DOR d   1      24.908  37.392  72.778  0.00  0.00    -0.247 OA
ATOM      2  C2  DOR d   1      25.688  38.334  72.659  0.00  0.00     0.323 C 
ATOM      3  N1  DOR d   1      25.221  39.577  72.599  0.00  0.00    -0.328 N 
ATOM      4  N3  DOR d   1      27.005  38.132  72.503  0.00  0.00    -0.279 N 
ATOM      5  C4  DOR d   1      27.882  39.101  72.116  0.00  0.00     0.228 C 
ATOM      6  O4  DOR d   1      29.080  38.891  71.890  0.00  0.00    -0.273 OA
ATOM      7  C5  DOR d   1      27.382  40.531  71.987  0.00  0.00     0.038 C 
ATOM      8  C6  DOR d   1      26.105  40.707  72.798  0.00  0.00     0.106 C 
ATOM      9  H1  DOR d   1      24.251  39.733  72.415  0.00  0.00     0.165 HD
ATOM     10  H2  DOR d   1      27.365  37.216  72.681  0.00  0.00     0.173 HD
ATOM     11  H3  DOR d   1      27.176  40.752  70.929  0.00  0.00     0.051 H 
ATOM     12  H4  DOR d   1      28.151  41.222  72.363  0.00  0.00     0.051 H 
ATOM     13  H5  DOR d   1      26.361  40.782  73.865  0.00  0.00     0.090 H 
ENDROOT
BRANCH   8  14
ATOM     14  C7  DOR d   1      25.420  41.961  72.363  0.00  0.00     0.197 C 
ATOM     15  O72 DOR d   1      26.013  43.046  72.488  0.00  0.00    -0.646 OA
ATOM     16  O71 DOR d   1      24.274  41.850  71.891  0.00  0.00    -0.646 OA
ENDBRANCH   8  14
TORSDOF 1
