REMARK  6 active torsions:
REMARK  status: ('A' for Active; 'I' for Inactive)
REMARK    1  A    between atoms: N1_1  and  S13_2 
REMARK    2  A    between atoms: N1_1  and  C2_13 
REMARK    3  A    between atoms: S13_2  and  C15_5 
REMARK    4  A    between atoms: C18_9  and  C21_10 
REMARK    5  A    between atoms: C4_14  and  O1_19 
REMARK    6  A    between atoms: C7_16  and  C_20 
ROOT
ATOM      1  N1  HTC d   1     -57.159   4.326  57.582  0.00  0.00    -0.278 N 
ATOM      2  H1  HTC d   1     -57.006   3.354  57.763  0.00  0.00     0.179 HD
ENDROOT
BRANCH   1   3
ATOM      3  S13 HTC d   1     -55.826   5.462  57.705  0.00  0.00     0.264 S 
ATOM      4  O17 HTC d   1     -55.790   6.180  56.474  0.00  0.00    -0.200 OA
ATOM      5  O16 HTC d   1     -54.595   4.713  57.900  0.00  0.00    -0.200 OA
BRANCH   3   6
ATOM      6  C15 HTC d   1     -56.063   6.690  59.086  0.00  0.00     0.104 A 
ATOM      7  C19 HTC d   1     -56.190   8.075  58.887  0.00  0.00    -0.052 A 
ATOM      8  C22 HTC d   1     -56.355   8.700  60.129  0.00  0.00    -0.043 A 
ATOM      9  H2  HTC d   1     -56.164   8.581  57.923  0.00  0.00     0.086 H 
ATOM     10  S20 HTC d   1     -56.332   7.709  61.140  0.00  0.00    -0.094 SA
ATOM     11  H3  HTC d   1     -56.480   9.770  60.290  0.00  0.00     0.095 H 
ATOM     12  C18 HTC d   1     -56.148   6.445  60.485  0.00  0.00     0.104 A 
BRANCH  12  13
ATOM     13  C21 HTC d   1     -56.069   5.136  61.199  0.00  0.00     0.218 C 
ATOM     14  O24 HTC d   1     -56.150   5.127  62.435  0.00  0.00    -0.643 OA
ATOM     15  O23 HTC d   1     -55.916   3.996  60.531  0.00  0.00    -0.643 OA
ENDBRANCH  12  13
ENDBRANCH   3   6
ENDBRANCH   1   3
BRANCH   1  16
ATOM     16  C2  HTC d   1     -58.461   4.790  57.224  0.00  0.00     0.075 A 
ATOM     17  C4  HTC d   1     -58.970   4.586  55.881  0.00  0.00     0.093 A 
ATOM     18  C6  HTC d   1     -60.283   5.041  55.534  0.00  0.00    -0.032 A 
ATOM     19  C7  HTC d   1     -61.102   5.706  56.533  0.00  0.00     0.043 A 
ATOM     20  H4  HTC d   1     -60.664   4.890  54.531  0.00  0.00     0.089 H 
ATOM     21  C5  HTC d   1     -60.598   5.917  57.872  0.00  0.00    -0.064 A 
ATOM     22  C3  HTC d   1     -59.283   5.462  58.218  0.00  0.00    -0.053 A 
ATOM     23  H5  HTC d   1     -61.212   6.418  58.612  0.00  0.00     0.085 H 
ATOM     24  H6  HTC d   1     -58.901   5.619  59.221  0.00  0.00     0.087 H 
BRANCH  17  25
ATOM     25  O1  HTC d   1     -58.203   3.953  54.936  0.00  0.00    -0.358 OA
ATOM     26  H7  HTC d   1     -57.366   3.714  55.317  0.00  0.00     0.217 HD
ENDBRANCH  17  25
BRANCH  19  27
ATOM     27  C   HTC d   1     -62.494   6.181  56.169  0.00  0.00     0.209 C 
ATOM     28  O   HTC d   1     -63.261   6.799  57.082  0.00  0.00    -0.644 OA
ATOM     29  O25 HTC d   1     -62.926   5.996  55.027  0.00  0.00    -0.644 OA
ENDBRANCH  19  27
ENDBRANCH   1  16
TORSDOF 6
