REMARK WARNING: 32 MAX_TORS EXCEEDED!!!
REMARK  55 active torsions:
REMARK  status: ('A' for Active; 'I' for Inactive)
REMARK    1  A    between atoms: N_1  and  CA_2 
REMARK    2  A    between atoms: CA_2  and  C_3 
REMARK    3  A    between atoms: CA_2  and  CB_5 
REMARK       I    between atoms: C_3  and  N_9 
REMARK    4  A    between atoms: CB_5  and  CG_6 
REMARK    5  A    between atoms: CG_6  and  CD1_7 
REMARK    6  A    between atoms: CG_6  and  CD2_8 
REMARK    7  A    between atoms: CA_10  and  C_11 
REMARK       I    between atoms: C_11  and  N_16 
REMARK    8  A    between atoms: N_16  and  CA_17 
REMARK    9  A    between atoms: CA_17  and  C_18 
REMARK   10  A    between atoms: CA_17  and  CB_20 
REMARK       I    between atoms: C_18  and  N_21 
REMARK   11  A    between atoms: N_21  and  CA_22 
REMARK   12  A    between atoms: CA_22  and  C_23 
REMARK   13  A    between atoms: CA_22  and  CB_25 
REMARK       I    between atoms: C_23  and  N_28 
REMARK   14  A    between atoms: CB_25  and  CG1_26 
REMARK   15  A    between atoms: CB_25  and  CG2_27 
REMARK   16  A    between atoms: N_28  and  CA_29 
REMARK   17  A    between atoms: CA_29  and  C_30 
REMARK   18  A    between atoms: CA_29  and  CB_32 
REMARK       I    between atoms: C_30  and  N_35 
REMARK   19  A    between atoms: CB_32  and  CG1_33 
REMARK   20  A    between atoms: CB_32  and  CG2_34 
REMARK   21  A    between atoms: N_35  and  CA_36 
REMARK   22  A    between atoms: CA_36  and  C_37 
REMARK       I    between atoms: C_37  and  N_39 
REMARK   23  A    between atoms: N_39  and  CA_40 
REMARK   24  A    between atoms: CA_40  and  C_41 
REMARK   25  A    between atoms: CA_40  and  CB_43 
REMARK       I    between atoms: C_41  and  N_47 
REMARK   26  A    between atoms: CB_43  and  CG_44 
REMARK   27  A    between atoms: CG_44  and  CD1_45 
REMARK   28  A    between atoms: CG_44  and  CD2_46 
REMARK   29  A    between atoms: N_47  and  CA_48 
REMARK   30  A    between atoms: CA_48  and  C_49 
REMARK   31  A    between atoms: CA_48  and  CB_51 
REMARK       I    between atoms: C_49  and  N_53 
REMARK   32  A    between atoms: CB_51  and  OG_52 
REMARK   33  A    between atoms: CA_54  and  C_55 
REMARK       I    between atoms: C_55  and  N_60 
REMARK   34  A    between atoms: N_60  and  CA_61 
REMARK   35  A    between atoms: CA_61  and  C_62 
REMARK       I    between atoms: C_62  and  N_64 
REMARK   36  A    between atoms: N_64  and  CA_65 
REMARK   37  A    between atoms: CA_65  and  C_66 
REMARK   38  A    between atoms: CA_65  and  CB_68 
REMARK       I    between atoms: C_66  and  N_73 
REMARK   39  A    between atoms: CB_68  and  CG_69 
REMARK   40  A    between atoms: CG_69  and  CD_70 
REMARK   41  A    between atoms: N_73  and  CA_74 
REMARK   42  A    between atoms: CA_74  and  C_75 
REMARK   43  A    between atoms: CA_74  and  CB_77 
REMARK       I    between atoms: C_75  and  N_82 
REMARK   44  A    between atoms: CB_77  and  CG_78 
REMARK   45  A    between atoms: CG_78  and  CD_79 
REMARK       I    between atoms: CD_79  and  NE2_81 
REMARK   46  A    between atoms: N_82  and  CA_83 
REMARK   47  A    between atoms: CA_83  and  C_84 
REMARK   48  A    between atoms: CA_83  and  CB_86 
REMARK       I    between atoms: C_84  and  N_91 
REMARK   49  A    between atoms: CB_86  and  CG_87 
REMARK   50  A    between atoms: CG_87  and  CD_88 
REMARK   51  A    between atoms: N_91  and  CA_92 
REMARK   52  A    between atoms: CA_92  and  C_93 
REMARK   53  A    between atoms: CA_92  and  CB_95 
REMARK   54  A    between atoms: CB_95  and  CG_96 
REMARK   55  A    between atoms: CZ_101  and  OH_102 
ROOT
ATOM      1  C   LEU d   1      -6.113  25.521  10.688  0.00  0.00     0.241 C 
ATOM      2  O   LEU d   1      -5.775  25.742   9.510  0.00  0.00    -0.271 OA
ATOM      3  N   SER d   1      -6.372  26.471  11.582  0.00  0.00    -0.344 N 
ATOM      4  H58 SER d   1      -6.657  26.191  12.499  0.00  0.00     0.163 HD
ENDROOT
BRANCH   1   5
ATOM      5  CA  LEU d   1      -6.281  24.098  11.213  0.00  0.00     0.089 C 
ATOM      6  H48 LEU d   1      -5.777  23.393  10.536  0.00  0.00     0.087 H 
BRANCH   5   7
ATOM      7  N   LEU d   1      -5.695  23.988  12.545  0.00  0.00    -0.346 N 
ATOM      8  C   GLY d   1      -4.445  24.345  12.834  0.00  0.00     0.236 C 
ATOM      9  O   GLY d   1      -3.590  24.649  11.996  0.00  0.00    -0.272 OA
ATOM     10  H47 LEU d   1      -6.264  23.624  13.282  0.00  0.00     0.163 HD
BRANCH   8  11
ATOM     11  CA  GLY d   1      -4.119  24.345  14.304  0.00  0.00     0.069 C 
ATOM     12  H45 GLY d   1      -4.183  25.379  14.675  0.00  0.00     0.078 H 
ATOM     13  H46 GLY d   1      -4.861  23.722  14.825  0.00  0.00     0.078 H 
BRANCH  11  14
ATOM     14  N   GLY d   1      -2.796  23.831  14.604  0.00  0.00    -0.351 N 
ATOM     15  C   VAL d   1      -1.753  24.635  14.766  0.00  0.00     0.241 C 
ATOM     16  O   VAL d   1      -1.699  25.765  14.276  0.00  0.00    -0.271 OA
ATOM     17  H44 GLY d   1      -2.667  22.843  14.691  0.00  0.00     0.163 HD
BRANCH  15  18
ATOM     18  CA  VAL d   1      -0.583  24.079  15.575  0.00  0.00     0.092 C 
ATOM     19  H36 VAL d   1      -0.252  23.115  15.161  0.00  0.00     0.088 H 
BRANCH  18  20
ATOM     20  N   VAL d   1       0.509  25.043  15.533  0.00  0.00    -0.346 N 
ATOM     21  C   VAL d   1       1.711  24.804  15.016  0.00  0.00     0.241 C 
ATOM     22  O   VAL d   1       2.013  23.777  14.410  0.00  0.00    -0.271 OA
ATOM     23  H35 VAL d   1       0.343  25.950  15.921  0.00  0.00     0.163 HD
BRANCH  21  24
ATOM     24  CA  VAL d   1       2.730  25.931  15.198  0.00  0.00     0.092 C 
ATOM     25  H27 VAL d   1       2.268  26.744  15.777  0.00  0.00     0.088 H 
BRANCH  24  26
ATOM     26  N   VAL d   1       3.885  25.419  15.948  0.00  0.00    -0.346 N 
ATOM     27  C   ALA d   1       4.367  26.047  17.018  0.00  0.00     0.240 C 
ATOM     28  O   ALA d   1       4.023  27.183  17.335  0.00  0.00    -0.271 OA
ATOM     29  H26 VAL d   1       4.323  24.572  15.645  0.00  0.00     0.163 HD
BRANCH  27  30
ATOM     30  CA  ALA d   1       5.307  25.258  17.913  0.00  0.00     0.086 C 
ATOM     31  H22 ALA d   1       5.822  24.496  17.310  0.00  0.00     0.086 H 
BRANCH  30  32
ATOM     32  N   ALA d   1       6.307  26.119  18.545  0.00  0.00    -0.346 N 
ATOM     33  C   PRO d   1       7.443  26.477  17.953  0.00  0.00     0.241 C 
ATOM     34  O   PRO d   1       7.704  26.198  16.774  0.00  0.00    -0.271 OA
ATOM     35  H21 ALA d   1       6.127  26.456  19.469  0.00  0.00     0.163 HD
BRANCH  33  36
ATOM     36  CA  PRO d   1       8.398  27.324  18.781  0.00  0.00     0.091 C 
ATOM     37  N   PRO d   1       9.687  27.564  18.145  0.00  0.00    -0.337 N 
ATOM     38  C   LEU d   1      10.618  26.579  18.104  0.00  0.00     0.251 C 
ATOM     39  CD  PRO d   1       9.785  28.944  17.644  0.00  0.00    -0.001 C 
ATOM     40  O   LEU d   1      10.403  25.438  18.488  0.00  0.00    -0.271 OA
ATOM     41  CG  PRO d   1       8.382  29.482  17.797  0.00  0.00    -0.048 C 
ATOM     42  H19 PRO d   1      10.097  28.957  16.589  0.00  0.00     0.064 H 
ATOM     43  H20 PRO d   1      10.497  29.529  18.244  0.00  0.00     0.064 H 
ATOM     44  CB  PRO d   1       7.826  28.742  18.967  0.00  0.00    -0.036 C 
ATOM     45  H17 PRO d   1       8.399  30.564  17.994  0.00  0.00     0.035 H 
ATOM     46  H18 PRO d   1       7.788  29.283  16.893  0.00  0.00     0.035 H 
ATOM     47  H15 PRO d   1       8.167  29.185  19.914  0.00  0.00     0.036 H 
ATOM     48  H16 PRO d   1       6.726  28.732  18.942  0.00  0.00     0.036 H 
ATOM     49  H14 PRO d   1       8.547  26.834  19.754  0.00  0.00     0.087 H 
BRANCH  38  50
ATOM     50  CA  LEU d   1      11.978  26.880  17.509  0.00  0.00     0.176 C 
ATOM     51  H4  LEU d   1      12.100  27.967  17.392  0.00  0.00     0.099 H 
BRANCH  50  52
ATOM     52  N   LEU d   1      13.062  26.356  18.394  0.00  0.00    -0.066 N 
ATOM     53  H1  LEU d   1      13.960  26.564  17.985  0.00  0.00     0.275 HD
ATOM     54  H2  LEU d   1      12.961  25.358  18.494  0.00  0.00     0.275 HD
ATOM     55  H3  LEU d   1      12.996  26.793  19.300  0.00  0.00     0.275 HD
ENDBRANCH  50  52
BRANCH  50  56
ATOM     56  CB  LEU d   1      12.045  26.199  16.135  0.00  0.00    -0.028 C 
ATOM     57  H5  LEU d   1      11.898  25.120  16.289  0.00  0.00     0.037 H 
ATOM     58  H6  LEU d   1      13.049  26.377  15.722  0.00  0.00     0.037 H 
BRANCH  56  59
ATOM     59  CG  LEU d   1      11.034  26.659  15.102  0.00  0.00    -0.059 C 
ATOM     60  H7  LEU d   1      10.083  26.864  15.614  0.00  0.00     0.038 H 
BRANCH  59  61
ATOM     61  CD1 LEU d   1      11.548  27.954  14.492  0.00  0.00    -0.073 C 
ATOM     62  H8  LEU d   1      10.833  28.313  13.737  0.00  0.00     0.028 H 
ATOM     63  H9  LEU d   1      12.524  27.774  14.017  0.00  0.00     0.028 H 
ATOM     64  H10 LEU d   1      11.659  28.712  15.281  0.00  0.00     0.028 H 
ENDBRANCH  59  61
BRANCH  59  65
ATOM     65  CD2 LEU d   1      10.762  25.591  14.015  0.00  0.00    -0.073 C 
ATOM     66  H11 LEU d   1      10.393  24.670  14.490  0.00  0.00     0.028 H 
ATOM     67  H12 LEU d   1      11.694  25.375  13.472  0.00  0.00     0.028 H 
ATOM     68  H13 LEU d   1      10.006  25.969  13.311  0.00  0.00     0.028 H 
ENDBRANCH  59  65
ENDBRANCH  56  59
ENDBRANCH  50  56
ENDBRANCH  38  50
ENDBRANCH  33  36
ENDBRANCH  30  32
BRANCH  30  69
ATOM     69  CB  ALA d   1       4.481  24.583  18.991  0.00  0.00    -0.049 C 
ATOM     70  H23 ALA d   1       3.727  23.934  18.522  0.00  0.00     0.030 H 
ATOM     71  H24 ALA d   1       3.978  25.348  19.601  0.00  0.00     0.030 H 
ATOM     72  H25 ALA d   1       5.139  23.977  19.632  0.00  0.00     0.030 H 
ENDBRANCH  30  69
ENDBRANCH  27  30
ENDBRANCH  24  26
BRANCH  24  73
ATOM     73  CB  VAL d   1       3.135  26.480  13.828  0.00  0.00    -0.033 C 
ATOM     74  H28 VAL d   1       3.484  25.642  13.207  0.00  0.00     0.042 H 
BRANCH  73  75
ATOM     75  CG1 VAL d   1       1.948  27.141  13.125  0.00  0.00    -0.071 C 
ATOM     76  H29 VAL d   1       2.269  27.525  12.146  0.00  0.00     0.028 H 
ATOM     77  H30 VAL d   1       1.574  27.973  13.740  0.00  0.00     0.028 H 
ATOM     78  H31 VAL d   1       1.147  26.401  12.984  0.00  0.00     0.028 H 
ENDBRANCH  73  75
BRANCH  73  79
ATOM     79  CG2 VAL d   1       4.251  27.457  13.980  0.00  0.00    -0.071 C 
ATOM     80  H32 VAL d   1       5.098  26.971  14.486  0.00  0.00     0.028 H 
ATOM     81  H33 VAL d   1       3.909  28.314  14.579  0.00  0.00     0.028 H 
ATOM     82  H34 VAL d   1       4.570  27.807  12.987  0.00  0.00     0.028 H 
ENDBRANCH  73  79
ENDBRANCH  24  73
ENDBRANCH  21  24
ENDBRANCH  18  20
BRANCH  18  83
ATOM     83  CB  VAL d   1      -1.065  23.898  17.043  0.00  0.00    -0.033 C 
ATOM     84  H37 VAL d   1      -1.471  24.861  17.385  0.00  0.00     0.042 H 
BRANCH  83  85
ATOM     85  CG1 VAL d   1      -2.178  22.855  17.159  0.00  0.00    -0.071 C 
ATOM     86  H38 VAL d   1      -2.485  22.762  18.211  0.00  0.00     0.028 H 
ATOM     87  H39 VAL d   1      -1.810  21.884  16.797  0.00  0.00     0.028 H 
ATOM     88  H40 VAL d   1      -3.040  23.169  16.552  0.00  0.00     0.028 H 
ENDBRANCH  83  85
BRANCH  83  89
ATOM     89  CG2 VAL d   1       0.101  23.534  17.940  0.00  0.00    -0.071 C 
ATOM     90  H41 VAL d   1       0.890  24.295  17.843  0.00  0.00     0.028 H 
ATOM     91  H42 VAL d   1       0.499  22.553  17.643  0.00  0.00     0.028 H 
ATOM     92  H43 VAL d   1      -0.240  23.491  18.985  0.00  0.00     0.028 H 
ENDBRANCH  83  89
ENDBRANCH  18  83
ENDBRANCH  15  18
ENDBRANCH  11  14
ENDBRANCH   8  11
ENDBRANCH   5   7
BRANCH   5  93
ATOM     93  CB  LEU d   1      -7.782  23.774  11.267  0.00  0.00    -0.035 C 
ATOM     94  H49 LEU d   1      -8.197  24.007  10.275  0.00  0.00     0.037 H 
ATOM     95  H50 LEU d   1      -8.229  24.442  12.018  0.00  0.00     0.037 H 
BRANCH  93  96
ATOM     96  CG  LEU d   1      -8.226  22.347  11.616  0.00  0.00    -0.059 C 
ATOM     97  H51 LEU d   1      -7.836  22.102  12.615  0.00  0.00     0.038 H 
BRANCH  96  98
ATOM     98  CD1 LEU d   1      -9.751  22.252  11.659  0.00  0.00    -0.073 C 
ATOM     99  H52 LEU d   1     -10.047  21.223  11.910  0.00  0.00     0.028 H 
ATOM    100  H53 LEU d   1     -10.163  22.522  10.676  0.00  0.00     0.028 H 
ATOM    101  H54 LEU d   1     -10.140  22.942  12.422  0.00  0.00     0.028 H 
ENDBRANCH  96  98
BRANCH  96 102
ATOM    102  CD2 LEU d   1      -7.662  21.335  10.621  0.00  0.00    -0.073 C 
ATOM    103  H55 LEU d   1      -6.565  21.414  10.600  0.00  0.00     0.028 H 
ATOM    104  H56 LEU d   1      -8.064  21.543   9.618  0.00  0.00     0.028 H 
ATOM    105  H57 LEU d   1      -7.951  20.319  10.928  0.00  0.00     0.028 H 
ENDBRANCH  96 102
ENDBRANCH  93  96
ENDBRANCH   5  93
ENDBRANCH   1   5
BRANCH   3 106
ATOM    106  CA  SER d   1      -6.264  27.891  11.303  0.00  0.00     0.109 C 
ATOM    107  H59 SER d   1      -5.495  28.069  10.537  0.00  0.00     0.090 H 
BRANCH 106 108
ATOM    108  C   SER d   1      -5.859  28.586  12.610  0.00  0.00     0.245 C 
ATOM    109  O   SER d   1      -5.787  27.933  13.664  0.00  0.00    -0.271 OA
ATOM    110  N   PRO d   1      -5.531  29.891  12.543  0.00  0.00    -0.337 N 
ATOM    111  CA  PRO d   1      -5.552  30.710  13.762  0.00  0.00     0.091 C 
ATOM    112  CD  PRO d   1      -5.018  30.647  11.386  0.00  0.00    -0.001 C 
ATOM    113  CB  PRO d   1      -5.726  32.137  13.226  0.00  0.00    -0.036 C 
ATOM    114  H63 PRO d   1      -4.599  30.611  14.302  0.00  0.00     0.087 H 
ATOM    115  CG  PRO d   1      -5.324  32.082  11.740  0.00  0.00    -0.048 C 
ATOM    116  H64 PRO d   1      -5.074  32.833  13.773  0.00  0.00     0.036 H 
ATOM    117  H65 PRO d   1      -6.773  32.459  13.327  0.00  0.00     0.036 H 
ATOM    118  H66 PRO d   1      -4.433  32.705  11.572  0.00  0.00     0.035 H 
ATOM    119  H67 PRO d   1      -6.152  32.451  11.117  0.00  0.00     0.035 H 
ATOM    120  H68 PRO d   1      -5.536  30.351  10.462  0.00  0.00     0.064 H 
ATOM    121  H69 PRO d   1      -3.935  30.494  11.265  0.00  0.00     0.064 H 
BRANCH 111 122
ATOM    122  C   PRO d   1      -6.702  30.345  14.718  0.00  0.00     0.241 C 
ATOM    123  O   PRO d   1      -6.476  30.196  15.918  0.00  0.00    -0.271 OA
ATOM    124  N   GLY d   1      -7.910  30.176  14.175  0.00  0.00    -0.351 N 
ATOM    125  H70 GLY d   1      -8.016  30.308  13.189  0.00  0.00     0.163 HD
BRANCH 124 126
ATOM    126  CA  GLY d   1      -9.086  29.805  14.965  0.00  0.00     0.069 C 
ATOM    127  H71 GLY d   1      -9.933  29.674  14.275  0.00  0.00     0.078 H 
ATOM    128  H72 GLY d   1      -9.304  30.629  15.660  0.00  0.00     0.078 H 
BRANCH 126 129
ATOM    129  C   GLY d   1      -8.938  28.531  15.777  0.00  0.00     0.236 C 
ATOM    130  O   GLY d   1      -9.335  28.483  16.944  0.00  0.00    -0.272 OA
ATOM    131  N   GLU d   1      -8.361  27.492  15.167  0.00  0.00    -0.346 N 
ATOM    132  H73 GLU d   1      -8.021  27.597  14.232  0.00  0.00     0.163 HD
BRANCH 131 133
ATOM    133  CA  GLU d   1      -8.218  26.195  15.849  0.00  0.00     0.090 C 
ATOM    134  H74 GLU d   1      -9.197  25.973  16.299  0.00  0.00     0.087 H 
BRANCH 133 135
ATOM    135  C   GLU d   1      -7.202  26.171  16.983  0.00  0.00     0.241 C 
ATOM    136  O   GLU d   1      -7.165  25.207  17.762  0.00  0.00    -0.271 OA
ATOM    137  N   GLN d   1      -6.382  27.217  17.063  0.00  0.00    -0.346 N 
ATOM    138  H79 GLN d   1      -6.413  27.915  16.348  0.00  0.00     0.163 HD
BRANCH 137 139
ATOM    139  CA  GLN d   1      -5.440  27.372  18.164  0.00  0.00     0.090 C 
ATOM    140  H80 GLN d   1      -5.024  26.382  18.402  0.00  0.00     0.087 H 
BRANCH 139 141
ATOM    141  C   GLN d   1      -6.126  27.912  19.427  0.00  0.00     0.241 C 
ATOM    142  O   GLN d   1      -5.537  27.880  20.512  0.00  0.00    -0.271 OA
ATOM    143  N   GLU d   1      -7.346  28.430  19.303  0.00  0.00    -0.346 N 
ATOM    144  H87 GLU d   1      -7.802  28.420  18.413  0.00  0.00     0.163 HD
BRANCH 143 145
ATOM    145  CA  GLU d   1      -8.026  29.016  20.464  0.00  0.00     0.090 C 
ATOM    146  H88 GLU d   1      -7.338  29.757  20.897  0.00  0.00     0.087 H 
BRANCH 145 147
ATOM    147  C   GLU d   1      -8.359  28.018  21.545  0.00  0.00     0.241 C 
ATOM    148  O   GLU d   1      -8.707  26.869  21.275  0.00  0.00    -0.271 OA
ATOM    149  N   TYR d   1      -8.277  28.481  22.785  0.00  0.00    -0.344 N 
ATOM    150  H93 TYR d   1      -7.854  29.373  22.943  0.00  0.00     0.163 HD
BRANCH 149 151
ATOM    151  CA  TYR d   1      -8.785  27.729  23.921  0.00  0.00     0.100 C 
ATOM    152  H94 TYR d   1      -8.424  26.692  23.853  0.00  0.00     0.090 H 
BRANCH 151 153
ATOM    153  C   TYR d   1     -10.310  27.724  23.893  0.00  0.00     0.197 C 
ATOM    154  O   TYR d   1     -10.889  28.557  23.167  0.00  0.00    -0.646 OA
ATOM    155  OXT TYR d   1     -10.941  26.969  24.626  0.00  0.00    -0.646 OA
ENDBRANCH 151 153
BRANCH 151 156
ATOM    156  CB  TYR d   1      -8.276  28.345  25.232  0.00  0.00    -0.013 C 
ATOM    157  H95 TYR d   1      -8.850  27.898  26.057  0.00  0.00     0.043 H 
ATOM    158  H96 TYR d   1      -8.473  29.427  25.193  0.00  0.00     0.043 H 
BRANCH 156 159
ATOM    159  CG  TYR d   1      -6.804  28.155  25.537  0.00  0.00    -0.056 A 
ATOM    160  CD1 TYR d   1      -5.790  28.677  24.707  0.00  0.00    -0.074 A 
ATOM    161  CE1 TYR d   1      -4.460  28.532  25.007  0.00  0.00    -0.051 A 
ATOM    162  H97 TYR d   1      -6.071  29.209  23.805  0.00  0.00     0.084 H 
ATOM    163  CZ  TYR d   1      -4.104  27.823  26.148  0.00  0.00     0.065 A 
ATOM    164  H99 TYR d   1      -3.700  28.963  24.366  0.00  0.00     0.087 H 
ATOM    165  CE2 TYR d   1      -5.071  27.304  26.974  0.00  0.00    -0.051 A 
ATOM    166  CD2 TYR d   1      -6.420  27.473  26.671  0.00  0.00    -0.074 A 
ATOM    167 0H10 TYR d   1      -4.783  26.760  27.866  0.00  0.00     0.087 H 
ATOM    168  H98 TYR d   1      -7.175  27.064  27.333  0.00  0.00     0.084 H 
BRANCH 163 169
ATOM    169  OH  TYR d   1      -2.765  27.695  26.453  0.00  0.00    -0.361 OA
ATOM    170 1H10 TYR d   1      -2.540  26.774  26.505  0.00  0.00     0.217 HD
ENDBRANCH 163 169
ENDBRANCH 156 159
ENDBRANCH 151 156
ENDBRANCH 149 151
ENDBRANCH 145 147
BRANCH 145 171
ATOM    171  CB  GLU d   1      -9.316  29.745  20.060  0.00  0.00    -0.029 C 
ATOM    172  H89 GLU d   1      -9.863  30.021  20.973  0.00  0.00     0.037 H 
ATOM    173  H90 GLU d   1      -9.931  29.061  19.457  0.00  0.00     0.037 H 
BRANCH 171 174
ATOM    174  CG  GLU d   1      -9.056  31.011  19.247  0.00  0.00     0.018 C 
ATOM    175  H91 GLU d   1      -8.510  30.734  18.333  0.00  0.00     0.049 H 
ATOM    176  H92 GLU d   1      -8.439  31.694  19.850  0.00  0.00     0.049 H 
BRANCH 174 177
ATOM    177  CD  GLU d   1     -10.324  31.733  18.849  0.00  0.00     0.172 C 
ATOM    178  OE1 GLU d   1     -11.409  31.493  19.432  0.00  0.00    -0.648 OA
ATOM    179  OE2 GLU d   1     -10.212  32.559  17.923  0.00  0.00    -0.648 OA
ENDBRANCH 174 177
ENDBRANCH 171 174
ENDBRANCH 145 171
ENDBRANCH 143 145
ENDBRANCH 139 141
BRANCH 139 180
ATOM    180  CB  GLN d   1      -4.292  28.286  17.731  0.00  0.00    -0.030 C 
ATOM    181  H81 GLN d   1      -3.669  28.502  18.611  0.00  0.00     0.037 H 
ATOM    182  H82 GLN d   1      -4.720  29.223  17.346  0.00  0.00     0.037 H 
BRANCH 180 183
ATOM    183  CG  GLN d   1      -3.392  27.674  16.634  0.00  0.00     0.011 C 
ATOM    184  H83 GLN d   1      -4.036  27.173  15.897  0.00  0.00     0.047 H 
ATOM    185  H84 GLN d   1      -2.728  26.933  17.104  0.00  0.00     0.047 H 
BRANCH 183 186
ATOM    186  CD  GLN d   1      -2.520  28.708  15.894  0.00  0.00     0.215 C 
ATOM    187  OE1 GLN d   1      -2.366  29.855  16.333  0.00  0.00    -0.274 OA
ATOM    188  NE2 GLN d   1      -1.923  28.283  14.776  0.00  0.00    -0.370 N 
ATOM    189  H85 GLN d   1      -1.344  28.906  14.250  0.00  0.00     0.159 HD
ATOM    190  H86 GLN d   1      -2.055  27.342  14.465  0.00  0.00     0.159 HD
ENDBRANCH 183 186
ENDBRANCH 180 183
ENDBRANCH 139 180
ENDBRANCH 137 139
ENDBRANCH 133 135
BRANCH 133 191
ATOM    191  CB  GLU d   1      -7.906  25.068  14.852  0.00  0.00    -0.029 C 
ATOM    192  H75 GLU d   1      -7.073  24.465  15.243  0.00  0.00     0.037 H 
ATOM    193  H76 GLU d   1      -7.617  25.513  13.889  0.00  0.00     0.037 H 
BRANCH 191 194
ATOM    194  CG  GLU d   1      -9.093  24.179  14.641  0.00  0.00     0.018 C 
ATOM    195  H77 GLU d   1      -9.264  23.593  15.556  0.00  0.00     0.049 H 
ATOM    196  H78 GLU d   1      -8.882  23.498  13.803  0.00  0.00     0.049 H 
BRANCH 194 197
ATOM    197  CD  GLU d   1     -10.343  24.967  14.326  0.00  0.00     0.172 C 
ATOM    198  OE1 GLU d   1     -10.235  25.960  13.566  0.00  0.00    -0.648 OA
ATOM    199  OE2 GLU d   1     -11.427  24.607  14.850  0.00  0.00    -0.648 OA
ENDBRANCH 194 197
ENDBRANCH 191 194
ENDBRANCH 133 191
ENDBRANCH 131 133
ENDBRANCH 126 129
ENDBRANCH 124 126
ENDBRANCH 111 122
ENDBRANCH 106 108
BRANCH 106 200
ATOM    200  CB  SER d   1      -7.615  28.401  10.792  0.00  0.00     0.044 C 
ATOM    201  H60 SER d   1      -8.413  27.957  11.405  0.00  0.00     0.077 H 
ATOM    202  H61 SER d   1      -7.737  28.084   9.746  0.00  0.00     0.077 H 
BRANCH 200 203
ATOM    203  OG  SER d   1      -7.728  29.816  10.854  0.00  0.00    -0.398 OA
ATOM    204  H62 SER d   1      -8.580  30.079  10.527  0.00  0.00     0.209 HD
ENDBRANCH 200 203
ENDBRANCH 106 200
ENDBRANCH   3 106
TORSDOF 55
