REMARK  8 active torsions:
REMARK  status: ('A' for Active; 'I' for Inactive)
REMARK    1  A    between atoms: C61_2  and  C71_3 
REMARK    2  A    between atoms: C61_2  and  C54_16 
REMARK    3  A    between atoms: C72_4  and  O92_15 
REMARK    4  A    between atoms: C75_7  and  N91_8 
REMARK    5  A    between atoms: C51_21  and  C42_22 
REMARK       I    between atoms: C42_22  and  N41_24 
REMARK    6  A    between atoms: N41_24  and  C37_25 
REMARK    7  A    between atoms: C31_31  and  N23_32 
REMARK       I    between atoms: N23_32  and  C21_33 
REMARK    8  A    between atoms: C21_33  and  C14_35 
ROOT
ATOM      1  C54 R94 d   1       2.329  35.392  17.996  0.00  0.00     0.015 A 
ATOM      2  C55 R94 d   1       3.640  34.900  18.188  0.00  0.00    -0.068 A 
ATOM      3  C56 R94 d   1       3.891  34.004  19.225  0.00  0.00    -0.067 A 
ATOM      4  C53 R94 d   1       1.289  34.985  18.848  0.00  0.00    -0.068 A 
ATOM      5  C52 R94 d   1       1.543  34.091  19.878  0.00  0.00    -0.067 A 
ATOM      6  C51 R94 d   1       2.842  33.594  20.071  0.00  0.00     0.032 A 
ATOM      7  H15 R94 d   1       4.444  35.217  17.534  0.00  0.00     0.085 H 
ATOM      8  H16 R94 d   1       4.894  33.622  19.381  0.00  0.00     0.085 H 
ATOM      9  H17 R94 d   1       0.286  35.370  18.701  0.00  0.00     0.085 H 
ATOM     10  H18 R94 d   1       0.739  33.776  20.534  0.00  0.00     0.085 H 
ENDROOT
BRANCH   6  11
ATOM     11  C42 R94 d   1       3.118  32.676  21.168  0.00  0.00     0.252 C 
ATOM     12  O43 R94 d   1       2.384  32.591  22.162  0.00  0.00    -0.268 OA
ATOM     13  N41 R94 d   1       4.302  31.950  21.125  0.00  0.00    -0.350 N 
ATOM     14  H19 R94 d   1       4.809  31.880  20.266  0.00  0.00     0.163 HD
BRANCH  13  15
ATOM     15  C37 R94 d   1       4.826  31.272  22.351  0.00  0.00     0.033 C 
ATOM     16  C36 R94 d   1       5.317  32.385  23.302  0.00  0.00    -0.043 C 
ATOM     17  C35 R94 d   1       6.360  33.359  22.745  0.00  0.00    -0.041 C 
ATOM     18  H21 R94 d   1       5.755  31.898  24.186  0.00  0.00     0.036 H 
ATOM     19  H22 R94 d   1       4.439  32.975  23.605  0.00  0.00     0.036 H 
ATOM     20  C34 R94 d   1       7.754  32.745  22.784  0.00  0.00     0.082 C 
ATOM     21  H23 R94 d   1       6.354  34.278  23.350  0.00  0.00     0.035 H 
ATOM     22  H24 R94 d   1       6.104  33.604  21.704  0.00  0.00     0.035 H 
ATOM     23  N33 R94 d   1       7.831  31.573  21.814  0.00  0.00    -0.073 N 
ATOM     24  H25 R94 d   1       7.968  32.390  23.803  0.00  0.00     0.075 H 
ATOM     25  H26 R94 d   1       8.496  33.505  22.497  0.00  0.00     0.075 H 
ATOM     26  C32 R94 d   1       7.276  30.275  22.361  0.00  0.00     0.102 C 
ATOM     27  H27 R94 d   1       8.799  31.426  21.573  0.00  0.00     0.277 HD
ATOM     28  H28 R94 d   1       7.311  31.814  20.985  0.00  0.00     0.277 HD
ATOM     29  C31 R94 d   1       5.795  30.113  21.984  0.00  0.00     0.055 C 
ATOM     30  H29 R94 d   1       7.371  30.275  23.457  0.00  0.00     0.079 H 
ATOM     31  H30 R94 d   1       7.848  29.434  21.944  0.00  0.00     0.079 H 
ATOM     32  H31 R94 d   1       5.753  30.015  20.889  0.00  0.00     0.078 H 
ATOM     33  H20 R94 d   1       3.976  30.791  22.857  0.00  0.00     0.075 H 
BRANCH  29  34
ATOM     34  N23 R94 d   1       5.339  28.837  22.582  0.00  0.00    -0.349 N 
ATOM     35  C21 R94 d   1       5.135  27.729  21.771  0.00  0.00     0.252 C 
ATOM     36  O22 R94 d   1       5.042  27.910  20.547  0.00  0.00    -0.268 OA
ATOM     37  H32 R94 d   1       5.179  28.774  23.567  0.00  0.00     0.163 HD
BRANCH  35  38
ATOM     38  C14 R94 d   1       4.952  26.393  22.336  0.00  0.00     0.034 A 
ATOM     39  C13 R94 d   1       4.725  25.316  21.460  0.00  0.00    -0.051 A 
ATOM     40  C12 R94 d   1       4.550  24.040  21.989  0.00  0.00     0.003 A 
ATOM     41  H33 R94 d   1       4.687  25.477  20.389  0.00  0.00     0.087 H 
ATOM     42  N11 R94 d   1       4.534  23.819  23.309  0.00  0.00    -0.273 NA
ATOM     43  H34 R94 d   1       4.423  23.202  21.313  0.00  0.00     0.114 H 
ATOM     44  C16 R94 d   1       4.744  24.833  24.150  0.00  0.00     0.003 A 
ATOM     45  C15 R94 d   1       4.940  26.138  23.705  0.00  0.00    -0.051 A 
ATOM     46  H35 R94 d   1       4.763  24.634  25.215  0.00  0.00     0.114 H 
ATOM     47  H36 R94 d   1       5.081  26.945  24.415  0.00  0.00     0.087 H 
ENDBRANCH  35  38
ENDBRANCH  29  34
ENDBRANCH  13  15
ENDBRANCH   6  11
BRANCH   1  48
ATOM     48  C61 R94 d   1       2.049  36.382  16.960  0.00  0.00     0.195 C 
ATOM     49  O62 R94 d   1       1.059  37.085  17.178  0.00  0.00    -0.287 OA
BRANCH  48  50
ATOM     50  C71 R94 d   1       2.915  36.743  15.823  0.00  0.00     0.050 A 
ATOM     51  C72 R94 d   1       3.252  35.876  14.771  0.00  0.00     0.080 A 
ATOM     52  C73 R94 d   1       4.070  36.332  13.713  0.00  0.00    -0.048 A 
ATOM     53  C74 R94 d   1       4.557  37.637  13.722  0.00  0.00    -0.055 A 
ATOM     54  H1  R94 d   1       4.319  35.666  12.894  0.00  0.00     0.087 H 
ATOM     55  C75 R94 d   1       4.234  38.537  14.762  0.00  0.00     0.031 A 
ATOM     56  H2  R94 d   1       5.198  37.969  12.913  0.00  0.00     0.087 H 
ATOM     57  C76 R94 d   1       3.422  38.068  15.809  0.00  0.00    -0.041 A 
ATOM     58  H13 R94 d   1       3.177  38.736  16.627  0.00  0.00     0.088 H 
BRANCH  51  59
ATOM     59  O92 R94 d   1       2.783  34.579  14.738  0.00  0.00    -0.360 OA
ATOM     60  H14 R94 d   1       3.518  33.978  14.726  0.00  0.00     0.217 HD
ENDBRANCH  51  59
BRANCH  55  61
ATOM     61  N91 R94 d   1       4.724  39.828  14.753  0.00  0.00    -0.381 N 
ATOM     62  C92 R94 d   1       5.087  40.419  13.447  0.00  0.00    -0.005 C 
ATOM     63  C93 R94 d   1       6.120  41.540  13.626  0.00  0.00    -0.050 C 
ATOM     64  H3  R94 d   1       4.184  40.833  12.975  0.00  0.00     0.064 H 
ATOM     65  H4  R94 d   1       5.512  39.636  12.802  0.00  0.00     0.064 H 
ATOM     66  C94 R94 d   1       5.607  42.568  14.642  0.00  0.00    -0.062 C 
ATOM     67  H5  R94 d   1       6.290  42.037  12.659  0.00  0.00     0.035 H 
ATOM     68  H6  R94 d   1       7.065  41.110  13.989  0.00  0.00     0.035 H 
ATOM     69  C95 R94 d   1       5.308  41.882  15.984  0.00  0.00    -0.050 C 
ATOM     70  H7  R94 d   1       4.686  43.031  14.257  0.00  0.00     0.033 H 
ATOM     71  H8  R94 d   1       6.372  43.343  14.793  0.00  0.00     0.033 H 
ATOM     72  C96 R94 d   1       4.270  40.768  15.799  0.00  0.00    -0.005 C 
ATOM     73  H9  R94 d   1       4.917  42.627  16.692  0.00  0.00     0.035 H 
ATOM     74  H10 R94 d   1       6.237  41.449  16.384  0.00  0.00     0.035 H 
ATOM     75  H11 R94 d   1       4.144  40.225  16.747  0.00  0.00     0.064 H 
ATOM     76  H12 R94 d   1       3.309  41.211  15.499  0.00  0.00     0.064 H 
ENDBRANCH  55  61
ENDBRANCH  48  50
ENDBRANCH   1  48
TORSDOF 8
