REMARK  10 active torsions:
REMARK  status: ('A' for Active; 'I' for Inactive)
REMARK    1  A    between atoms: C21_2  and  C14_3 
REMARK       I    between atoms: C21_2  and  N23_9 
REMARK    2  A    between atoms: N23_9  and  C31_10 
REMARK    3  A    between atoms: C37_16  and  N41_17 
REMARK       I    between atoms: N41_17  and  C42_18 
REMARK    4  A    between atoms: C42_18  and  C51_20 
REMARK    5  A    between atoms: C54_25  and  C61_26 
REMARK    6  A    between atoms: C61_26  and  C71_28 
REMARK    7  A    between atoms: C72_29  and  O92_30 
REMARK    8  A    between atoms: C75_34  and  N91_35 
REMARK    9  A    between atoms: C95_39  and  C97_40 
REMARK   10  A    between atoms: C95_39  and  C98_41 
ROOT
ATOM      1  C51 R96 d   1      12.645  12.050   0.957  0.00  0.00     0.032 A 
ATOM      2  C52 R96 d   1      12.949  13.401   0.704  0.00  0.00    -0.067 A 
ATOM      3  C53 R96 d   1      13.765  13.743  -0.373  0.00  0.00    -0.068 A 
ATOM      4  C56 R96 d   1      13.145  11.040   0.140  0.00  0.00    -0.067 A 
ATOM      5  C55 R96 d   1      13.949  11.380  -0.936  0.00  0.00    -0.068 A 
ATOM      6  C54 R96 d   1      14.249  12.718  -1.204  0.00  0.00     0.015 A 
ATOM      7  H19 R96 d   1      12.548  14.176   1.347  0.00  0.00     0.085 H 
ATOM      8  H20 R96 d   1      14.021  14.778  -0.566  0.00  0.00     0.085 H 
ATOM      9  H21 R96 d   1      12.909  10.002   0.343  0.00  0.00     0.085 H 
ATOM     10  H22 R96 d   1      14.349  10.601  -1.575  0.00  0.00     0.085 H 
ENDROOT
BRANCH   1  11
ATOM     11  C42 R96 d   1      11.829  11.694   2.096  0.00  0.00     0.252 C 
ATOM     12  N41 R96 d   1      11.113  10.501   2.076  0.00  0.00    -0.350 N 
ATOM     13  H18 R96 d   1      10.923  10.053   1.202  0.00  0.00     0.163 HD
ATOM     14  O43 R96 d   1      11.792  12.413   3.099  0.00  0.00    -0.268 OA
BRANCH  12  15
ATOM     15  C37 R96 d   1      10.627   9.885   3.341  0.00  0.00     0.033 C 
ATOM     16  C31 R96 d   1       9.562   8.777   2.998  0.00  0.00     0.055 C 
ATOM     17  C32 R96 d   1       9.856   7.343   3.436  0.00  0.00     0.102 C 
ATOM     18  H6  R96 d   1       9.463   8.770   1.902  0.00  0.00     0.078 H 
ATOM     19  N33 R96 d   1      11.132   6.861   2.881  0.00  0.00    -0.073 N 
ATOM     20  H7  R96 d   1       9.044   6.689   3.086  0.00  0.00     0.079 H 
ATOM     21  H8  R96 d   1       9.908   7.308   4.534  0.00  0.00     0.079 H 
ATOM     22  C34 R96 d   1      12.237   7.040   3.821  0.00  0.00     0.082 C 
ATOM     23  H9  R96 d   1      11.335   7.374   2.038  0.00  0.00     0.277 HD
ATOM     24  H10 R96 d   1      11.044   5.880   2.665  0.00  0.00     0.277 HD
ATOM     25  C35 R96 d   1      12.803   8.472   3.734  0.00  0.00    -0.041 C 
ATOM     26  H11 R96 d   1      13.035   6.322   3.581  0.00  0.00     0.075 H 
ATOM     27  H12 R96 d   1      11.874   6.857   4.843  0.00  0.00     0.075 H 
ATOM     28  C36 R96 d   1      11.799   9.499   4.298  0.00  0.00    -0.043 C 
ATOM     29  H13 R96 d   1      13.011   8.713   2.681  0.00  0.00     0.035 H 
ATOM     30  H14 R96 d   1      13.736   8.526   4.314  0.00  0.00     0.035 H 
ATOM     31  H15 R96 d   1      12.354  10.417   4.543  0.00  0.00     0.036 H 
ATOM     32  H16 R96 d   1      11.363   9.078   5.216  0.00  0.00     0.036 H 
ATOM     33  H17 R96 d   1      10.072  10.668   3.878  0.00  0.00     0.075 H 
BRANCH  16  34
ATOM     34  N23 R96 d   1       8.253   9.115   3.591  0.00  0.00    -0.349 N 
ATOM     35  C21 R96 d   1       7.114   9.249   2.815  0.00  0.00     0.252 C 
ATOM     36  O22 R96 d   1       7.255   9.220   1.599  0.00  0.00    -0.268 OA
ATOM     37  H5  R96 d   1       8.187   9.251   4.580  0.00  0.00     0.163 HD
BRANCH  35  38
ATOM     38  C14 R96 d   1       5.816   9.415   3.471  0.00  0.00     0.034 A 
ATOM     39  C13 R96 d   1       4.664   9.622   2.713  0.00  0.00    -0.051 A 
ATOM     40  C12 R96 d   1       3.428   9.747   3.342  0.00  0.00     0.003 A 
ATOM     41  H1  R96 d   1       4.731   9.686   1.633  0.00  0.00     0.087 H 
ATOM     42  N11 R96 d   1       3.340   9.713   4.670  0.00  0.00    -0.273 NA
ATOM     43  H2  R96 d   1       2.531   9.873   2.746  0.00  0.00     0.114 H 
ATOM     44  C16 R96 d   1       4.413   9.514   5.443  0.00  0.00     0.003 A 
ATOM     45  C15 R96 d   1       5.665   9.359   4.864  0.00  0.00    -0.051 A 
ATOM     46  H3  R96 d   1       4.305   9.474   6.521  0.00  0.00     0.114 H 
ATOM     47  H4  R96 d   1       6.532   9.194   5.493  0.00  0.00     0.087 H 
ENDBRANCH  35  38
ENDBRANCH  16  34
ENDBRANCH  12  15
ENDBRANCH   1  11
BRANCH   6  48
ATOM     48  C61 R96 d   1      15.122  13.033  -2.333  0.00  0.00     0.195 C 
ATOM     49  O62 R96 d   1      15.839  14.052  -2.233  0.00  0.00    -0.287 OA
BRANCH  48  50
ATOM     50  C71 R96 d   1      15.326  12.195  -3.521  0.00  0.00     0.050 A 
ATOM     51  C72 R96 d   1      14.409  11.877  -4.553  0.00  0.00     0.080 A 
ATOM     52  C73 R96 d   1      14.805  11.092  -5.629  0.00  0.00    -0.048 A 
ATOM     53  C74 R96 d   1      16.104  10.587  -5.706  0.00  0.00    -0.055 A 
ATOM     54  H24 R96 d   1      14.096  10.869  -6.418  0.00  0.00     0.087 H 
ATOM     55  C75 R96 d   1      17.036  10.889  -4.698  0.00  0.00     0.031 A 
ATOM     56  H25 R96 d   1      16.394   9.962  -6.543  0.00  0.00     0.087 H 
ATOM     57  C76 R96 d   1      16.627  11.682  -3.608  0.00  0.00    -0.041 A 
ATOM     58  H26 R96 d   1      17.336  11.901  -2.817  0.00  0.00     0.088 H 
BRANCH  51  59
ATOM     59  O92 R96 d   1      13.108  12.259  -4.598  0.00  0.00    -0.360 OA
ATOM     60  H23 R96 d   1      12.707  11.920  -5.390  0.00  0.00     0.217 HD
ENDBRANCH  51  59
BRANCH  55  61
ATOM     61  N91 R96 d   1      18.384  10.386  -4.775  0.00  0.00    -0.380 N 
ATOM     62  C92 R96 d   1      18.892   9.913  -6.097  0.00  0.00    -0.005 C 
ATOM     63  C93 R96 d   1      20.413   9.622  -6.218  0.00  0.00    -0.049 C 
ATOM     64  H27 R96 d   1      18.644  10.685  -6.841  0.00  0.00     0.064 H 
ATOM     65  H28 R96 d   1      18.358   8.983  -6.342  0.00  0.00     0.064 H 
ATOM     66  C94 R96 d   1      21.294  10.333  -5.188  0.00  0.00    -0.056 C 
ATOM     67  H29 R96 d   1      20.741   9.934  -7.220  0.00  0.00     0.035 H 
ATOM     68  H30 R96 d   1      20.563   8.538  -6.104  0.00  0.00     0.035 H 
ATOM     69  C95 R96 d   1      20.766  10.042  -3.780  0.00  0.00    -0.032 C 
ATOM     70  H31 R96 d   1      21.271  11.417  -5.372  0.00  0.00     0.034 H 
ATOM     71  H32 R96 d   1      22.328   9.968  -5.275  0.00  0.00     0.034 H 
ATOM     72  C96 R96 d   1      19.343  10.634  -3.640  0.00  0.00     0.001 C 
ATOM     73  H39 R96 d   1      18.895  10.210  -2.729  0.00  0.00     0.065 H 
ATOM     74  H40 R96 d   1      19.447  11.723  -3.525  0.00  0.00     0.065 H 
BRANCH  69  75
ATOM     75  C97 R96 d   1      21.794  10.666  -2.803  0.00  0.00    -0.068 C 
ATOM     76  H33 R96 d   1      21.469  10.490  -1.767  0.00  0.00     0.028 H 
ATOM     77  H34 R96 d   1      21.864  11.748  -2.986  0.00  0.00     0.028 H 
ATOM     78  H35 R96 d   1      22.779  10.203  -2.962  0.00  0.00     0.028 H 
ENDBRANCH  69  75
BRANCH  69  79
ATOM     79  C98 R96 d   1      20.698   8.548  -3.432  0.00  0.00    -0.068 C 
ATOM     80  H36 R96 d   1      19.979   8.049  -4.098  0.00  0.00     0.028 H 
ATOM     81  H37 R96 d   1      20.374   8.429  -2.388  0.00  0.00     0.028 H 
ATOM     82  H38 R96 d   1      21.692   8.096  -3.561  0.00  0.00     0.028 H 
ENDBRANCH  69  79
ENDBRANCH  55  61
ENDBRANCH  48  50
ENDBRANCH   6  48
TORSDOF 10
