REMARK  10 active torsions:
REMARK  status: ('A' for Active; 'I' for Inactive)
REMARK    1  A    between atoms: C21_2  and  C14_3 
REMARK       I    between atoms: C21_2  and  N23_9 
REMARK    2  A    between atoms: N23_9  and  C31_10 
REMARK    3  A    between atoms: C37_16  and  N41_17 
REMARK       I    between atoms: N41_17  and  C42_18 
REMARK    4  A    between atoms: C42_18  and  C51_20 
REMARK    5  A    between atoms: C54_25  and  C61_26 
REMARK    6  A    between atoms: C61_26  and  C71_28 
REMARK    7  A    between atoms: C72_29  and  O99_30 
REMARK    8  A    between atoms: C75_33  and  N91_35 
REMARK    9  A    between atoms: C94_38  and  C97_39 
REMARK   10  A    between atoms: C94_38  and  C98_40 
ROOT
ATOM      1  C51 R55 d   1       4.049  21.808  32.304  0.00  0.00     0.032 A 
ATOM      2  C52 R55 d   1       3.617  21.487  33.596  0.00  0.00    -0.067 A 
ATOM      3  C53 R55 d   1       2.993  20.280  33.830  0.00  0.00    -0.068 A 
ATOM      4  C56 R55 d   1       3.875  20.886  31.259  0.00  0.00    -0.067 A 
ATOM      5  C55 R55 d   1       3.227  19.670  31.494  0.00  0.00    -0.068 A 
ATOM      6  C54 R55 d   1       2.826  19.345  32.795  0.00  0.00     0.015 A 
ATOM      7  H19 R55 d   1       3.773  22.185  34.410  0.00  0.00     0.085 H 
ATOM      8  H20 R55 d   1       2.627  20.050  34.824  0.00  0.00     0.085 H 
ATOM      9  H21 R55 d   1       4.245  21.118  30.267  0.00  0.00     0.085 H 
ATOM     10  H22 R55 d   1       3.037  18.985  30.676  0.00  0.00     0.085 H 
ENDROOT
BRANCH   1  11
ATOM     11  C42 R55 d   1       4.651  23.096  32.021  0.00  0.00     0.252 C 
ATOM     12  N41 R55 d   1       5.410  23.243  30.873  0.00  0.00    -0.350 N 
ATOM     13  H18 R55 d   1       5.669  22.418  30.371  0.00  0.00     0.163 HD
ATOM     14  O43 R55 d   1       4.375  24.066  32.735  0.00  0.00    -0.268 OA
BRANCH  12  15
ATOM     15  C37 R55 d   1       5.858  24.545  30.348  0.00  0.00     0.033 C 
ATOM     16  C31 R55 d   1       7.118  24.366  29.467  0.00  0.00     0.055 C 
ATOM     17  C32 R55 d   1       6.934  24.744  27.989  0.00  0.00     0.102 C 
ATOM     18  H6  R55 d   1       7.397  23.302  29.495  0.00  0.00     0.078 H 
ATOM     19  N33 R55 d   1       5.950  23.869  27.321  0.00  0.00    -0.073 N 
ATOM     20  H7  R55 d   1       7.902  24.651  27.474  0.00  0.00     0.079 H 
ATOM     21  H8  R55 d   1       6.585  25.785  27.928  0.00  0.00     0.079 H 
ATOM     22  C34 R55 d   1       4.598  24.444  27.280  0.00  0.00     0.082 C 
ATOM     23  H9  R55 d   1       5.911  22.993  27.818  0.00  0.00     0.277 HD
ATOM     24  H10 R55 d   1       6.257  23.705  26.375  0.00  0.00     0.277 HD
ATOM     25  C35 R55 d   1       3.951  24.373  28.665  0.00  0.00    -0.041 C 
ATOM     26  H11 R55 d   1       3.984  23.879  26.563  0.00  0.00     0.075 H 
ATOM     27  H12 R55 d   1       4.660  25.495  26.961  0.00  0.00     0.075 H 
ATOM     28  C36 R55 d   1       4.633  25.232  29.728  0.00  0.00    -0.043 C 
ATOM     29  H13 R55 d   1       3.975  23.326  29.002  0.00  0.00     0.035 H 
ATOM     30  H14 R55 d   1       2.906  24.705  28.573  0.00  0.00     0.035 H 
ATOM     31  H15 R55 d   1       3.908  25.445  30.527  0.00  0.00     0.036 H 
ATOM     32  H16 R55 d   1       4.956  26.176  29.264  0.00  0.00     0.036 H 
ATOM     33  H17 R55 d   1       6.170  25.168  31.199  0.00  0.00     0.075 H 
BRANCH  16  34
ATOM     34  N23 R55 d   1       8.202  25.148  30.080  0.00  0.00    -0.349 N 
ATOM     35  C21 R55 d   1       9.440  24.577  30.390  0.00  0.00     0.252 C 
ATOM     36  O22 R55 d   1       9.591  23.328  30.402  0.00  0.00    -0.268 OA
ATOM     37  H5  R55 d   1       8.049  26.116  30.281  0.00  0.00     0.163 HD
BRANCH  35  38
ATOM     38  C14 R55 d   1      10.563  25.486  30.678  0.00  0.00     0.034 A 
ATOM     39  C13 R55 d   1      11.806  24.897  31.007  0.00  0.00    -0.051 A 
ATOM     40  C12 R55 d   1      12.915  25.660  31.267  0.00  0.00     0.003 A 
ATOM     41  H1  R55 d   1      11.884  23.817  31.055  0.00  0.00     0.087 H 
ATOM     42  N11 R55 d   1      12.829  27.056  31.231  0.00  0.00    -0.273 NA
ATOM     43  H2  R55 d   1      13.859  25.181  31.501  0.00  0.00     0.114 H 
ATOM     44  C16 R55 d   1      11.622  27.648  30.948  0.00  0.00     0.003 A 
ATOM     45  C15 R55 d   1      10.485  26.894  30.687  0.00  0.00    -0.051 A 
ATOM     46  H3  R55 d   1      11.555  28.730  30.928  0.00  0.00     0.114 H 
ATOM     47  H4  R55 d   1       9.540  27.387  30.491  0.00  0.00     0.087 H 
ENDBRANCH  35  38
ENDBRANCH  16  34
ENDBRANCH  12  15
ENDBRANCH   1  11
BRANCH   6  48
ATOM     48  C61 R55 d   1       2.095  18.108  33.063  0.00  0.00     0.195 C 
ATOM     49  O62 R55 d   1       1.305  18.135  33.987  0.00  0.00    -0.287 OA
BRANCH  48  50
ATOM     50  C71 R55 d   1       2.159  16.857  32.289  0.00  0.00     0.050 A 
ATOM     51  C72 R55 d   1       3.319  16.104  32.280  0.00  0.00     0.080 A 
ATOM     52  C73 R55 d   1       3.399  14.928  31.556  0.00  0.00    -0.048 A 
ATOM     53  C74 R55 d   1       2.311  14.517  30.831  0.00  0.00    -0.055 A 
ATOM     54  H24 R55 d   1       4.309  14.340  31.562  0.00  0.00     0.087 H 
ATOM     55  C75 R55 d   1       1.118  15.263  30.797  0.00  0.00     0.031 A 
ATOM     56  H25 R55 d   1       2.371  13.592  30.268  0.00  0.00     0.087 H 
ATOM     57  C76 R55 d   1       1.060  16.443  31.540  0.00  0.00    -0.041 A 
ATOM     58  H26 R55 d   1       0.155  17.040  31.534  0.00  0.00     0.088 H 
BRANCH  51  59
ATOM     59  O99 R55 d   1       4.400  16.569  32.966  0.00  0.00    -0.360 OA
ATOM     60  H23 R55 d   1       5.120  15.956  32.874  0.00  0.00     0.217 HD
ENDBRANCH  51  59
BRANCH  55  61
ATOM     61  N91 R55 d   1       0.001  14.807  30.036  0.00  0.00    -0.381 N 
ATOM     62  C92 R55 d   1      -1.300  15.518  30.167  0.00  0.00    -0.004 C 
ATOM     63  C93 R55 d   1      -2.512  14.730  29.638  0.00  0.00    -0.044 C 
ATOM     64  H27 R55 d   1      -1.233  16.463  29.608  0.00  0.00     0.064 H 
ATOM     65  H28 R55 d   1      -1.468  15.734  31.232  0.00  0.00     0.064 H 
ATOM     66  C94 R55 d   1      -2.261  13.783  28.442  0.00  0.00    -0.045 C 
ATOM     67  H29 R55 d   1      -3.275  15.460  29.330  0.00  0.00     0.036 H 
ATOM     68  H30 R55 d   1      -2.901  14.122  30.468  0.00  0.00     0.036 H 
ATOM     69  C95 R55 d   1      -0.878  13.086  28.517  0.00  0.00    -0.044 C 
ATOM     70  C96 R55 d   1       0.251  14.072  28.776  0.00  0.00    -0.004 C 
ATOM     71  H37 R55 d   1      -0.688  12.573  27.563  0.00  0.00     0.036 H 
ATOM     72  H38 R55 d   1      -0.897  12.348  29.332  0.00  0.00     0.036 H 
ATOM     73  H39 R55 d   1       1.202  13.524  28.856  0.00  0.00     0.064 H 
ATOM     74  H40 R55 d   1       0.309  14.787  27.942  0.00  0.00     0.064 H 
BRANCH  66  75
ATOM     75  C97 R55 d   1      -2.565  14.518  27.118  0.00  0.00    -0.069 C 
ATOM     76  H31 R55 d   1      -2.384  13.839  26.272  0.00  0.00     0.028 H 
ATOM     77  H32 R55 d   1      -1.911  15.398  27.028  0.00  0.00     0.028 H 
ATOM     78  H33 R55 d   1      -3.616  14.841  27.111  0.00  0.00     0.028 H 
ENDBRANCH  66  75
BRANCH  66  79
ATOM     79  C98 R55 d   1      -3.255  12.634  28.544  0.00  0.00    -0.069 C 
ATOM     80  H34 R55 d   1      -3.078  12.077  29.476  0.00  0.00     0.028 H 
ATOM     81  H35 R55 d   1      -3.126  11.960  27.684  0.00  0.00     0.028 H 
ATOM     82  H36 R55 d   1      -4.279  13.034  28.546  0.00  0.00     0.028 H 
ENDBRANCH  66  79
ENDBRANCH  55  61
ENDBRANCH  48  50
ENDBRANCH   6  48
TORSDOF 10
