REMARK WARNING: 32 MAX_TORS EXCEEDED!!!
REMARK  57 active torsions:
REMARK  status: ('A' for Active; 'I' for Inactive)
REMARK    1  A    between atoms: N_1  and  CA_2 
REMARK    2  A    between atoms: CA_2  and  C_3 
REMARK    3  A    between atoms: CA_2  and  CB_5 
REMARK       I    between atoms: C_3  and  N_7 
REMARK    4  A    between atoms: CB_5  and  OG_6 
REMARK    5  A    between atoms: N_7  and  CA_8 
REMARK    6  A    between atoms: CA_8  and  C_9 
REMARK    7  A    between atoms: CA_8  and  CB_11 
REMARK       I    between atoms: C_9  and  N_15 
REMARK    8  A    between atoms: CB_11  and  CG1_12 
REMARK    9  A    between atoms: CB_11  and  CG2_13 
REMARK   10  A    between atoms: CG1_12  and  CD1_14 
REMARK   11  A    between atoms: N_15  and  CA_16 
REMARK   12  A    between atoms: CA_16  and  C_17 
REMARK       I    between atoms: C_17  and  N_19 
REMARK   13  A    between atoms: N_19  and  CA_20 
REMARK   14  A    between atoms: CA_20  and  C_21 
REMARK   15  A    between atoms: CA_20  and  CB_23 
REMARK       I    between atoms: C_21  and  N_28 
REMARK   16  A    between atoms: CB_23  and  CG_24 
REMARK   17  A    between atoms: CG_24  and  CD_25 
REMARK   18  A    between atoms: CD_25  and  CE_26 
REMARK   19  A    between atoms: CE_26  and  NZ_27 
REMARK   20  A    between atoms: N_28  and  CA_29 
REMARK   21  A    between atoms: CA_29  and  C_30 
REMARK   22  A    between atoms: CA_29  and  CB_32 
REMARK       I    between atoms: C_30  and  N_33 
REMARK   23  A    between atoms: N_33  and  CA_34 
REMARK   24  A    between atoms: CA_34  and  C_35 
REMARK   25  A    between atoms: CA_34  and  CB_37 
REMARK       I    between atoms: C_35  and  N_44 
REMARK   26  A    between atoms: CB_37  and  CG_38 
REMARK   27  A    between atoms: N_44  and  CA_45 
REMARK   28  A    between atoms: CA_45  and  C_46 
REMARK   29  A    between atoms: CA_45  and  CB_48 
REMARK       I    between atoms: C_46  and  N_53 
REMARK   30  A    between atoms: CB_48  and  CG_49 
REMARK   31  A    between atoms: CG_49  and  CD_50 
REMARK   32  A    between atoms: CD_50  and  CE_51 
REMARK   33  A    between atoms: CE_51  and  NZ_52 
REMARK   34  A    between atoms: N_53  and  CA_54 
REMARK   35  A    between atoms: CA_54  and  C_55 
REMARK   36  A    between atoms: CA_54  and  CB_57 
REMARK       I    between atoms: C_55  and  N_61 
REMARK   37  A    between atoms: CB_57  and  CG1_58 
REMARK   38  A    between atoms: CB_57  and  CG2_59 
REMARK   39  A    between atoms: CG1_58  and  CD1_60 
REMARK   40  A    between atoms: N_61  and  CA_62 
REMARK   41  A    between atoms: CA_62  and  C_63 
REMARK   42  A    between atoms: CA_62  and  CB_65 
REMARK       I    between atoms: C_63  and  N_69 
REMARK   43  A    between atoms: CB_65  and  CG_66 
REMARK   44  A    between atoms: CG_66  and  CD1_67 
REMARK   45  A    between atoms: CG_66  and  CD2_68 
REMARK   46  A    between atoms: N_69  and  CA_70 
REMARK   47  A    between atoms: CA_70  and  C_71 
REMARK       I    between atoms: C_71  and  N_73 
REMARK   48  A    between atoms: N_73  and  CA_74 
REMARK   49  A    between atoms: CA_74  and  C_75 
REMARK   50  A    between atoms: CA_74  and  CB_77 
REMARK       I    between atoms: C_75  and  N_85 
REMARK   51  A    between atoms: CB_77  and  CG_78 
REMARK   52  A    between atoms: CZ_83  and  OH_84 
REMARK   53  A    between atoms: CA_86  and  C_87 
REMARK       I    between atoms: C_87  and  N_92 
REMARK   54  A    between atoms: N_92  and  CA_93 
REMARK   55  A    between atoms: CA_93  and  C_94 
REMARK   56  A    between atoms: CA_93  and  CB_96 
REMARK   57  A    between atoms: CB_96  and  CG_97 
ROOT
ATOM      1  CA  LYS d   1     -18.475 -19.474  12.248  0.00  0.00     0.089 C 
ATOM      2  H50 LYS d   1     -18.934 -20.207  11.569  0.00  0.00     0.087 H 
ENDROOT
BRANCH   1   3
ATOM      3  N   LYS d   1     -18.059 -20.114  13.483  0.00  0.00    -0.346 N 
ATOM      4  C   PHE d   1     -17.179 -21.106  13.499  0.00  0.00     0.241 C 
ATOM      5  O   PHE d   1     -16.662 -21.567  12.481  0.00  0.00    -0.271 OA
ATOM      6  H49 LYS d   1     -18.448 -19.797  14.348  0.00  0.00     0.163 HD
BRANCH   4   7
ATOM      7  CA  PHE d   1     -16.839 -21.662  14.872  0.00  0.00     0.093 C 
ATOM      8  H41 PHE d   1     -15.827 -22.093  14.849  0.00  0.00     0.088 H 
BRANCH   7   9
ATOM      9  N   PHE d   1     -16.863 -20.568  15.844  0.00  0.00    -0.346 N 
ATOM     10  C   ALA d   1     -15.979 -19.574  15.753  0.00  0.00     0.240 C 
ATOM     11  O   ALA d   1     -15.119 -19.532  14.872  0.00  0.00    -0.271 OA
ATOM     12  H40 PHE d   1     -17.543 -20.566  16.577  0.00  0.00     0.163 HD
BRANCH  10  13
ATOM     13  CA  ALA d   1     -16.060 -18.462  16.796  0.00  0.00     0.086 C 
ATOM     14  H36 ALA d   1     -15.594 -17.557  16.380  0.00  0.00     0.086 H 
BRANCH  13  15
ATOM     15  N   ALA d   1     -17.444 -18.167  17.113  0.00  0.00    -0.346 N 
ATOM     16  C   LYS d   1     -18.258 -17.630  16.214  0.00  0.00     0.241 C 
ATOM     17  O   LYS d   1     -17.904 -17.351  15.070  0.00  0.00    -0.271 OA
ATOM     18  H35 ALA d   1     -17.792 -18.373  18.028  0.00  0.00     0.163 HD
BRANCH  16  19
ATOM     19  CA  LYS d   1     -19.685 -17.375  16.679  0.00  0.00     0.089 C 
ATOM     20  H23 LYS d   1     -20.333 -17.192  15.809  0.00  0.00     0.087 H 
BRANCH  19  21
ATOM     21  N   LYS d   1     -20.145 -18.556  17.397  0.00  0.00    -0.346 N 
ATOM     22  C   GLY d   1     -20.144 -19.763  16.840  0.00  0.00     0.236 C 
ATOM     23  O   GLY d   1     -19.781 -19.967  15.683  0.00  0.00    -0.272 OA
ATOM     24  H22 LYS d   1     -20.471 -18.456  18.337  0.00  0.00     0.163 HD
BRANCH  22  25
ATOM     25  CA  GLY d   1     -20.629 -20.903  17.709  0.00  0.00     0.069 C 
ATOM     26  H20 GLY d   1     -21.728 -20.936  17.677  0.00  0.00     0.078 H 
ATOM     27  H21 GLY d   1     -20.222 -21.848  17.321  0.00  0.00     0.078 H 
BRANCH  25  28
ATOM     28  N   GLY d   1     -20.201 -20.733  19.083  0.00  0.00    -0.351 N 
ATOM     29  C   ILE d   1     -18.911 -20.739  19.406  0.00  0.00     0.241 C 
ATOM     30  O   ILE d   1     -18.009 -20.883  18.578  0.00  0.00    -0.271 OA
ATOM     31  H19 GLY d   1     -20.887 -20.609  19.800  0.00  0.00     0.163 HD
BRANCH  29  32
ATOM     32  CA  ILE d   1     -18.597 -20.540  20.887  0.00  0.00     0.092 C 
ATOM     33  H9  ILE d   1     -17.679 -19.942  20.986  0.00  0.00     0.088 H 
BRANCH  32  34
ATOM     34  N   ILE d   1     -19.699 -19.834  21.522  0.00  0.00    -0.346 N 
ATOM     35  C   SER d   1     -20.012 -18.577  21.230  0.00  0.00     0.251 C 
ATOM     36  O   SER d   1     -19.402 -17.897  20.402  0.00  0.00    -0.271 OA
ATOM     37  H8  ILE d   1     -20.244 -20.316  22.208  0.00  0.00     0.163 HD
BRANCH  35  38
ATOM     38  CA  SER d   1     -21.205 -18.016  21.993  0.00  0.00     0.195 C 
ATOM     39  H4  SER d   1     -21.288 -16.933  21.821  0.00  0.00     0.102 H 
BRANCH  38  40
ATOM     40  N   SER d   1     -22.428 -18.706  21.491  0.00  0.00    -0.064 N 
ATOM     41  H1  SER d   1     -23.237 -18.354  21.979  0.00  0.00     0.275 HD
ATOM     42  H2  SER d   1     -22.344 -19.698  21.651  0.00  0.00     0.275 HD
ATOM     43  H3  SER d   1     -22.530 -18.532  20.503  0.00  0.00     0.275 HD
ENDBRANCH  38  40
BRANCH  38  44
ATOM     44  CB  SER d   1     -21.021 -18.286  23.492  0.00  0.00     0.051 C 
ATOM     45  H5  SER d   1     -20.236 -17.620  23.879  0.00  0.00     0.077 H 
ATOM     46  H6  SER d   1     -20.713 -19.333  23.629  0.00  0.00     0.077 H 
BRANCH  44  47
ATOM     47  OG  SER d   1     -22.216 -18.060  24.226  0.00  0.00    -0.398 OA
ATOM     48  H7  SER d   1     -22.060 -18.238  25.146  0.00  0.00     0.209 HD
ENDBRANCH  44  47
ENDBRANCH  38  44
ENDBRANCH  35  38
ENDBRANCH  32  34
BRANCH  32  49
ATOM     49  CB  ILE d   1     -18.384 -21.908  21.568  0.00  0.00    -0.030 C 
ATOM     50  H10 ILE d   1     -19.225 -22.571  21.317  0.00  0.00     0.043 H 
BRANCH  49  51
ATOM     51  CG1 ILE d   1     -18.337 -21.705  23.088  0.00  0.00    -0.063 C 
ATOM     52  H11 ILE d   1     -19.233 -21.140  23.385  0.00  0.00     0.033 H 
ATOM     53  H12 ILE d   1     -17.438 -21.118  23.327  0.00  0.00     0.033 H 
BRANCH  51  54
ATOM     54  CD1 ILE d   1     -18.295 -22.981  23.899  0.00  0.00    -0.076 C 
ATOM     55  H16 ILE d   1     -18.263 -22.734  24.970  0.00  0.00     0.027 H 
ATOM     56  H17 ILE d   1     -17.398 -23.558  23.629  0.00  0.00     0.027 H 
ATOM     57  H18 ILE d   1     -19.193 -23.580  23.688  0.00  0.00     0.027 H 
ENDBRANCH  51  54
ENDBRANCH  49  51
BRANCH  49  58
ATOM     58  CG2 ILE d   1     -17.085 -22.550  21.084  0.00  0.00    -0.071 C 
ATOM     59  H13 ILE d   1     -17.130 -22.691  19.994  0.00  0.00     0.028 H 
ATOM     60  H14 ILE d   1     -16.953 -23.526  21.575  0.00  0.00     0.028 H 
ATOM     61  H15 ILE d   1     -16.237 -21.896  21.335  0.00  0.00     0.028 H 
ENDBRANCH  49  58
ENDBRANCH  32  49
ENDBRANCH  29  32
ENDBRANCH  25  28
ENDBRANCH  22  25
ENDBRANCH  19  21
BRANCH  19  62
ATOM     62  CB  LYS d   1     -19.718 -16.151  17.607  0.00  0.00    -0.038 C 
ATOM     63  H24 LYS d   1     -19.186 -16.413  18.534  0.00  0.00     0.036 H 
ATOM     64  H25 LYS d   1     -20.770 -15.928  17.838  0.00  0.00     0.036 H 
BRANCH  62  65
ATOM     65  CG  LYS d   1     -19.082 -14.885  17.041  0.00  0.00    -0.061 C 
ATOM     66  H26 LYS d   1     -18.059 -15.118  16.709  0.00  0.00     0.033 H 
ATOM     67  H27 LYS d   1     -19.046 -14.121  17.832  0.00  0.00     0.033 H 
BRANCH  65  68
ATOM     68  CD  LYS d   1     -19.863 -14.338  15.869  0.00  0.00    -0.043 C 
ATOM     69  H28 LYS d   1     -20.881 -14.087  16.202  0.00  0.00     0.035 H 
ATOM     70  H29 LYS d   1     -19.913 -15.105  15.082  0.00  0.00     0.035 H 
BRANCH  68  71
ATOM     71  CE  LYS d   1     -19.207 -13.093  15.305  0.00  0.00     0.080 C 
ATOM     72  H30 LYS d   1     -18.209 -13.353  14.922  0.00  0.00     0.075 H 
ATOM     73  H31 LYS d   1     -19.109 -12.344  16.104  0.00  0.00     0.075 H 
BRANCH  71  74
ATOM     74  NZ  LYS d   1     -20.017 -12.525  14.204  0.00  0.00    -0.079 N 
ATOM     75  H32 LYS d   1     -19.563 -11.700  13.844  0.00  0.00     0.274 HD
ATOM     76  H33 LYS d   1     -20.932 -12.282  14.551  0.00  0.00     0.274 HD
ATOM     77  H34 LYS d   1     -20.108 -13.207  13.467  0.00  0.00     0.274 HD
ENDBRANCH  71  74
ENDBRANCH  68  71
ENDBRANCH  65  68
ENDBRANCH  62  65
ENDBRANCH  19  62
ENDBRANCH  16  19
ENDBRANCH  13  15
BRANCH  13  78
ATOM     78  CB  ALA d   1     -15.306 -18.862  18.060  0.00  0.00    -0.049 C 
ATOM     79  H37 ALA d   1     -14.258 -19.083  17.808  0.00  0.00     0.030 H 
ATOM     80  H38 ALA d   1     -15.774 -19.756  18.499  0.00  0.00     0.030 H 
ATOM     81  H39 ALA d   1     -15.342 -18.036  18.785  0.00  0.00     0.030 H 
ENDBRANCH  13  78
ENDBRANCH  10  13
ENDBRANCH   7   9
BRANCH   7  82
ATOM     82  CB  PHE d   1     -17.841 -22.777  15.237  0.00  0.00    -0.014 C 
ATOM     83  H42 PHE d   1     -17.945 -23.444  14.368  0.00  0.00     0.043 H 
ATOM     84  H43 PHE d   1     -18.811 -22.308  15.458  0.00  0.00     0.043 H 
BRANCH  82  85
ATOM     85  CG  PHE d   1     -17.438 -23.613  16.428  0.00  0.00    -0.056 A 
ATOM     86  CD1 PHE d   1     -16.140 -24.098  16.561  0.00  0.00    -0.077 A 
ATOM     87  CE1 PHE d   1     -15.770 -24.876  17.671  0.00  0.00    -0.082 A 
ATOM     88  H44 PHE d   1     -15.404 -23.872  15.797  0.00  0.00     0.084 H 
ATOM     89  CZ  PHE d   1     -16.705 -25.173  18.658  0.00  0.00    -0.083 A 
ATOM     90  H46 PHE d   1     -14.755 -25.245  17.759  0.00  0.00     0.083 H 
ATOM     91  CE2 PHE d   1     -18.002 -24.698  18.534  0.00  0.00    -0.082 A 
ATOM     92  H48 PHE d   1     -16.422 -25.771  19.517  0.00  0.00     0.083 H 
ATOM     93  CD2 PHE d   1     -18.362 -23.922  17.423  0.00  0.00    -0.077 A 
ATOM     94  H47 PHE d   1     -18.738 -24.927  19.296  0.00  0.00     0.083 H 
ATOM     95  H45 PHE d   1     -19.379 -23.556  17.337  0.00  0.00     0.084 H 
ENDBRANCH  82  85
ENDBRANCH   7  82
ENDBRANCH   4   7
ENDBRANCH   1   3
BRANCH   1  96
ATOM     96  C   LYS d   1     -17.212 -18.883  11.624  0.00  0.00     0.241 C 
ATOM     97  O   LYS d   1     -16.938 -19.078  10.437  0.00  0.00    -0.271 OA
ATOM     98  N   ILE d   1     -16.441 -18.176  12.446  0.00  0.00    -0.346 N 
ATOM     99  H62 ILE d   1     -16.720 -18.079  13.402  0.00  0.00     0.163 HD
BRANCH  98 100
ATOM    100  CA  ILE d   1     -15.203 -17.535  12.008  0.00  0.00     0.092 C 
ATOM    101  H63 ILE d   1     -15.448 -16.884  11.156  0.00  0.00     0.088 H 
BRANCH 100 102
ATOM    102  C   ILE d   1     -14.135 -18.527  11.558  0.00  0.00     0.241 C 
ATOM    103  O   ILE d   1     -13.430 -18.286  10.578  0.00  0.00    -0.271 OA
ATOM    104  N   LEU d   1     -14.014 -19.633  12.285  0.00  0.00    -0.346 N 
ATOM    105  H73 LEU d   1     -14.618 -19.766  13.071  0.00  0.00     0.163 HD
BRANCH 104 106
ATOM    106  CA  LEU d   1     -13.026 -20.658  11.969  0.00  0.00     0.089 C 
ATOM    107  H74 LEU d   1     -12.051 -20.163  11.846  0.00  0.00     0.087 H 
BRANCH 106 108
ATOM    108  C   LEU d   1     -13.343 -21.398  10.682  0.00  0.00     0.240 C 
ATOM    109  O   LEU d   1     -12.505 -22.129  10.150  0.00  0.00    -0.271 OA
ATOM    110  N   GLY d   1     -14.559 -21.201  10.183  0.00  0.00    -0.351 N 
ATOM    111  H84 GLY d   1     -15.198 -20.596  10.659  0.00  0.00     0.163 HD
BRANCH 110 112
ATOM    112  CA  GLY d   1     -14.968 -21.855   8.954  0.00  0.00     0.069 C 
ATOM    113  H85 GLY d   1     -14.080 -22.019   8.325  0.00  0.00     0.078 H 
ATOM    114  H86 GLY d   1     -15.678 -21.203   8.423  0.00  0.00     0.078 H 
BRANCH 112 115
ATOM    115  C   GLY d   1     -15.632 -23.188   9.220  0.00  0.00     0.236 C 
ATOM    116  O   GLY d   1     -15.031 -24.242   9.019  0.00  0.00    -0.272 OA
ATOM    117  N   TYR d   1     -16.873 -23.139   9.688  0.00  0.00    -0.346 N 
ATOM    118  H87 TYR d   1     -17.295 -22.246   9.847  0.00  0.00     0.163 HD
BRANCH 117 119
ATOM    119  CA  TYR d   1     -17.641 -24.341   9.978  0.00  0.00     0.093 C 
ATOM    120  H88 TYR d   1     -17.227 -25.179   9.398  0.00  0.00     0.088 H 
BRANCH 119 121
ATOM    121  C   TYR d   1     -19.092 -24.119   9.562  0.00  0.00     0.243 C 
ATOM    122  O   TYR d   1     -19.677 -23.074   9.851  0.00  0.00    -0.271 OA
ATOM    123  N   PRO d   1     -19.689 -25.100   8.864  0.00  0.00    -0.337 N 
ATOM    124  CA  PRO d   1     -21.079 -24.986   8.413  0.00  0.00     0.091 C 
ATOM    125  CD  PRO d   1     -19.122 -26.401   8.466  0.00  0.00    -0.001 C 
ATOM    126  CB  PRO d   1     -21.255 -26.229   7.543  0.00  0.00    -0.036 C 
ATOM    127  H96 PRO d   1     -21.197 -24.079   7.802  0.00  0.00     0.087 H 
ATOM    128  CG  PRO d   1     -20.365 -27.221   8.210  0.00  0.00    -0.048 C 
ATOM    129  H97 PRO d   1     -20.933 -26.039   6.509  0.00  0.00     0.036 H 
ATOM    130  H98 PRO d   1     -22.301 -26.570   7.544  0.00  0.00     0.036 H 
ATOM    131  H99 PRO d   1     -20.152 -28.075   7.550  0.00  0.00     0.035 H 
ATOM    132 0H10 PRO d   1     -20.805 -27.585   9.150  0.00  0.00     0.035 H 
ATOM    133 1H10 PRO d   1     -18.515 -26.837   9.274  0.00  0.00     0.064 H 
ATOM    134 2H10 PRO d   1     -18.510 -26.309   7.557  0.00  0.00     0.064 H 
BRANCH 124 135
ATOM    135  C   PRO d   1     -22.097 -24.919   9.551  0.00  0.00     0.241 C 
ATOM    136  O   PRO d   1     -21.884 -25.485  10.624  0.00  0.00    -0.271 OA
ATOM    137  N   ASP d   1     -23.202 -24.220   9.299  0.00  0.00    -0.344 N 
ATOM    138 3H10 ASP d   1     -23.300 -23.788   8.403  0.00  0.00     0.163 HD
BRANCH 137 139
ATOM    139  CA  ASP d   1     -24.276 -24.057  10.274  0.00  0.00     0.105 C 
ATOM    140 4H10 ASP d   1     -25.006 -23.348   9.857  0.00  0.00     0.090 H 
BRANCH 139 141
ATOM    141  C   ASP d   1     -23.782 -23.493  11.608  0.00  0.00     0.197 C 
ATOM    142  O   ASP d   1     -24.074 -24.104  12.661  0.00  0.00    -0.646 OA
ATOM    143  OXT ASP d   1     -23.104 -22.441  11.598  0.00  0.00    -0.646 OA
ENDBRANCH 139 141
BRANCH 139 144
ATOM    144  CB  ASP d   1     -24.981 -25.399  10.503  0.00  0.00     0.044 C 
ATOM    145 5H10 ASP d   1     -25.801 -25.248  11.220  0.00  0.00     0.053 H 
ATOM    146 6H10 ASP d   1     -24.255 -26.112  10.921  0.00  0.00     0.053 H 
BRANCH 144 147
ATOM    147  CG  ASP d   1     -25.555 -25.983   9.223  0.00  0.00     0.175 C 
ATOM    148  OD1 ASP d   1     -26.328 -25.274   8.539  0.00  0.00    -0.648 OA
ATOM    149  OD2 ASP d   1     -25.238 -27.151   8.904  0.00  0.00    -0.648 OA
ENDBRANCH 144 147
ENDBRANCH 139 144
ENDBRANCH 137 139
ENDBRANCH 124 135
ENDBRANCH 119 121
BRANCH 119 150
ATOM    150  CB  TYR d   1     -17.551 -24.685  11.472  0.00  0.00    -0.014 C 
ATOM    151  H89 TYR d   1     -18.396 -25.341  11.726  0.00  0.00     0.043 H 
ATOM    152  H90 TYR d   1     -17.627 -23.750  12.046  0.00  0.00     0.043 H 
BRANCH 150 153
ATOM    153  CG  TYR d   1     -16.260 -25.390  11.876  0.00  0.00    -0.056 A 
ATOM    154  CD1 TYR d   1     -15.967 -26.673  11.414  0.00  0.00    -0.074 A 
ATOM    155  CE1 TYR d   1     -14.784 -27.327  11.778  0.00  0.00    -0.051 A 
ATOM    156  H91 TYR d   1     -16.670 -27.174  10.759  0.00  0.00     0.084 H 
ATOM    157  CZ  TYR d   1     -13.871 -26.699  12.612  0.00  0.00     0.065 A 
ATOM    158  H93 TYR d   1     -14.581 -28.325  11.408  0.00  0.00     0.087 H 
ATOM    159  CE2 TYR d   1     -14.141 -25.424  13.084  0.00  0.00    -0.051 A 
ATOM    160  CD2 TYR d   1     -15.329 -24.777  12.716  0.00  0.00    -0.074 A 
ATOM    161  H94 TYR d   1     -13.433 -24.927  13.738  0.00  0.00     0.087 H 
ATOM    162  H92 TYR d   1     -15.529 -23.780  13.092  0.00  0.00     0.084 H 
BRANCH 157 163
ATOM    163  OH  TYR d   1     -12.697 -27.337  12.960  0.00  0.00    -0.361 OA
ATOM    164  H95 TYR d   1     -12.672 -28.195  12.554  0.00  0.00     0.217 HD
ENDBRANCH 157 163
ENDBRANCH 150 153
ENDBRANCH 119 150
ENDBRANCH 117 119
ENDBRANCH 112 115
ENDBRANCH 110 112
ENDBRANCH 106 108
BRANCH 106 165
ATOM    165  CB  LEU d   1     -12.923 -21.652  13.119  0.00  0.00    -0.035 C 
ATOM    166  H75 LEU d   1     -12.303 -22.498  12.787  0.00  0.00     0.037 H 
ATOM    167  H76 LEU d   1     -13.936 -22.010  13.356  0.00  0.00     0.037 H 
BRANCH 165 168
ATOM    168  CG  LEU d   1     -12.308 -21.083  14.396  0.00  0.00    -0.059 C 
ATOM    169  H77 LEU d   1     -12.917 -20.236  14.744  0.00  0.00     0.038 H 
BRANCH 168 170
ATOM    170  CD1 LEU d   1     -12.303 -22.160  15.462  0.00  0.00    -0.073 C 
ATOM    171  H78 LEU d   1     -11.861 -21.759  16.386  0.00  0.00     0.028 H 
ATOM    172  H79 LEU d   1     -11.709 -23.018  15.114  0.00  0.00     0.028 H 
ATOM    173  H80 LEU d   1     -13.335 -22.485  15.660  0.00  0.00     0.028 H 
ENDBRANCH 168 170
BRANCH 168 174
ATOM    174  CD2 LEU d   1     -10.888 -20.590  14.119  0.00  0.00    -0.073 C 
ATOM    175  H81 LEU d   1     -10.915 -19.810  13.344  0.00  0.00     0.028 H 
ATOM    176  H82 LEU d   1     -10.269 -21.431  13.772  0.00  0.00     0.028 H 
ATOM    177  H83 LEU d   1     -10.458 -20.174  15.042  0.00  0.00     0.028 H 
ENDBRANCH 168 174
ENDBRANCH 165 168
ENDBRANCH 106 165
ENDBRANCH 104 106
ENDBRANCH 100 102
BRANCH 100 178
ATOM    178  CB  ILE d   1     -14.602 -16.669  13.135  0.00  0.00    -0.030 C 
ATOM    179  H64 ILE d   1     -14.338 -17.319  13.982  0.00  0.00     0.043 H 
BRANCH 178 180
ATOM    180  CG1 ILE d   1     -15.633 -15.643  13.601  0.00  0.00    -0.063 C 
ATOM    181  H65 ILE d   1     -16.579 -16.166  13.805  0.00  0.00     0.033 H 
ATOM    182  H66 ILE d   1     -15.786 -14.910  12.795  0.00  0.00     0.033 H 
BRANCH 180 183
ATOM    183  CD1 ILE d   1     -15.218 -14.906  14.843  0.00  0.00    -0.076 C 
ATOM    184  H70 ILE d   1     -16.002 -14.187  15.122  0.00  0.00     0.027 H 
ATOM    185  H71 ILE d   1     -14.277 -14.368  14.653  0.00  0.00     0.027 H 
ATOM    186  H72 ILE d   1     -15.071 -15.624  15.663  0.00  0.00     0.027 H 
ENDBRANCH 180 183
ENDBRANCH 178 180
BRANCH 178 187
ATOM    187  CG2 ILE d   1     -13.337 -15.960  12.643  0.00  0.00    -0.071 C 
ATOM    188  H67 ILE d   1     -12.603 -16.709  12.310  0.00  0.00     0.028 H 
ATOM    189  H68 ILE d   1     -12.908 -15.365  13.463  0.00  0.00     0.028 H 
ATOM    190  H69 ILE d   1     -13.591 -15.297  11.803  0.00  0.00     0.028 H 
ENDBRANCH 178 187
ENDBRANCH 100 178
ENDBRANCH  98 100
ENDBRANCH   1  96
BRANCH   1 191
ATOM    191  CB  LYS d   1     -19.472 -18.355  12.556  0.00  0.00    -0.038 C 
ATOM    192  H51 LYS d   1     -18.904 -17.424  12.702  0.00  0.00     0.036 H 
ATOM    193  H52 LYS d   1     -19.997 -18.614  13.487  0.00  0.00     0.036 H 
BRANCH 191 194
ATOM    194  CG  LYS d   1     -20.518 -18.104  11.480  0.00  0.00    -0.061 C 
ATOM    195  H53 LYS d   1     -20.032 -18.132  10.493  0.00  0.00     0.033 H 
ATOM    196  H54 LYS d   1     -20.967 -17.113  11.640  0.00  0.00     0.033 H 
BRANCH 194 197
ATOM    197  CD  LYS d   1     -21.616 -19.161  11.525  0.00  0.00    -0.043 C 
ATOM    198  H55 LYS d   1     -22.083 -19.148  12.521  0.00  0.00     0.035 H 
ATOM    199  H56 LYS d   1     -21.168 -20.149  11.342  0.00  0.00     0.035 H 
BRANCH 197 200
ATOM    200  CE  LYS d   1     -22.688 -18.903  10.474  0.00  0.00     0.080 C 
ATOM    201  H57 LYS d   1     -22.232 -18.968   9.475  0.00  0.00     0.075 H 
ATOM    202  H58 LYS d   1     -23.099 -17.894  10.624  0.00  0.00     0.075 H 
BRANCH 200 203
ATOM    203  NZ  LYS d   1     -23.796 -19.895  10.564  0.00  0.00    -0.079 N 
ATOM    204  H59 LYS d   1     -24.485 -19.694   9.856  0.00  0.00     0.274 HD
ATOM    205  H60 LYS d   1     -24.224 -19.839  11.475  0.00  0.00     0.274 HD
ATOM    206  H61 LYS d   1     -23.429 -20.823  10.422  0.00  0.00     0.274 HD
ENDBRANCH 200 203
ENDBRANCH 197 200
ENDBRANCH 194 197
ENDBRANCH 191 194
ENDBRANCH   1 191
TORSDOF 57
