REMARK  6 active torsions:
REMARK  status: ('A' for Active; 'I' for Inactive)
REMARK    1  A    between atoms: C23_2  and  C4_4 
REMARK    2  A    between atoms: C1_9  and  C7_12 
REMARK    3  A    between atoms: C10_15  and  O11_16 
REMARK    4  A    between atoms: O11_16  and  C12_17 
REMARK    5  A    between atoms: C13_18  and  O14_20 
REMARK    6  A    between atoms: O14_20  and  C15_21 
ROOT
ATOM      1  C4  CIO d   1       6.132   3.287  -7.319  0.00  0.00     0.031 C 
ATOM      2  C5  CIO d   1       6.064   2.722  -8.722  0.00  0.00    -0.051 C 
ATOM      3  C6  CIO d   1       4.635   2.744  -9.269  0.00  0.00    -0.041 C 
ATOM      4  C3  CIO d   1       5.343   2.331  -6.446  0.00  0.00    -0.051 C 
ATOM      5  C2  CIO d   1       3.890   2.310  -6.989  0.00  0.00    -0.041 C 
ATOM      6  C1  CIO d   1       3.701   1.868  -8.448  0.00  0.00     0.076 C 
ATOM      7  C21 CIO d   1       4.112   0.482  -8.650  0.00  0.00     0.074 C 
ATOM      8  N22 CIO d   1       4.400  -0.619  -8.876  0.00  0.00    -0.196 NA
ATOM      9  H1  CIO d   1       5.636   4.269  -7.295  0.00  0.00     0.056 H 
ATOM     10  H2  CIO d   1       6.424   1.683  -8.706  0.00  0.00     0.034 H 
ATOM     11  H3  CIO d   1       6.708   3.323  -9.381  0.00  0.00     0.034 H 
ATOM     12  H4  CIO d   1       4.645   2.378 -10.306  0.00  0.00     0.036 H 
ATOM     13  H5  CIO d   1       4.262   3.779  -9.248  0.00  0.00     0.036 H 
ATOM     14  H6  CIO d   1       5.351   2.679  -5.403  0.00  0.00     0.034 H 
ATOM     15  H7  CIO d   1       5.780   1.323  -6.500  0.00  0.00     0.034 H 
ATOM     16  H8  CIO d   1       3.485   3.328  -6.895  0.00  0.00     0.036 H 
ATOM     17  H9  CIO d   1       3.308   1.624  -6.356  0.00  0.00     0.036 H 
ENDROOT
BRANCH   6  18
ATOM     18  C7  CIO d   1       2.253   1.844  -8.966  0.00  0.00    -0.033 A 
ATOM     19  C8  CIO d   1       1.140   2.190  -8.190  0.00  0.00    -0.072 A 
ATOM     20  C9  CIO d   1      -0.155   2.125  -8.719  0.00  0.00    -0.047 A 
ATOM     21  H10 CIO d   1       1.283   2.513  -7.165  0.00  0.00     0.084 H 
ATOM     22  C10 CIO d   1      -0.400   1.708 -10.048  0.00  0.00     0.101 A 
ATOM     23  H11 CIO d   1      -0.994   2.402  -8.091  0.00  0.00     0.087 H 
ATOM     24  C13 CIO d   1       0.699   1.367 -10.825  0.00  0.00     0.103 A 
ATOM     25  C20 CIO d   1       2.001   1.422 -10.285  0.00  0.00    -0.040 A 
ATOM     26  H15 CIO d   1       2.838   1.129 -10.908  0.00  0.00     0.088 H 
BRANCH  22  27
ATOM     27  O11 CIO d   1      -1.684   1.625 -10.601  0.00  0.00    -0.353 OA
BRANCH  27  28
ATOM     28  C12 CIO d   1      -2.866   1.865  -9.809  0.00  0.00     0.010 C 
ATOM     29  H12 CIO d   1      -3.760   1.748 -10.439  0.00  0.00     0.066 H 
ATOM     30  H13 CIO d   1      -2.835   2.887  -9.404  0.00  0.00     0.066 H 
ATOM     31  H14 CIO d   1      -2.905   1.143  -8.980  0.00  0.00     0.066 H 
ENDBRANCH  27  28
ENDBRANCH  22  27
BRANCH  24  32
ATOM     32  O14 CIO d   1       0.464   0.949 -12.102  0.00  0.00    -0.343 OA
BRANCH  32  33
ATOM     33  C15 CIO d   1       1.613   0.844 -12.996  0.00  0.00     0.045 C 
ATOM     34  C16 CIO d   1       1.510  -0.434 -13.760  0.00  0.00    -0.040 C 
ATOM     35  C17 CIO d   1       0.407  -0.124 -14.720  0.00  0.00    -0.063 C 
ATOM     36  H17 CIO d   1       1.245  -1.274 -13.102  0.00  0.00     0.036 H 
ATOM     37  H18 CIO d   1       2.448  -0.663 -14.287  0.00  0.00     0.036 H 
ATOM     38  C18 CIO d   1       0.493   1.353 -14.975  0.00  0.00    -0.063 C 
ATOM     39  H19 CIO d   1      -0.568  -0.381 -14.280  0.00  0.00     0.033 H 
ATOM     40  H20 CIO d   1       0.545  -0.683 -15.657  0.00  0.00     0.033 H 
ATOM     41  C19 CIO d   1       1.612   1.869 -14.102  0.00  0.00    -0.040 C 
ATOM     42  H21 CIO d   1      -0.455   1.842 -14.707  0.00  0.00     0.033 H 
ATOM     43  H22 CIO d   1       0.718   1.544 -16.035  0.00  0.00     0.033 H 
ATOM     44  H23 CIO d   1       2.571   1.882 -14.641  0.00  0.00     0.036 H 
ATOM     45  H24 CIO d   1       1.393   2.876 -13.719  0.00  0.00     0.036 H 
ATOM     46  H16 CIO d   1       2.542   0.899 -12.410  0.00  0.00     0.084 H 
ENDBRANCH  32  33
ENDBRANCH  24  32
ENDBRANCH   6  18
BRANCH   1  47
ATOM     47  C23 CIO d   1       7.586   3.494  -6.905  0.00  0.00     0.177 C 
ATOM     48  O25 CIO d   1       7.942   4.687  -6.589  0.00  0.00    -0.648 OA
ATOM     49  O24 CIO d   1       8.387   2.506  -6.939  0.00  0.00    -0.648 OA
ENDBRANCH   1  47
TORSDOF 6
