REMARK  9 active torsions:
REMARK  status: ('A' for Active; 'I' for Inactive)
REMARK       I    between atoms: C18_2  and  N20_3 
REMARK    1  A    between atoms: C18_2  and  O21_4 
REMARK    2  A    between atoms: O21_4  and  N2_5 
REMARK    3  A    between atoms: N2_5  and  C1_6 
REMARK    4  A    between atoms: C1_6  and  C17_7 
REMARK    5  A    between atoms: C1_6  and  C3_8 
REMARK    6  A    between atoms: C6_11  and  O7_12 
REMARK    7  A    between atoms: O7_12  and  C8_13 
REMARK    8  A    between atoms: C9_14  and  O10_16 
REMARK    9  A    between atoms: O10_16  and  C11_17 
ROOT
ATOM      1  C3  FIL d   1       2.038   1.828  -8.613  0.00  0.00    -0.023 A 
ATOM      2  C4  FIL d   1       0.872   2.068  -7.895  0.00  0.00    -0.072 A 
ATOM      3  C5  FIL d   1      -0.368   1.992  -8.507  0.00  0.00    -0.047 A 
ATOM      4  C6  FIL d   1      -0.467   1.667  -9.850  0.00  0.00     0.101 A 
ATOM      5  C9  FIL d   1       0.706   1.425 -10.583  0.00  0.00     0.103 A 
ATOM      6  C16 FIL d   1       1.951   1.509  -9.960  0.00  0.00    -0.040 A 
ATOM      7  H9  FIL d   1       0.934   2.318  -6.842  0.00  0.00     0.084 H 
ATOM      8  H10 FIL d   1      -1.266   2.188  -7.932  0.00  0.00     0.087 H 
ATOM      9  H14 FIL d   1       2.854   1.324 -10.531  0.00  0.00     0.088 H 
ENDROOT
BRANCH   1  10
ATOM     10  C1  FIL d   1       3.361   1.928  -7.934  0.00  0.00     0.152 C 
ATOM     11  H5  FIL d   1       3.194   1.948  -6.847  0.00  0.00     0.095 H 
BRANCH  10  12
ATOM     12  N2  FIL d   1       4.019   3.174  -8.315  0.00  0.00     0.056 N 
ATOM     13  H3  FIL d   1       3.385   3.644  -8.942  0.00  0.00     0.316 HD
ATOM     14  H4  FIL d   1       4.113   3.711  -7.467  0.00  0.00     0.316 HD
BRANCH  12  15
ATOM     15  O21 FIL d   1       5.312   3.208  -8.955  0.00  0.00    -0.103 OA
BRANCH  15  16
ATOM     16  C18 FIL d   1       6.517   2.853  -8.206  0.00  0.00     0.385 C 
ATOM     17  O19 FIL d   1       6.576   3.187  -7.022  0.00  0.00    -0.237 OA
ATOM     18  N20 FIL d   1       7.494   2.176  -8.822  0.00  0.00    -0.344 N 
ATOM     19  H1  FIL d   1       8.323   1.927  -8.321  0.00  0.00     0.161 HD
ATOM     20  H2  FIL d   1       7.395   1.919  -9.783  0.00  0.00     0.161 HD
ENDBRANCH  15  16
ENDBRANCH  12  15
ENDBRANCH  10  12
BRANCH  10  21
ATOM     21  C17 FIL d   1       4.213   0.706  -8.258  0.00  0.00    -0.043 C 
ATOM     22  H6  FIL d   1       3.677  -0.205  -7.954  0.00  0.00     0.030 H 
ATOM     23  H7  FIL d   1       5.167   0.769  -7.714  0.00  0.00     0.030 H 
ATOM     24  H8  FIL d   1       4.409   0.672  -9.340  0.00  0.00     0.030 H 
ENDBRANCH  10  21
ENDBRANCH   1  10
BRANCH   5  25
ATOM     25  O10 FIL d   1       0.608   1.105 -11.906  0.00  0.00    -0.343 OA
BRANCH  25  26
ATOM     26  C11 FIL d   1       1.724   1.096 -12.798  0.00  0.00     0.045 C 
ATOM     27  C12 FIL d   1       1.917  -0.295 -13.358  0.00  0.00    -0.040 C 
ATOM     28  C13 FIL d   1       1.007  -0.361 -14.568  0.00  0.00    -0.063 C 
ATOM     29  H16 FIL d   1       1.629  -1.054 -12.616  0.00  0.00     0.036 H 
ATOM     30  H17 FIL d   1       2.965  -0.451 -13.654  0.00  0.00     0.036 H 
ATOM     31  C14 FIL d   1       0.870   1.063 -15.070  0.00  0.00    -0.063 C 
ATOM     32  H18 FIL d   1       0.023  -0.762 -14.284  0.00  0.00     0.033 H 
ATOM     33  H19 FIL d   1       1.452  -0.999 -15.346  0.00  0.00     0.033 H 
ATOM     34  C15 FIL d   1       1.377   1.972 -13.968  0.00  0.00    -0.040 C 
ATOM     35  H20 FIL d   1      -0.184   1.287 -15.289  0.00  0.00     0.033 H 
ATOM     36  H21 FIL d   1       1.471   1.202 -15.981  0.00  0.00     0.033 H 
ATOM     37  H22 FIL d   1       2.269   2.517 -14.309  0.00  0.00     0.036 H 
ATOM     38  H23 FIL d   1       0.595   2.691 -13.682  0.00  0.00     0.036 H 
ATOM     39  H15 FIL d   1       2.634   1.446 -12.288  0.00  0.00     0.084 H 
ENDBRANCH  25  26
ENDBRANCH   5  25
BRANCH   4  40
ATOM     40  O7  FIL d   1      -1.697   1.579 -10.453  0.00  0.00    -0.353 OA
BRANCH  40  41
ATOM     41  C8  FIL d   1      -2.902   2.144  -9.942  0.00  0.00     0.010 C 
ATOM     42  H11 FIL d   1      -3.732   1.920 -10.628  0.00  0.00     0.066 H 
ATOM     43  H12 FIL d   1      -2.786   3.234  -9.851  0.00  0.00     0.066 H 
ATOM     44  H13 FIL d   1      -3.118   1.714  -8.953  0.00  0.00     0.066 H 
ENDBRANCH  40  41
ENDBRANCH   4  40
TORSDOF 9
