REMARK  8 active torsions:
REMARK  status: ('A' for Active; 'I' for Inactive)
REMARK    1  A    between atoms: C1_6  and  C18_7 
REMARK    2  A    between atoms: C1_6  and  C6_8 
REMARK    3  A    between atoms: C9_11  and  O10_12 
REMARK    4  A    between atoms: O10_12  and  C11_13 
REMARK    5  A    between atoms: C12_14  and  O13_16 
REMARK    6  A    between atoms: O13_16  and  C14_17 
REMARK    7  A    between atoms: C14_17  and  C15_18 
REMARK    8  A    between atoms: C15_18  and  C16_19 
ROOT
ATOM      1  C6  5RM d   1      46.610   1.727  -8.636  0.00  0.00    -0.019 A 
ATOM      2  C7  5RM d   1      45.510   2.174  -7.895  0.00  0.00    -0.071 A 
ATOM      3  C8  5RM d   1      44.228   2.160  -8.441  0.00  0.00    -0.047 A 
ATOM      4  C9  5RM d   1      44.026   1.659  -9.730  0.00  0.00     0.101 A 
ATOM      5  C12 5RM d   1      45.116   1.207 -10.487  0.00  0.00     0.102 A 
ATOM      6  C17 5RM d   1      46.393   1.241  -9.926  0.00  0.00    -0.039 A 
ATOM      7  H7  5RM d   1      45.657   2.536  -6.884  0.00  0.00     0.084 H 
ATOM      8  H8  5RM d   1      43.389   2.537  -7.867  0.00  0.00     0.087 H 
ATOM      9  H12 5RM d   1      47.236   0.882 -10.505  0.00  0.00     0.088 H 
ENDROOT
BRANCH   1  10
ATOM     10  C1  5RM d   1      47.997   1.731  -8.028  0.00  0.00     0.112 C 
ATOM     11  O5  5RM d   1      48.971   1.292  -8.967  0.00  0.00    -0.286 OA
ATOM     12  C4  5RM d   1      49.765   2.405  -9.398  0.00  0.00     0.361 C 
ATOM     13  O19 5RM d   1      50.785   2.201 -10.054  0.00  0.00    -0.238 OA
ATOM     14  N3  5RM d   1      49.503   3.438  -8.580  0.00  0.00    -0.334 N 
ATOM     15  C2  5RM d   1      48.458   3.139  -7.619  0.00  0.00     0.030 C 
ATOM     16  H1  5RM d   1      49.977   4.317  -8.628  0.00  0.00     0.164 HD
ATOM     17  H2  5RM d   1      47.633   3.862  -7.696  0.00  0.00     0.069 H 
ATOM     18  H3  5RM d   1      48.853   3.142  -6.593  0.00  0.00     0.069 H 
BRANCH  10  19
ATOM     19  C18 5RM d   1      48.049   0.724  -6.873  0.00  0.00    -0.042 C 
ATOM     20  H4  5RM d   1      47.314   1.008  -6.106  0.00  0.00     0.032 H 
ATOM     21  H5  5RM d   1      49.057   0.723  -6.432  0.00  0.00     0.032 H 
ATOM     22  H6  5RM d   1      47.814  -0.281  -7.252  0.00  0.00     0.032 H 
ENDBRANCH  10  19
ENDBRANCH   1  10
BRANCH   5  23
ATOM     23  O13 5RM d   1      44.888   0.747 -11.781  0.00  0.00    -0.348 OA
BRANCH  23  24
ATOM     24  C14 5RM d   1      45.905   0.195 -12.618  0.00  0.00     0.026 C 
ATOM     25  H13 5RM d   1      46.195  -0.797 -12.241  0.00  0.00     0.075 H 
ATOM     26  H14 5RM d   1      46.782   0.858 -12.618  0.00  0.00     0.075 H 
BRANCH  24  27
ATOM     27  C15 5RM d   1      45.363   0.063 -14.040  0.00  0.00    -0.048 C 
ATOM     28  H15 5RM d   1      44.421  -0.504 -14.025  0.00  0.00     0.035 H 
ATOM     29  H16 5RM d   1      46.097  -0.462 -14.668  0.00  0.00     0.035 H 
BRANCH  27  30
ATOM     30  C16 5RM d   1      45.115   1.445 -14.596  0.00  0.00    -0.075 C 
ATOM     31  H17 5RM d   1      44.724   1.363 -15.621  0.00  0.00     0.027 H 
ATOM     32  H18 5RM d   1      46.059   2.010 -14.608  0.00  0.00     0.027 H 
ATOM     33  H19 5RM d   1      44.382   1.968 -13.965  0.00  0.00     0.027 H 
ENDBRANCH  27  30
ENDBRANCH  24  27
ENDBRANCH  23  24
ENDBRANCH   5  23
BRANCH   4  34
ATOM     34  O10 5RM d   1      42.785   1.619 -10.308  0.00  0.00    -0.353 OA
BRANCH  34  35
ATOM     35  C11 5RM d   1      41.584   2.117  -9.704  0.00  0.00     0.010 C 
ATOM     36  H9  5RM d   1      40.737   1.957 -10.387  0.00  0.00     0.066 H 
ATOM     37  H10 5RM d   1      41.694   3.193  -9.502  0.00  0.00     0.066 H 
ATOM     38  H11 5RM d   1      41.400   1.584  -8.760  0.00  0.00     0.066 H 
ENDBRANCH  34  35
ENDBRANCH   4  34
TORSDOF 8
