REMARK  6 active torsions:
REMARK  status: ('A' for Active; 'I' for Inactive)
REMARK    1  A    between atoms: C20_16  and  C21_4 
REMARK    2  A    between atoms: C9_6  and  C8_5 
REMARK       I    between atoms: C8_5  and  N7_18 
REMARK    3  A    between atoms: C12_9  and  O15_10 
REMARK    4  A    between atoms: O15_10  and  C16_11 
REMARK    5  A    between atoms: O19_15  and  C13_14 
REMARK    6  A    between atoms: O19_15  and  C20_16 
ROOT
ATOM      1  C9  ROF d   1       2.123   0.712  42.001  0.00  0.00     0.035 A 
ATOM      2  C10 ROF d   1       0.983   1.052  42.743  0.00  0.00    -0.065 A 
ATOM      3  C11 ROF d   1      -0.292   1.000  42.192  0.00  0.00    -0.047 A 
ATOM      4  C12 ROF d   1      -0.475   0.598  40.868  0.00  0.00     0.108 A 
ATOM      5  C13 ROF d   1       0.730   0.232  40.071  0.00  0.00     0.103 A 
ATOM      6  C14 ROF d   1       1.984   0.308  40.686  0.00  0.00    -0.033 A 
ATOM      7  H6  ROF d   1       1.099   1.364  43.775  0.00  0.00     0.085 H 
ATOM      8  H7  ROF d   1      -1.150   1.274  42.795  0.00  0.00     0.087 H 
ATOM      9  H11 ROF d   1       2.869   0.044  40.118  0.00  0.00     0.089 H 
ENDROOT
BRANCH   1  10
ATOM     10  C8  ROF d   1       3.520   0.762  42.587  0.00  0.00     0.256 C 
ATOM     11  O24 ROF d   1       4.428   0.365  41.885  0.00  0.00    -0.267 OA
ATOM     12  N7  ROF d   1       3.729   1.244  43.822  0.00  0.00    -0.320 N 
ATOM     13  C6  ROF d   1       4.974   1.393  44.339  0.00  0.00     0.081 A 
ATOM     14  H12 ROF d   1       2.940   1.502  44.380  0.00  0.00     0.169 HD
ATOM     15  C5  ROF d   1       6.047   2.267  43.788  0.00  0.00     0.080 A 
ATOM     16  C1  ROF d   1       5.354   0.645  45.571  0.00  0.00     0.080 A 
ATOM     17 CL26 ROF d   1       5.789   3.247  42.406  0.00  0.00    -0.080 Cl
ATOM     18  C4  ROF d   1       7.280   2.321  44.427  0.00  0.00     0.025 A 
ATOM     19  N3  ROF d   1       7.527   1.606  45.545  0.00  0.00    -0.270 NA
ATOM     20  H13 ROF d   1       8.061   2.952  44.018  0.00  0.00     0.117 H 
ATOM     21  C2  ROF d   1       6.624   0.791  46.117  0.00  0.00     0.025 A 
ATOM     22  H14 ROF d   1       6.889   0.242  47.013  0.00  0.00     0.117 H 
ATOM     23 CL25 ROF d   1       4.239  -0.406  46.336  0.00  0.00    -0.080 Cl
ENDBRANCH   1  10
BRANCH   5  24
ATOM     24  O19 ROF d   1       0.584  -0.142  38.753  0.00  0.00    -0.348 OA
BRANCH  24  25
ATOM     25  C20 ROF d   1       1.479  -1.057  38.115  0.00  0.00     0.029 C 
ATOM     26  H9  ROF d   1       2.504  -0.864  38.465  0.00  0.00     0.075 H 
ATOM     27  H10 ROF d   1       1.190  -2.086  38.376  0.00  0.00     0.075 H 
BRANCH  25  28
ATOM     28  C21 ROF d   1       1.429  -0.894  36.628  0.00  0.00    -0.033 A 
ATOM     29  C23 ROF d   1       2.391  -0.514  35.547  0.00  0.00    -0.059 A 
ATOM     30  C22 ROF d   1       1.016   0.190  35.683  0.00  0.00    -0.059 A 
ATOM     31  H1  ROF d   1       3.316   0.027  35.795  0.00  0.00     0.033 H 
ATOM     32  H2  ROF d   1       2.581  -1.200  34.709  0.00  0.00     0.033 H 
ATOM     33  H3  ROF d   1       0.224   0.006  34.942  0.00  0.00     0.033 H 
ATOM     34  H4  ROF d   1       0.960   1.233  36.028  0.00  0.00     0.033 H 
ATOM     35  H5  ROF d   1       0.924  -1.839  36.377  0.00  0.00     0.043 H 
ENDBRANCH  25  28
ENDBRANCH  24  25
ENDBRANCH   5  24
BRANCH   4  36
ATOM     36  O15 ROF d   1      -1.708   0.538  40.243  0.00  0.00    -0.287 OA
BRANCH  36  37
ATOM     37  C16 ROF d   1      -2.962   0.727  40.887  0.00  0.00     0.310 C 
ATOM     38  F18 ROF d   1      -3.024  -0.150  41.938  0.00  0.00    -0.184 F 
ATOM     39  F17 ROF d   1      -3.050   2.024  41.306  0.00  0.00    -0.184 F 
ATOM     40  H8  ROF d   1      -3.782   0.517  40.185  0.00  0.00     0.195 H 
ENDBRANCH  36  37
ENDBRANCH   4  36
TORSDOF 6
