REMARK  5 active torsions:
REMARK  status: ('A' for Active; 'I' for Inactive)
REMARK    1  A    between atoms: C5_1  and  C3_7 
REMARK    2  A    between atoms: C7_3  and  O3_13 
REMARK    3  A    between atoms: C8_4  and  O2_19 
REMARK    4  A    between atoms: O3_13  and  C11_14 
REMARK    5  A    between atoms: O2_19  and  C16_20 
ROOT
ATOM      1  C5  ROL d   1      42.769   1.921  61.693  0.00  0.00    -0.049 A 
ATOM      2  C6  ROL d   1      42.869   1.658  63.071  0.00  0.00    -0.042 A 
ATOM      3  C7  ROL d   1      44.119   1.474  63.714  0.00  0.00     0.103 A 
ATOM      4  C8  ROL d   1      45.288   1.511  62.946  0.00  0.00     0.101 A 
ATOM      5  C9  ROL d   1      45.183   1.744  61.578  0.00  0.00    -0.048 A 
ATOM      6  C10 ROL d   1      43.952   1.937  60.967  0.00  0.00    -0.074 A 
ATOM      7  H1  ROL d   1      41.961   1.594  63.660  0.00  0.00     0.088 H 
ATOM      8  H2  ROL d   1      46.084   1.776  60.976  0.00  0.00     0.087 H 
ATOM      9  H3  ROL d   1      43.913   2.104  59.897  0.00  0.00     0.084 H 
ENDROOT
BRANCH   3  10
ATOM     10  O3  ROL d   1      44.279   1.238  65.104  0.00  0.00    -0.343 OA
BRANCH  10  11
ATOM     11  C11 ROL d   1      43.113   1.313  65.919  0.00  0.00     0.045 C 
ATOM     12  C15 ROL d   1      42.589  -0.059  66.355  0.00  0.00    -0.040 C 
ATOM     13  C14 ROL d   1      42.617   0.089  67.900  0.00  0.00    -0.063 C 
ATOM     14  H11 ROL d   1      43.250  -0.870  66.015  0.00  0.00     0.036 H 
ATOM     15  H12 ROL d   1      41.569  -0.238  65.985  0.00  0.00     0.036 H 
ATOM     16  C13 ROL d   1      43.976   0.720  68.166  0.00  0.00    -0.063 C 
ATOM     17  H13 ROL d   1      42.535  -0.892  68.391  0.00  0.00     0.033 H 
ATOM     18  H14 ROL d   1      41.804   0.743  68.248  0.00  0.00     0.033 H 
ATOM     19  C12 ROL d   1      43.916   1.862  67.135  0.00  0.00    -0.040 C 
ATOM     20  H15 ROL d   1      44.802   0.023  67.962  0.00  0.00     0.033 H 
ATOM     21  H16 ROL d   1      44.061   1.098  69.196  0.00  0.00     0.033 H 
ATOM     22  H17 ROL d   1      43.406   2.736  67.565  0.00  0.00     0.036 H 
ATOM     23  H18 ROL d   1      44.932   2.147  66.823  0.00  0.00     0.036 H 
ATOM     24  H10 ROL d   1      42.315   1.959  65.524  0.00  0.00     0.084 H 
ENDBRANCH  10  11
ENDBRANCH   3  10
BRANCH   4  25
ATOM     25  O2  ROL d   1      46.562   1.325  63.518  0.00  0.00    -0.353 OA
BRANCH  25  26
ATOM     26  C16 ROL d   1      47.759   1.995  63.026  0.00  0.00     0.010 C 
ATOM     27  H19 ROL d   1      48.625   1.690  63.632  0.00  0.00     0.066 H 
ATOM     28  H20 ROL d   1      47.626   3.084  63.099  0.00  0.00     0.066 H 
ATOM     29  H21 ROL d   1      47.930   1.716  61.976  0.00  0.00     0.066 H 
ENDBRANCH  25  26
ENDBRANCH   4  25
BRANCH   1  30
ATOM     30  C3  ROL d   1      41.473   2.100  60.826  0.00  0.00    -0.005 C 
ATOM     31  C2  ROL d   1      40.479   1.097  61.404  0.00  0.00     0.018 C 
ATOM     32  C1  ROL d   1      39.757   2.030  62.293  0.00  0.00     0.218 C 
ATOM     33  H5  ROL d   1      40.976   0.289  61.961  0.00  0.00     0.048 H 
ATOM     34  H6  ROL d   1      39.825   0.663  60.633  0.00  0.00     0.048 H 
ATOM     35  O1  ROL d   1      38.961   1.646  63.123  0.00  0.00    -0.274 OA
ATOM     36  N1  ROL d   1      40.164   3.295  62.095  0.00  0.00    -0.360 N 
ATOM     37  C4  ROL d   1      40.923   3.504  60.893  0.00  0.00     0.003 C 
ATOM     38  H7  ROL d   1      39.955   4.034  62.735  0.00  0.00     0.162 HD
ATOM     39  H8  ROL d   1      40.292   3.758  60.028  0.00  0.00     0.065 H 
ATOM     40  H9  ROL d   1      41.708   4.265  61.010  0.00  0.00     0.065 H 
ATOM     41  H4  ROL d   1      41.690   1.857  59.775  0.00  0.00     0.050 H 
ENDBRANCH   1  30
TORSDOF 5
