REMARK  5 active torsions:
REMARK  status: ('A' for Active; 'I' for Inactive)
REMARK    1  A    between atoms: C6_6  and  C7_7 
REMARK    2  A    between atoms: C9_9  and  O10_15 
REMARK    3  A    between atoms: C16_10  and  O17_13 
REMARK    4  A    between atoms: O17_13  and  C18_14 
REMARK    5  A    between atoms: O10_15  and  C11_16 
ROOT
ATOM      1  C7  ROL d   1       2.036   2.008  -8.408  0.00  0.00    -0.049 A 
ATOM      2  C8  ROL d   1       1.981   1.708  -9.774  0.00  0.00    -0.042 A 
ATOM      3  C9  ROL d   1       0.742   1.653 -10.453  0.00  0.00     0.103 A 
ATOM      4  C16 ROL d   1      -0.454   1.900  -9.761  0.00  0.00     0.101 A 
ATOM      5  C19 ROL d   1      -0.398   2.199  -8.401  0.00  0.00    -0.048 A 
ATOM      6  C20 ROL d   1       0.833   2.251  -7.737  0.00  0.00    -0.074 A 
ATOM      7  H7  ROL d   1       2.899   1.516 -10.318  0.00  0.00     0.088 H 
ATOM      8  H8  ROL d   1      -1.314   2.393  -7.854  0.00  0.00     0.087 H 
ATOM      9  H9  ROL d   1       0.855   2.485  -6.679  0.00  0.00     0.084 H 
ENDROOT
BRANCH   3  10
ATOM     10  O10 ROL d   1       0.666   1.355 -11.814  0.00  0.00    -0.343 OA
BRANCH  10  11
ATOM     11  C11 ROL d   1       1.946   1.353 -12.516  0.00  0.00     0.045 C 
ATOM     12  C12 ROL d   1       1.350   1.926 -13.635  0.00  0.00    -0.040 C 
ATOM     13  C13 ROL d   1       0.909   0.822 -14.611  0.00  0.00    -0.063 C 
ATOM     14  H14 ROL d   1       2.072   2.589 -14.135  0.00  0.00     0.036 H 
ATOM     15  H15 ROL d   1       0.472   2.510 -13.323  0.00  0.00     0.036 H 
ATOM     16  C14 ROL d   1       1.255  -0.481 -13.859  0.00  0.00    -0.063 C 
ATOM     17  H16 ROL d   1       1.465   0.889 -15.558  0.00  0.00     0.033 H 
ATOM     18  H17 ROL d   1      -0.170   0.884 -14.814  0.00  0.00     0.033 H 
ATOM     19  C15 ROL d   1       2.383  -0.070 -12.879  0.00  0.00    -0.040 C 
ATOM     20  H18 ROL d   1       1.609  -1.252 -14.559  0.00  0.00     0.033 H 
ATOM     21  H19 ROL d   1       0.380  -0.858 -13.309  0.00  0.00     0.033 H 
ATOM     22  H20 ROL d   1       2.408  -0.723 -11.995  0.00  0.00     0.036 H 
ATOM     23  H21 ROL d   1       3.368  -0.078 -13.369  0.00  0.00     0.036 H 
ATOM     24  H13 ROL d   1       2.753   1.929 -12.040  0.00  0.00     0.084 H 
ENDBRANCH  10  11
ENDBRANCH   3  10
BRANCH   4  25
ATOM     25  O17 ROL d   1      -1.664   1.841 -10.450  0.00  0.00    -0.353 OA
BRANCH  25  26
ATOM     26  C18 ROL d   1      -2.905   2.423  -9.995  0.00  0.00     0.010 C 
ATOM     27  H10 ROL d   1      -3.696   2.225 -10.734  0.00  0.00     0.066 H 
ATOM     28  H11 ROL d   1      -2.779   3.509  -9.876  0.00  0.00     0.066 H 
ATOM     29  H12 ROL d   1      -3.186   1.978  -9.029  0.00  0.00     0.066 H 
ENDBRANCH  25  26
ENDBRANCH   4  25
BRANCH   1  30
ATOM     30  C6  ROL d   1       3.357   2.086  -7.623  0.00  0.00    -0.005 C 
ATOM     31  C1  ROL d   1       3.890   3.467  -7.606  0.00  0.00     0.018 C 
ATOM     32  C2  ROL d   1       4.782   3.479  -8.813  0.00  0.00     0.218 C 
ATOM     33  H1  ROL d   1       3.082   4.207  -7.700  0.00  0.00     0.048 H 
ATOM     34  H2  ROL d   1       4.461   3.663  -6.686  0.00  0.00     0.048 H 
ATOM     35  O3  ROL d   1       5.435   4.455  -9.114  0.00  0.00    -0.274 OA
ATOM     36  N4  ROL d   1       5.087   2.208  -9.120  0.00  0.00    -0.360 N 
ATOM     37  C5  ROL d   1       4.517   1.250  -8.199  0.00  0.00     0.003 C 
ATOM     38  H3  ROL d   1       5.651   1.950  -9.905  0.00  0.00     0.162 HD
ATOM     39  H4  ROL d   1       5.235   0.957  -7.419  0.00  0.00     0.065 H 
ATOM     40  H5  ROL d   1       4.153   0.351  -8.719  0.00  0.00     0.065 H 
ATOM     41  H6  ROL d   1       3.152   1.753  -6.595  0.00  0.00     0.050 H 
ENDBRANCH   1  30
TORSDOF 5
