REMARK WARNING: 32 MAX_TORS EXCEEDED!!!
REMARK  49 active torsions:
REMARK  status: ('A' for Active; 'I' for Inactive)
REMARK    1  A    between atoms: N_1  and  CA_2 
REMARK    2  A    between atoms: CA_2  and  C_3 
REMARK    3  A    between atoms: CA_2  and  CB_5 
REMARK       I    between atoms: C_3  and  N_15 
REMARK    4  A    between atoms: CB_5  and  CG_6 
REMARK    5  A    between atoms: N_15  and  CA_16 
REMARK    6  A    between atoms: CA_16  and  C_17 
REMARK    7  A    between atoms: CA_16  and  CB_19 
REMARK       I    between atoms: C_17  and  N_29 
REMARK    8  A    between atoms: CB_19  and  CG_20 
REMARK    9  A    between atoms: N_29  and  CA_30 
REMARK   10  A    between atoms: CA_30  and  C_31 
REMARK   11  A    between atoms: CA_30  and  CB_33 
REMARK       I    between atoms: C_31  and  N_35 
REMARK   12  A    between atoms: CB_33  and  OG_34 
REMARK   13  A    between atoms: N_35  and  CA_36 
REMARK   14  A    between atoms: CA_36  and  C_37 
REMARK   15  A    between atoms: CA_36  and  CB_39 
REMARK       I    between atoms: C_37  and  N_44 
REMARK   16  A    between atoms: CB_39  and  CG_40 
REMARK   17  A    between atoms: CG_40  and  CD_41 
REMARK   18  A    between atoms: N_44  and  CA_45 
REMARK   19  A    between atoms: CA_45  and  C_46 
REMARK   20  A    between atoms: CA_45  and  CB_48 
REMARK       I    between atoms: C_46  and  N_51 
REMARK   21  A    between atoms: CB_48  and  CG1_49 
REMARK   22  A    between atoms: CB_48  and  CG2_50 
REMARK   23  A    between atoms: N_51  and  CA_52 
REMARK   24  A    between atoms: CA_52  and  C_53 
REMARK   25  A    between atoms: CA_52  and  CB_55 
REMARK       I    between atoms: C_53  and  N_59 
REMARK   26  A    between atoms: CB_55  and  CG_56 
REMARK       I    between atoms: CG_56  and  ND2_58 
REMARK   27  A    between atoms: N_59  and  CA_60 
REMARK   28  A    between atoms: CA_60  and  CB_61 
REMARK   29  A    between atoms: CA_60  and  C_65 
REMARK   30  A    between atoms: CB_61  and  CG_62 
REMARK   31  A    between atoms: CG_62  and  CD1_63 
REMARK   32  A    between atoms: CG_62  and  CD2_64 
REMARK   33  A    between atoms: C_65  and  O_66 
REMARK   34  A    between atoms: C_65  and  CM_67 
REMARK   35  A    between atoms: CM_67  and  CA_68 
REMARK   36  A    between atoms: CA_68  and  CB_69 
REMARK   37  A    between atoms: CA_68  and  C_70 
REMARK       I    between atoms: C_70  and  N_72 
REMARK   38  A    between atoms: N_72  and  CA_73 
REMARK   39  A    between atoms: CA_73  and  C_74 
REMARK   40  A    between atoms: CA_73  and  CB_76 
REMARK       I    between atoms: C_74  and  N_77 
REMARK   41  A    between atoms: N_77  and  CA_78 
REMARK   42  A    between atoms: CA_78  and  C_79 
REMARK   43  A    between atoms: CA_78  and  CB_81 
REMARK       I    between atoms: C_79  and  N_86 
REMARK   44  A    between atoms: CB_81  and  CG_82 
REMARK   45  A    between atoms: CG_82  and  CD_83 
REMARK   46  A    between atoms: N_86  and  CA_87 
REMARK   47  A    between atoms: CA_87  and  C_88 
REMARK   48  A    between atoms: CA_87  and  CB_90 
REMARK   49  A    between atoms: CB_90  and  CG_91 
ROOT
ATOM      1  C   VAL d   1      43.254  70.367  56.004  0.00  0.00     0.241 C 
ATOM      2  O   VAL d   1      43.748  69.247  55.992  0.00  0.00    -0.271 OA
ATOM      3  N   ASN d   1      41.973  70.587  56.280  0.00  0.00    -0.346 N 
ATOM      4  H43 ASN d   1      41.633  71.527  56.302  0.00  0.00     0.163 HD
ENDROOT
BRANCH   1   5
ATOM      5  CA  VAL d   1      44.094  71.593  55.727  0.00  0.00     0.092 C 
ATOM      6  H35 VAL d   1      43.657  72.455  56.252  0.00  0.00     0.088 H 
BRANCH   5   7
ATOM      7  N   VAL d   1      45.445  71.384  56.240  0.00  0.00    -0.346 N 
ATOM      8  C   GLU d   1      45.807  71.971  57.377  0.00  0.00     0.241 C 
ATOM      9  O   GLU d   1      45.057  72.725  57.989  0.00  0.00    -0.271 OA
ATOM     10  H34 VAL d   1      46.091  70.806  55.742  0.00  0.00     0.163 HD
BRANCH   8  11
ATOM     11  CA  GLU d   1      47.214  71.710  57.902  0.00  0.00     0.090 C 
ATOM     12  H29 GLU d   1      47.813  71.186  57.143  0.00  0.00     0.087 H 
BRANCH  11  13
ATOM     13  N   GLU d   1      47.802  72.996  58.204  0.00  0.00    -0.346 N 
ATOM     14  C   SER d   1      49.108  73.162  58.338  0.00  0.00     0.243 C 
ATOM     15  O   SER d   1      49.908  72.244  58.243  0.00  0.00    -0.271 OA
ATOM     16  H28 GLU d   1      47.201  73.787  58.316  0.00  0.00     0.163 HD
BRANCH  14  17
ATOM     17  CA  SER d   1      49.583  74.582  58.615  0.00  0.00     0.109 C 
ATOM     18  H24 SER d   1      49.016  75.021  59.449  0.00  0.00     0.090 H 
BRANCH  17  19
ATOM     19  N   SER d   1      50.990  74.494  58.944  0.00  0.00    -0.344 N 
ATOM     20  C   TRP d   1      51.438  74.109  60.131  0.00  0.00     0.241 C 
ATOM     21  O   TRP d   1      50.701  73.818  61.078  0.00  0.00    -0.271 OA
ATOM     22  H23 SER d   1      51.658  74.736  58.240  0.00  0.00     0.163 HD
BRANCH  20  23
ATOM     23  CA  TRP d   1      52.960  74.059  60.219  0.00  0.00     0.093 C 
ATOM     24  H14 TRP d   1      53.310  74.267  59.197  0.00  0.00     0.088 H 
BRANCH  23  25
ATOM     25  N   TRP d   1      53.651  75.024  61.053  0.00  0.00    -0.346 N 
ATOM     26  C   TRP d   1      53.433  76.329  60.930  0.00  0.00     0.249 C 
ATOM     27  O   TRP d   1      52.596  76.809  60.163  0.00  0.00    -0.271 OA
ATOM     28  H13 TRP d   1      54.306  74.700  61.736  0.00  0.00     0.163 HD
BRANCH  26  29
ATOM     29  CA  TRP d   1      54.281  77.220  61.830  0.00  0.00     0.179 C 
ATOM     30  H4  TRP d   1      53.685  78.069  62.195  0.00  0.00     0.099 H 
BRANCH  29  31
ATOM     31  N   TRP d   1      54.756  76.402  62.976  0.00  0.00    -0.066 N 
ATOM     32  H1  TRP d   1      55.320  76.973  63.585  0.00  0.00     0.275 HD
ATOM     33  H2  TRP d   1      55.307  75.631  62.633  0.00  0.00     0.275 HD
ATOM     34  H3  TRP d   1      53.963  76.047  63.487  0.00  0.00     0.275 HD
ENDBRANCH  29  31
BRANCH  29  35
ATOM     35  CB  TRP d   1      55.477  77.731  61.029  0.00  0.00    -0.004 C 
ATOM     36  H5  TRP d   1      56.092  76.867  60.737  0.00  0.00     0.044 H 
ATOM     37  H6  TRP d   1      56.066  78.399  61.675  0.00  0.00     0.044 H 
BRANCH  35  38
ATOM     38  CG  TRP d   1      55.100  78.488  59.782  0.00  0.00    -0.028 A 
ATOM     39  CD1 TRP d   1      55.753  78.461  58.576  0.00  0.00    -0.015 A 
ATOM     40  NE1 TRP d   1      55.152  79.326  57.689  0.00  0.00    -0.365 N 
ATOM     41  H7  TRP d   1      56.622  77.844  58.352  0.00  0.00     0.112 H 
ATOM     42  CE2 TRP d   1      54.088  79.933  58.308  0.00  0.00     0.042 A 
ATOM     43  H8  TRP d   1      55.453  79.491  56.718  0.00  0.00     0.165 HD
ATOM     44  CD2 TRP d   1      54.022  79.428  59.632  0.00  0.00    -0.002 A 
ATOM     45  CZ2 TRP d   1      53.176  80.886  57.817  0.00  0.00    -0.056 A 
ATOM     46  CE3 TRP d   1      53.009  79.894  60.487  0.00  0.00    -0.070 A 
ATOM     47  CZ3 TRP d   1      52.100  80.842  59.997  0.00  0.00    -0.082 A 
ATOM     48  H9  TRP d   1      52.932  79.528  61.504  0.00  0.00     0.084 H 
ATOM     49  CH2 TRP d   1      52.194  81.325  58.674  0.00  0.00    -0.081 A 
ATOM     50  H11 TRP d   1      51.312  81.210  60.644  0.00  0.00     0.083 H 
ATOM     51  H12 TRP d   1      51.476  82.058  58.326  0.00  0.00     0.083 H 
ATOM     52  H10 TRP d   1      53.245  81.260  56.802  0.00  0.00     0.086 H 
ENDBRANCH  35  38
ENDBRANCH  29  35
ENDBRANCH  26  29
ENDBRANCH  23  25
BRANCH  23  53
ATOM     53  CB  TRP d   1      53.420  72.641  60.561  0.00  0.00    -0.012 C 
ATOM     54  H15 TRP d   1      54.520  72.631  60.533  0.00  0.00     0.044 H 
ATOM     55  H16 TRP d   1      53.027  71.967  59.786  0.00  0.00     0.044 H 
BRANCH  53  56
ATOM     56  CG  TRP d   1      52.998  72.104  61.882  0.00  0.00    -0.028 A 
ATOM     57  CD1 TRP d   1      51.805  71.505  62.183  0.00  0.00    -0.015 A 
ATOM     58  NE1 TRP d   1      51.830  71.013  63.464  0.00  0.00    -0.365 N 
ATOM     59  H17 TRP d   1      50.957  71.430  61.504  0.00  0.00     0.112 H 
ATOM     60  CE2 TRP d   1      53.049  71.298  64.024  0.00  0.00     0.042 A 
ATOM     61  H18 TRP d   1      51.059  70.512  63.929  0.00  0.00     0.165 HD
ATOM     62  CD2 TRP d   1      53.811  71.992  63.053  0.00  0.00    -0.002 A 
ATOM     63  CZ2 TRP d   1      53.548  71.004  65.304  0.00  0.00    -0.056 A 
ATOM     64  CE3 TRP d   1      55.113  72.407  63.377  0.00  0.00    -0.070 A 
ATOM     65  CZ3 TRP d   1      55.611  72.116  64.650  0.00  0.00    -0.082 A 
ATOM     66  H19 TRP d   1      55.719  72.942  62.655  0.00  0.00     0.084 H 
ATOM     67  CH2 TRP d   1      54.826  71.419  65.597  0.00  0.00    -0.081 A 
ATOM     68  H21 TRP d   1      56.614  72.429  64.915  0.00  0.00     0.083 H 
ATOM     69  H22 TRP d   1      55.241  71.207  66.576  0.00  0.00     0.083 H 
ATOM     70  H20 TRP d   1      52.949  70.471  66.033  0.00  0.00     0.086 H 
ENDBRANCH  53  56
ENDBRANCH  23  53
ENDBRANCH  20  23
ENDBRANCH  17  19
BRANCH  17  71
ATOM     71  CB  SER d   1      49.421  75.448  57.357  0.00  0.00     0.044 C 
ATOM     72  H25 SER d   1      50.279  75.273  56.691  0.00  0.00     0.077 H 
ATOM     73  H26 SER d   1      49.398  76.507  57.654  0.00  0.00     0.077 H 
BRANCH  71  74
ATOM     74  OG  SER d   1      48.230  75.142  56.660  0.00  0.00    -0.398 OA
ATOM     75  H27 SER d   1      48.245  74.230  56.395  0.00  0.00     0.209 HD
ENDBRANCH  71  74
ENDBRANCH  17  71
ENDBRANCH  14  17
ENDBRANCH  11  13
BRANCH  11  76
ATOM     76  CB  GLU d   1      47.137  70.874  59.159  0.00  0.00    -0.029 C 
ATOM     77  H30 GLU d   1      46.393  71.327  59.831  0.00  0.00     0.037 H 
ATOM     78  H31 GLU d   1      48.124  70.886  59.644  0.00  0.00     0.037 H 
BRANCH  76  79
ATOM     79  CG  GLU d   1      46.747  69.443  58.918  0.00  0.00     0.018 C 
ATOM     80  H32 GLU d   1      47.530  68.957  58.317  0.00  0.00     0.049 H 
ATOM     81  H33 GLU d   1      45.795  69.421  58.367  0.00  0.00     0.049 H 
BRANCH  79  82
ATOM     82  CD  GLU d   1      46.579  68.673  60.226  0.00  0.00     0.172 C 
ATOM     83  OE1 GLU d   1      47.496  68.770  61.093  0.00  0.00    -0.648 OA
ATOM     84  OE2 GLU d   1      45.536  67.980  60.371  0.00  0.00    -0.648 OA
ENDBRANCH  79  82
ENDBRANCH  76  79
ENDBRANCH  11  76
ENDBRANCH   8  11
ENDBRANCH   5   7
BRANCH   5  85
ATOM     85  CB  VAL d   1      44.061  71.879  54.202  0.00  0.00    -0.033 C 
ATOM     86  H36 VAL d   1      43.053  71.658  53.822  0.00  0.00     0.042 H 
BRANCH  85  87
ATOM     87  CG1 VAL d   1      44.368  73.335  53.947  0.00  0.00    -0.071 C 
ATOM     88  H37 VAL d   1      44.343  73.531  52.865  0.00  0.00     0.028 H 
ATOM     89  H38 VAL d   1      45.367  73.573  54.340  0.00  0.00     0.028 H 
ATOM     90  H39 VAL d   1      43.617  73.962  54.450  0.00  0.00     0.028 H 
ENDBRANCH  85  87
BRANCH  85  91
ATOM     91  CG2 VAL d   1      45.063  70.988  53.475  0.00  0.00    -0.071 C 
ATOM     92  H40 VAL d   1      44.825  69.932  53.672  0.00  0.00     0.028 H 
ATOM     93  H41 VAL d   1      46.079  71.208  53.836  0.00  0.00     0.028 H 
ATOM     94  H42 VAL d   1      45.008  71.181  52.394  0.00  0.00     0.028 H 
ENDBRANCH  85  91
ENDBRANCH   5  85
ENDBRANCH   1   5
BRANCH   3  95
ATOM     95  CA  ASN d   1      41.055  69.494  56.550  0.00  0.00     0.097 C 
ATOM     96  H44 ASN d   1      41.392  68.564  56.069  0.00  0.00     0.088 H 
BRANCH  95  97
ATOM     97  C   ASN d   1      39.747  69.973  55.951  0.00  0.00     0.241 C 
ATOM     98  O   ASN d   1      38.809  70.303  56.679  0.00  0.00    -0.271 OA
ATOM     99  N   1OL d   1      39.697  70.017  54.621  0.00  0.00    -0.352 N 
ATOM    100  H49 1OL d   1      40.493  69.717  54.095  0.00  0.00     0.163 HD
BRANCH  99 101
ATOM    101  CA  1OL d   1      38.519  70.488  53.913  0.00  0.00     0.037 C 
ATOM    102  H50 1OL d   1      37.837  70.935  54.651  0.00  0.00     0.076 H 
BRANCH 101 103
ATOM    103  CB  1OL d   1      38.920  71.588  52.908  0.00  0.00    -0.041 C 
ATOM    104  H51 1OL d   1      38.014  71.949  52.400  0.00  0.00     0.036 H 
ATOM    105  H52 1OL d   1      39.608  71.155  52.167  0.00  0.00     0.036 H 
BRANCH 103 106
ATOM    106  CG  1OL d   1      39.615  72.783  53.589  0.00  0.00    -0.059 C 
ATOM    107  H53 1OL d   1      40.371  72.397  54.288  0.00  0.00     0.038 H 
BRANCH 106 108
ATOM    108  CD1 1OL d   1      40.313  73.650  52.544  0.00  0.00    -0.073 C 
ATOM    109  H54 1OL d   1      40.805  74.499  53.041  0.00  0.00     0.028 H 
ATOM    110  H55 1OL d   1      39.571  74.026  51.825  0.00  0.00     0.028 H 
ATOM    111  H56 1OL d   1      41.066  73.049  52.013  0.00  0.00     0.028 H 
ENDBRANCH 106 108
BRANCH 106 112
ATOM    112  CD2 1OL d   1      38.602  73.618  54.378  0.00  0.00    -0.073 C 
ATOM    113  H57 1OL d   1      38.107  72.982  55.127  0.00  0.00     0.028 H 
ATOM    114  H58 1OL d   1      37.849  74.028  53.689  0.00  0.00     0.028 H 
ATOM    115  H59 1OL d   1      39.123  74.444  54.885  0.00  0.00     0.028 H 
ENDBRANCH 106 112
ENDBRANCH 103 106
ENDBRANCH 101 103
BRANCH 101 116
ATOM    116  C   1OL d   1      37.777  69.351  53.233  0.00  0.00     0.056 C 
ATOM    117  H60 1OL d   1      36.857  69.747  52.779  0.00  0.00     0.086 H 
BRANCH 116 118
ATOM    118  O   1OL d   1      38.589  68.755  52.204  0.00  0.00    -0.393 OA
ATOM    119  H61 1OL d   1      38.807  69.412  51.553  0.00  0.00     0.210 HD
ENDBRANCH 116 118
BRANCH 116 120
ATOM    120  CM  1OL d   1      37.411  68.291  54.261  0.00  0.00    -0.028 C 
ATOM    121  H62 1OL d   1      37.212  68.791  55.221  0.00  0.00     0.038 H 
ATOM    122  H63 1OL d   1      38.264  67.606  54.374  0.00  0.00     0.038 H 
BRANCH 120 123
ATOM    123  CA  1OL d   1      36.184  67.473  53.881  0.00  0.00     0.022 C 
ATOM    124  H64 1OL d   1      36.147  67.352  52.788  0.00  0.00     0.054 H 
BRANCH 123 125
ATOM    125  CB  1OL d   1      36.259  66.092  54.540  0.00  0.00    -0.065 C 
ATOM    126  H65 1OL d   1      35.371  65.505  54.263  0.00  0.00     0.028 H 
ATOM    127  H66 1OL d   1      36.295  66.209  55.633  0.00  0.00     0.028 H 
ATOM    128  H67 1OL d   1      37.165  65.571  54.197  0.00  0.00     0.028 H 
ENDBRANCH 123 125
BRANCH 123 129
ATOM    129  C   1OL d   1      34.929  68.214  54.356  0.00  0.00     0.222 C 
ATOM    130  O   1OL d   1      34.880  68.688  55.485  0.00  0.00    -0.273 OA
ATOM    131  N   ALA d   1      33.932  68.333  53.488  0.00  0.00    -0.348 N 
ATOM    132  H68 ALA d   1      34.029  67.974  52.560  0.00  0.00     0.163 HD
BRANCH 131 133
ATOM    133  CA  ALA d   1      32.690  68.991  53.895  0.00  0.00     0.086 C 
ATOM    134  H69 ALA d   1      32.934  69.971  54.332  0.00  0.00     0.086 H 
BRANCH 133 135
ATOM    135  C   ALA d   1      31.969  68.144  54.942  0.00  0.00     0.240 C 
ATOM    136  O   ALA d   1      32.008  66.909  54.884  0.00  0.00    -0.271 OA
ATOM    137  N   GLU d   1      31.336  68.807  55.911  0.00  0.00    -0.346 N 
ATOM    138  H73 GLU d   1      31.389  69.805  55.939  0.00  0.00     0.163 HD
BRANCH 137 139
ATOM    139  CA  GLU d   1      30.565  68.097  56.934  0.00  0.00     0.090 C 
ATOM    140  H74 GLU d   1      31.061  67.153  57.202  0.00  0.00     0.087 H 
BRANCH 139 141
ATOM    141  C   GLU d   1      29.209  67.825  56.293  0.00  0.00     0.241 C 
ATOM    142  O   GLU d   1      28.693  68.672  55.560  0.00  0.00    -0.271 OA
ATOM    143  N   PHE d   1      28.641  66.646  56.539  0.00  0.00    -0.344 N 
ATOM    144  H79 PHE d   1      29.108  65.990  57.132  0.00  0.00     0.163 HD
BRANCH 143 145
ATOM    145  CA  PHE d   1      27.340  66.291  55.955  0.00  0.00     0.100 C 
ATOM    146  H80 PHE d   1      26.796  67.226  55.758  0.00  0.00     0.090 H 
BRANCH 145 147
ATOM    147  C   PHE d   1      26.475  65.422  56.871  0.00  0.00     0.197 C 
ATOM    148  O   PHE d   1      25.346  65.860  57.195  0.00  0.00    -0.646 OA
ATOM    149  OXT PHE d   1      26.924  64.303  57.228  0.00  0.00    -0.646 OA
ENDBRANCH 145 147
BRANCH 145 150
ATOM    150  CB  PHE d   1      27.535  65.549  54.632  0.00  0.00    -0.013 C 
ATOM    151  H81 PHE d   1      28.224  64.709  54.805  0.00  0.00     0.043 H 
ATOM    152  H82 PHE d   1      27.981  66.246  53.907  0.00  0.00     0.043 H 
BRANCH 150 153
ATOM    153  CG  PHE d   1      26.257  65.002  54.041  0.00  0.00    -0.056 A 
ATOM    154  CD1 PHE d   1      25.433  65.804  53.262  0.00  0.00    -0.077 A 
ATOM    155  CE1 PHE d   1      24.273  65.289  52.683  0.00  0.00    -0.082 A 
ATOM    156  H83 PHE d   1      25.695  66.844  53.102  0.00  0.00     0.084 H 
ATOM    157  CZ  PHE d   1      23.927  63.957  52.884  0.00  0.00    -0.083 A 
ATOM    158  H85 PHE d   1      23.641  65.927  52.076  0.00  0.00     0.083 H 
ATOM    159  CE2 PHE d   1      24.739  63.145  53.667  0.00  0.00    -0.082 A 
ATOM    160  H87 PHE d   1      23.028  63.554  52.432  0.00  0.00     0.083 H 
ATOM    161  CD2 PHE d   1      25.897  63.671  54.240  0.00  0.00    -0.077 A 
ATOM    162  H86 PHE d   1      24.474  62.107  53.832  0.00  0.00     0.083 H 
ATOM    163  H84 PHE d   1      26.527  63.034  54.850  0.00  0.00     0.084 H 
ENDBRANCH 150 153
ENDBRANCH 145 150
ENDBRANCH 143 145
ENDBRANCH 139 141
BRANCH 139 164
ATOM    164  CB  GLU d   1      30.401  68.958  58.189  0.00  0.00    -0.029 C 
ATOM    165  H75 GLU d   1      29.875  68.366  58.953  0.00  0.00     0.037 H 
ATOM    166  H76 GLU d   1      29.799  69.841  57.931  0.00  0.00     0.037 H 
BRANCH 164 167
ATOM    167  CG  GLU d   1      31.733  69.432  58.773  0.00  0.00     0.018 C 
ATOM    168  H77 GLU d   1      32.012  70.375  58.280  0.00  0.00     0.049 H 
ATOM    169  H78 GLU d   1      32.496  68.668  58.562  0.00  0.00     0.049 H 
BRANCH 167 170
ATOM    170  CD  GLU d   1      31.695  69.671  60.285  0.00  0.00     0.172 C 
ATOM    171  OE1 GLU d   1      30.893  70.513  60.750  0.00  0.00    -0.648 OA
ATOM    172  OE2 GLU d   1      32.481  69.010  61.009  0.00  0.00    -0.648 OA
ENDBRANCH 167 170
ENDBRANCH 164 167
ENDBRANCH 139 164
ENDBRANCH 137 139
ENDBRANCH 133 135
BRANCH 133 173
ATOM    173  CB  ALA d   1      31.771  69.201  52.682  0.00  0.00    -0.049 C 
ATOM    174  H70 ALA d   1      30.844  69.696  53.006  0.00  0.00     0.030 H 
ATOM    175  H71 ALA d   1      31.529  68.227  52.232  0.00  0.00     0.030 H 
ATOM    176  H72 ALA d   1      32.282  69.831  51.939  0.00  0.00     0.030 H 
ENDBRANCH 133 173
ENDBRANCH 131 133
ENDBRANCH 123 129
ENDBRANCH 120 123
ENDBRANCH 116 120
ENDBRANCH 101 116
ENDBRANCH  99 101
ENDBRANCH  95  97
BRANCH  95 177
ATOM    177  CB  ASN d   1      40.923  69.276  58.067  0.00  0.00     0.036 C 
ATOM    178  H45 ASN d   1      39.983  68.741  58.267  0.00  0.00     0.051 H 
ATOM    179  H46 ASN d   1      40.900  70.257  58.565  0.00  0.00     0.051 H 
BRANCH 177 180
ATOM    180  CG  ASN d   1      42.087  68.459  58.639  0.00  0.00     0.217 C 
ATOM    181  OD1 ASN d   1      42.155  67.252  58.424  0.00  0.00    -0.274 OA
ATOM    182  ND2 ASN d   1      43.025  69.125  59.321  0.00  0.00    -0.370 N 
ATOM    183  H47 ASN d   1      43.803  68.633  59.712  0.00  0.00     0.159 HD
ATOM    184  H48 ASN d   1      42.949  70.115  59.440  0.00  0.00     0.159 HD
ENDBRANCH 177 180
ENDBRANCH  95 177
ENDBRANCH   3  95
TORSDOF 49
