REMARK WARNING: 32 MAX_TORS EXCEEDED!!!
REMARK  72 active torsions:
REMARK  status: ('A' for Active; 'I' for Inactive)
REMARK    1  A    between atoms: N_1  and  CA_2 
REMARK    2  A    between atoms: CA_2  and  C_3 
REMARK    3  A    between atoms: CA_2  and  CB_5 
REMARK       I    between atoms: C_3  and  N_10 
REMARK    4  A    between atoms: CB_5  and  CG_6 
REMARK    5  A    between atoms: CG_6  and  CD_7 
REMARK    6  A    between atoms: CD_7  and  CE_8 
REMARK    7  A    between atoms: CE_8  and  NZ_9 
REMARK    8  A    between atoms: N_10  and  CA_11 
REMARK    9  A    between atoms: CA_11  and  C_12 
REMARK   10  A    between atoms: CA_11  and  CB_14 
REMARK       I    between atoms: C_12  and  N_17 
REMARK   11  A    between atoms: CB_14  and  OG1_15 
REMARK   12  A    between atoms: CB_14  and  CG2_16 
REMARK   13  A    between atoms: N_17  and  CA_18 
REMARK   14  A    between atoms: CA_18  and  C_19 
REMARK   15  A    between atoms: CA_18  and  CB_21 
REMARK       I    between atoms: C_19  and  N_26 
REMARK   16  A    between atoms: CB_21  and  CG_22 
REMARK   17  A    between atoms: CG_22  and  CD_23 
REMARK   18  A    between atoms: N_26  and  CA_27 
REMARK   19  A    between atoms: CA_27  and  C_28 
REMARK   20  A    between atoms: CA_27  and  CB_30 
REMARK       I    between atoms: C_28  and  N_35 
REMARK   21  A    between atoms: CB_30  and  CG_31 
REMARK   22  A    between atoms: CG_31  and  CD_32 
REMARK   23  A    between atoms: N_35  and  CA_36 
REMARK   24  A    between atoms: CA_36  and  C_37 
REMARK   25  A    between atoms: CA_36  and  CB_39 
REMARK       I    between atoms: C_37  and  N_43 
REMARK   26  A    between atoms: CB_39  and  CG1_40 
REMARK   27  A    between atoms: CB_39  and  CG2_41 
REMARK   28  A    between atoms: CG1_40  and  CD1_42 
REMARK   29  A    between atoms: N_43  and  CA_44 
REMARK   30  A    between atoms: CA_44  and  C_45 
REMARK   31  A    between atoms: CA_44  and  CB_47 
REMARK       I    between atoms: C_45  and  N_49 
REMARK   32  A    between atoms: CB_47  and  OG_48 
REMARK   33  A    between atoms: N_49  and  CA_50 
REMARK   34  A    between atoms: CA_50  and  C_51 
REMARK   35  A    between atoms: CA_50  and  CB_53 
REMARK       I    between atoms: C_51  and  N_58 
REMARK   36  A    between atoms: CB_53  and  CG_54 
REMARK   37  A    between atoms: CG_54  and  CD_55 
REMARK   38  A    between atoms: N_58  and  CA_59 
REMARK   39  A    between atoms: CA_59  and  C_60 
REMARK   40  A    between atoms: CA_59  and  CB_62 
REMARK       I    between atoms: C_60  and  N_65 
REMARK   41  A    between atoms: CB_62  and  CG1_63 
REMARK   42  A    between atoms: CB_62  and  CG2_64 
REMARK   43  A    between atoms: N_65  and  CA_66 
REMARK   44  A    between atoms: CA_66  and  C_67 
REMARK   45  A    between atoms: CA_66  and  CB_69 
REMARK       I    between atoms: C_67  and  N_73 
REMARK   46  A    between atoms: CB_69  and  CG_70 
REMARK       I    between atoms: CG_70  and  ND2_72 
REMARK   47  A    between atoms: N_73  and  CA_74 
REMARK   48  A    between atoms: CA_74  and  CB_75 
REMARK   49  A    between atoms: CA_74  and  CH_79 
REMARK   50  A    between atoms: CB_75  and  CG_76 
REMARK   51  A    between atoms: CG_76  and  CD1_77 
REMARK   52  A    between atoms: CG_76  and  CD2_78 
REMARK   53  A    between atoms: CH_79  and  OH_80 
REMARK   54  A    between atoms: CH_79  and  CM_81 
REMARK   55  A    between atoms: CM_81  and  C_82 
REMARK       I    between atoms: C_82  and  N_84 
REMARK   56  A    between atoms: N_84  and  CA_85 
REMARK   57  A    between atoms: CA_85  and  C_86 
REMARK   58  A    between atoms: CA_85  and  CB_88 
REMARK       I    between atoms: C_86  and  N_91 
REMARK   59  A    between atoms: CB_88  and  CG1_89 
REMARK   60  A    between atoms: CB_88  and  CG2_90 
REMARK   61  A    between atoms: N_91  and  CA_92 
REMARK   62  A    between atoms: CA_92  and  C_93 
REMARK   63  A    between atoms: CA_92  and  CB_95 
REMARK       I    between atoms: C_93  and  N_96 
REMARK   64  A    between atoms: N_96  and  CA_97 
REMARK   65  A    between atoms: CA_97  and  C_98 
REMARK   66  A    between atoms: CA_97  and  CB_100 
REMARK       I    between atoms: C_98  and  N_105 
REMARK   67  A    between atoms: CB_100  and  CG_101 
REMARK   68  A    between atoms: CG_101  and  CD_102 
REMARK   69  A    between atoms: N_105  and  CA_106 
REMARK   70  A    between atoms: CA_106  and  C_107 
REMARK   71  A    between atoms: CA_106  and  CB_109 
REMARK   72  A    between atoms: CB_109  and  CG_110 
ROOT
ATOM      1  CA  VAL d   1       0.602  84.901  30.441  0.00  0.00     0.092 C 
ATOM      2  H58 VAL d   1       0.082  84.113  29.877  0.00  0.00     0.088 H 
ENDROOT
BRANCH   1   3
ATOM      3  N   VAL d   1       1.916  85.110  29.828  0.00  0.00    -0.346 N 
ATOM      4  C   GLU d   1       2.329  84.389  28.791  0.00  0.00     0.241 C 
ATOM      5  O   GLU d   1       1.660  83.474  28.309  0.00  0.00    -0.271 OA
ATOM      6  H57 VAL d   1       2.519  85.815  30.201  0.00  0.00     0.163 HD
BRANCH   4   7
ATOM      7  CA  GLU d   1       3.718  84.725  28.227  0.00  0.00     0.090 C 
ATOM      8  H52 GLU d   1       4.303  85.239  29.004  0.00  0.00     0.087 H 
BRANCH   7   9
ATOM      9  N   GLU d   1       4.418  83.500  27.840  0.00  0.00    -0.346 N 
ATOM     10  C   SER d   1       5.739  83.460  27.672  0.00  0.00     0.243 C 
ATOM     11  O   SER d   1       6.452  84.441  27.818  0.00  0.00    -0.271 OA
ATOM     12  H51 GLU d   1       3.887  82.665  27.697  0.00  0.00     0.163 HD
BRANCH  10  13
ATOM     13  CA  SER d   1       6.336  82.100  27.275  0.00  0.00     0.109 C 
ATOM     14  H47 SER d   1       5.805  81.762  26.373  0.00  0.00     0.090 H 
BRANCH  13  15
ATOM     15  N   SER d   1       7.762  82.126  26.960  0.00  0.00    -0.344 N 
ATOM     16  C   ILE d   1       8.203  81.881  25.727  0.00  0.00     0.241 C 
ATOM     17  O   ILE d   1       7.442  81.676  24.772  0.00  0.00    -0.271 OA
ATOM     18  H46 SER d   1       8.420  82.332  27.684  0.00  0.00     0.163 HD
BRANCH  16  19
ATOM     19  CA  ILE d   1       9.723  81.891  25.524  0.00  0.00     0.092 C 
ATOM     20  H36 ILE d   1      10.220  81.817  26.503  0.00  0.00     0.088 H 
BRANCH  19  21
ATOM     21  N   ILE d   1      10.126  80.759  24.692  0.00  0.00    -0.346 N 
ATOM     22  C   GLU d   1      10.449  79.557  25.167  0.00  0.00     0.241 C 
ATOM     23  O   GLU d   1      10.428  79.266  26.368  0.00  0.00    -0.271 OA
ATOM     24  H35 ILE d   1      10.162  80.896  23.702  0.00  0.00     0.163 HD
BRANCH  22  25
ATOM     25  CA  GLU d   1      10.844  78.527  24.104  0.00  0.00     0.090 C 
ATOM     26  H30 GLU d   1      11.215  79.094  23.237  0.00  0.00     0.087 H 
BRANCH  25  27
ATOM     27  N   GLU d   1      11.913  77.601  24.486  0.00  0.00    -0.346 N 
ATOM     28  C   GLU d   1      12.618  76.940  23.565  0.00  0.00     0.241 C 
ATOM     29  O   GLU d   1      12.425  77.078  22.351  0.00  0.00    -0.271 OA
ATOM     30  H29 GLU d   1      12.118  77.461  25.455  0.00  0.00     0.163 HD
BRANCH  28  31
ATOM     31  CA  GLU d   1      13.716  75.995  24.076  0.00  0.00     0.090 C 
ATOM     32  H24 GLU d   1      13.709  76.030  25.175  0.00  0.00     0.087 H 
BRANCH  31  33
ATOM     33  N   GLU d   1      13.526  74.589  23.672  0.00  0.00    -0.346 N 
ATOM     34  C   THR d   1      12.570  73.803  24.178  0.00  0.00     0.243 C 
ATOM     35  O   THR d   1      11.750  74.198  25.020  0.00  0.00    -0.271 OA
ATOM     36  H23 GLU d   1      14.143  74.204  22.985  0.00  0.00     0.163 HD
BRANCH  34  37
ATOM     37  CA  THR d   1      12.520  72.348  23.656  0.00  0.00     0.113 C 
ATOM     38  H17 THR d   1      11.502  72.148  23.290  0.00  0.00     0.091 H 
BRANCH  37  39
ATOM     39  N   THR d   1      13.449  72.118  22.538  0.00  0.00    -0.344 N 
ATOM     40  C   LYS d   1      13.317  71.087  21.697  0.00  0.00     0.249 C 
ATOM     41  O   LYS d   1      12.416  70.245  21.799  0.00  0.00    -0.271 OA
ATOM     42  H16 THR d   1      14.207  72.756  22.402  0.00  0.00     0.163 HD
BRANCH  40  43
ATOM     43  CA  LYS d   1      14.359  70.976  20.573  0.00  0.00     0.176 C 
ATOM     44  H4  LYS d   1      15.304  70.612  21.003  0.00  0.00     0.099 H 
BRANCH  43  45
ATOM     45  N   LYS d   1      13.905  70.007  19.525  0.00  0.00    -0.067 N 
ATOM     46  H1  LYS d   1      14.601  69.948  18.798  0.00  0.00     0.275 HD
ATOM     47  H2  LYS d   1      13.033  70.323  19.131  0.00  0.00     0.275 HD
ATOM     48  H3  LYS d   1      13.776  69.098  19.941  0.00  0.00     0.275 HD
ENDBRANCH  43  45
BRANCH  43  49
ATOM     49  CB  LYS d   1      14.600  72.358  19.945  0.00  0.00    -0.030 C 
ATOM     50  H5  LYS d   1      14.883  73.053  20.749  0.00  0.00     0.036 H 
ATOM     51  H6  LYS d   1      13.658  72.693  19.486  0.00  0.00     0.036 H 
BRANCH  49  52
ATOM     52  CG  LYS d   1      15.694  72.403  18.871  0.00  0.00    -0.061 C 
ATOM     53  H7  LYS d   1      16.628  72.008  19.298  0.00  0.00     0.033 H 
ATOM     54  H8  LYS d   1      15.846  73.448  18.562  0.00  0.00     0.033 H 
BRANCH  52  55
ATOM     55  CD  LYS d   1      15.325  71.578  17.649  0.00  0.00    -0.043 C 
ATOM     56  H9  LYS d   1      14.376  71.953  17.238  0.00  0.00     0.035 H 
ATOM     57  H10 LYS d   1      15.205  70.527  17.951  0.00  0.00     0.035 H 
BRANCH  55  58
ATOM     58  CE  LYS d   1      16.391  71.663  16.578  0.00  0.00     0.080 C 
ATOM     59  H11 LYS d   1      17.354  71.341  17.001  0.00  0.00     0.075 H 
ATOM     60  H12 LYS d   1      16.472  72.704  16.232  0.00  0.00     0.075 H 
BRANCH  58  61
ATOM     61  NZ  LYS d   1      16.049  70.789  15.422  0.00  0.00    -0.079 N 
ATOM     62  H13 LYS d   1      16.770  70.861  14.722  0.00  0.00     0.274 HD
ATOM     63  H14 LYS d   1      15.168  71.082  15.028  0.00  0.00     0.274 HD
ATOM     64  H15 LYS d   1      15.976  69.833  15.733  0.00  0.00     0.274 HD
ENDBRANCH  58  61
ENDBRANCH  55  58
ENDBRANCH  52  55
ENDBRANCH  49  52
ENDBRANCH  43  49
ENDBRANCH  40  43
ENDBRANCH  37  39
BRANCH  37  65
ATOM     65  CB  THR d   1      12.815  71.383  24.857  0.00  0.00     0.060 C 
ATOM     66  H18 THR d   1      13.783  71.652  25.304  0.00  0.00     0.086 H 
BRANCH  65  67
ATOM     67  OG1 THR d   1      12.862  70.024  24.397  0.00  0.00    -0.393 OA
ATOM     68  H19 THR d   1      13.550  69.934  23.748  0.00  0.00     0.210 HD
ENDBRANCH  65  67
BRANCH  65  69
ATOM     69  CG2 THR d   1      11.721  71.496  25.914  0.00  0.00    -0.050 C 
ATOM     70  H20 THR d   1      11.944  70.813  26.747  0.00  0.00     0.031 H 
ATOM     71  H21 THR d   1      10.752  71.227  25.469  0.00  0.00     0.031 H 
ATOM     72  H22 THR d   1      11.678  72.529  26.288  0.00  0.00     0.031 H 
ENDBRANCH  65  69
ENDBRANCH  37  65
ENDBRANCH  34  37
ENDBRANCH  31  33
BRANCH  31  73
ATOM     73  CB  GLU d   1      15.076  76.510  23.576  0.00  0.00    -0.029 C 
ATOM     74  H25 GLU d   1      15.237  77.513  23.998  0.00  0.00     0.037 H 
ATOM     75  H26 GLU d   1      15.033  76.577  22.479  0.00  0.00     0.037 H 
BRANCH  73  76
ATOM     76  CG  GLU d   1      16.277  75.639  23.951  0.00  0.00     0.018 C 
ATOM     77  H27 GLU d   1      16.136  74.640  23.513  0.00  0.00     0.049 H 
ATOM     78  H28 GLU d   1      16.321  75.556  25.047  0.00  0.00     0.049 H 
BRANCH  76  79
ATOM     79  CD  GLU d   1      17.608  76.208  23.451  0.00  0.00     0.172 C 
ATOM     80  OE1 GLU d   1      17.927  77.371  23.798  0.00  0.00    -0.648 OA
ATOM     81  OE2 GLU d   1      18.335  75.494  22.718  0.00  0.00    -0.648 OA
ENDBRANCH  76  79
ENDBRANCH  73  76
ENDBRANCH  31  73
ENDBRANCH  28  31
ENDBRANCH  25  27
BRANCH  25  82
ATOM     82  CB  GLU d   1       9.596  77.748  23.655  0.00  0.00    -0.029 C 
ATOM     83  H31 GLU d   1       9.678  77.574  22.572  0.00  0.00     0.037 H 
ATOM     84  H32 GLU d   1       8.715  78.374  23.860  0.00  0.00     0.037 H 
BRANCH  82  85
ATOM     85  CG  GLU d   1       9.377  76.391  24.334  0.00  0.00     0.018 C 
ATOM     86  H33 GLU d   1      10.223  75.735  24.081  0.00  0.00     0.049 H 
ATOM     87  H34 GLU d   1       8.445  75.954  23.946  0.00  0.00     0.049 H 
BRANCH  85  88
ATOM     88  CD  GLU d   1       9.273  76.477  25.845  0.00  0.00     0.172 C 
ATOM     89  OE1 GLU d   1       8.474  77.303  26.335  0.00  0.00    -0.648 OA
ATOM     90  OE2 GLU d   1       9.980  75.708  26.539  0.00  0.00    -0.648 OA
ENDBRANCH  85  88
ENDBRANCH  82  85
ENDBRANCH  25  82
ENDBRANCH  22  25
ENDBRANCH  19  21
BRANCH  19  91
ATOM     91  CB  ILE d   1      10.142  83.202  24.837  0.00  0.00    -0.030 C 
ATOM     92  H37 ILE d   1       9.676  83.246  23.842  0.00  0.00     0.043 H 
BRANCH  91  93
ATOM     93  CG1 ILE d   1      11.662  83.202  24.660  0.00  0.00    -0.063 C 
ATOM     94  H38 ILE d   1      11.979  82.178  24.413  0.00  0.00     0.033 H 
ATOM     95  H39 ILE d   1      12.118  83.507  25.613  0.00  0.00     0.033 H 
BRANCH  93  96
ATOM     96  CD1 ILE d   1      12.169  84.125  23.578  0.00  0.00    -0.076 C 
ATOM     97  H43 ILE d   1      13.266  84.059  23.524  0.00  0.00     0.027 H 
ATOM     98  H44 ILE d   1      11.875  85.159  23.811  0.00  0.00     0.027 H 
ATOM     99  H45 ILE d   1      11.736  83.829  22.611  0.00  0.00     0.027 H 
ENDBRANCH  93  96
ENDBRANCH  91  93
BRANCH  91 100
ATOM    100  CG2 ILE d   1       9.658  84.397  25.639  0.00  0.00    -0.071 C 
ATOM    101  H40 ILE d   1       8.563  84.353  25.739  0.00  0.00     0.028 H 
ATOM    102  H41 ILE d   1       9.942  85.325  25.121  0.00  0.00     0.028 H 
ATOM    103  H42 ILE d   1      10.118  84.379  26.638  0.00  0.00     0.028 H 
ENDBRANCH  91 100
ENDBRANCH  19  91
ENDBRANCH  16  19
ENDBRANCH  13  15
BRANCH  13 104
ATOM    104  CB  SER d   1       6.093  81.076  28.392  0.00  0.00     0.044 C 
ATOM    105  H48 SER d   1       6.482  81.479  29.339  0.00  0.00     0.077 H 
ATOM    106  H49 SER d   1       6.622  80.144  28.145  0.00  0.00     0.077 H 
BRANCH 104 107
ATOM    107  OG  SER d   1       4.713  80.798  28.541  0.00  0.00    -0.398 OA
ATOM    108  H50 SER d   1       4.592  80.163  29.237  0.00  0.00     0.209 HD
ENDBRANCH 104 107
ENDBRANCH  13 104
ENDBRANCH  10  13
ENDBRANCH   7   9
BRANCH   7 109
ATOM    109  CB  GLU d   1       3.576  85.651  27.017  0.00  0.00    -0.029 C 
ATOM    110  H53 GLU d   1       2.806  85.233  26.352  0.00  0.00     0.037 H 
ATOM    111  H54 GLU d   1       4.541  85.678  26.489  0.00  0.00     0.037 H 
BRANCH 109 112
ATOM    112  CG  GLU d   1       3.184  87.073  27.361  0.00  0.00     0.018 C 
ATOM    113  H55 GLU d   1       3.979  87.518  27.977  0.00  0.00     0.049 H 
ATOM    114  H56 GLU d   1       2.246  87.050  27.934  0.00  0.00     0.049 H 
BRANCH 112 115
ATOM    115  CD  GLU d   1       2.980  87.941  26.128  0.00  0.00     0.172 C 
ATOM    116  OE1 GLU d   1       3.838  87.890  25.214  0.00  0.00    -0.648 OA
ATOM    117  OE2 GLU d   1       1.970  88.679  26.078  0.00  0.00    -0.648 OA
ENDBRANCH 112 115
ENDBRANCH 109 112
ENDBRANCH   7 109
ENDBRANCH   4   7
ENDBRANCH   1   3
BRANCH   1 118
ATOM    118  C   VAL d   1      -0.235  86.191  30.370  0.00  0.00     0.241 C 
ATOM    119  O   VAL d   1       0.314  87.300  30.391  0.00  0.00    -0.271 OA
ATOM    120  N   ASN d   1      -1.556  86.027  30.261  0.00  0.00    -0.346 N 
ATOM    121  H66 ASN d   1      -1.916  85.095  30.228  0.00  0.00     0.163 HD
BRANCH 120 122
ATOM    122  CA  ASN d   1      -2.506  87.140  30.187  0.00  0.00     0.097 C 
ATOM    123  H67 ASN d   1      -2.133  87.994  30.772  0.00  0.00     0.088 H 
BRANCH 122 124
ATOM    124  C   ASN d   1      -3.816  86.632  30.780  0.00  0.00     0.241 C 
ATOM    125  O   ASN d   1      -4.789  86.363  30.060  0.00  0.00    -0.271 OA
ATOM    126  N   STA d   1      -3.831  86.517  32.104  0.00  0.00    -0.352 N 
ATOM    127  H72 STA d   1      -3.027  86.813  32.620  0.00  0.00     0.163 HD
BRANCH 126 128
ATOM    128  CA  STA d   1      -4.969  85.978  32.834  0.00  0.00     0.037 C 
ATOM    129  H73 STA d   1      -5.767  85.726  32.120  0.00  0.00     0.076 H 
BRANCH 128 130
ATOM    130  CB  STA d   1      -4.503  84.698  33.553  0.00  0.00    -0.041 C 
ATOM    131  H74 STA d   1      -5.396  84.172  33.920  0.00  0.00     0.036 H 
ATOM    132  H75 STA d   1      -3.878  84.998  34.407  0.00  0.00     0.036 H 
BRANCH 130 133
ATOM    133  CG  STA d   1      -3.690  83.710  32.694  0.00  0.00    -0.059 C 
ATOM    134  H76 STA d   1      -3.114  84.312  31.976  0.00  0.00     0.038 H 
BRANCH 133 135
ATOM    135  CD1 STA d   1      -2.683  82.908  33.519  0.00  0.00    -0.073 C 
ATOM    136  H77 STA d   1      -2.132  82.222  32.859  0.00  0.00     0.028 H 
ATOM    137  H78 STA d   1      -3.217  82.329  34.287  0.00  0.00     0.028 H 
ATOM    138  H79 STA d   1      -1.976  83.596  34.004  0.00  0.00     0.028 H 
ENDBRANCH 133 135
BRANCH 133 139
ATOM    139  CD2 STA d   1      -4.581  82.784  31.890  0.00  0.00    -0.073 C 
ATOM    140  H80 STA d   1      -5.297  83.380  31.305  0.00  0.00     0.028 H 
ATOM    141  H81 STA d   1      -5.130  82.119  32.573  0.00  0.00     0.028 H 
ATOM    142  H82 STA d   1      -3.963  82.181  31.209  0.00  0.00     0.028 H 
ENDBRANCH 133 139
ENDBRANCH 130 133
ENDBRANCH 128 130
BRANCH 128 143
ATOM    143  CH  STA d   1      -5.530  86.993  33.865  0.00  0.00     0.063 C 
ATOM    144  H83 STA d   1      -6.187  86.459  34.567  0.00  0.00     0.086 H 
BRANCH 143 145
ATOM    145  OH  STA d   1      -4.457  87.584  34.583  0.00  0.00    -0.393 OA
ATOM    146  H84 STA d   1      -4.803  88.205  35.213  0.00  0.00     0.210 HD
ENDBRANCH 143 145
BRANCH 143 147
ATOM    147  CM  STA d   1      -6.330  88.095  33.177  0.00  0.00     0.035 C 
ATOM    148  H85 STA d   1      -5.711  88.536  32.382  0.00  0.00     0.051 H 
ATOM    149  H86 STA d   1      -6.578  88.868  33.920  0.00  0.00     0.051 H 
BRANCH 147 150
ATOM    150  C   STA d   1      -7.619  87.580  32.562  0.00  0.00     0.220 C 
ATOM    151  O   STA d   1      -7.646  87.241  31.378  0.00  0.00    -0.274 OA
ATOM    152  N   VAL d   1      -8.685  87.519  33.357  0.00  0.00    -0.347 N 
ATOM    153  H87 VAL d   1      -8.601  87.780  34.319  0.00  0.00     0.163 HD
BRANCH 152 154
ATOM    154  CA  VAL d   1      -9.979  87.074  32.839  0.00  0.00     0.092 C 
ATOM    155  H88 VAL d   1      -9.822  86.173  32.228  0.00  0.00     0.088 H 
BRANCH 154 156
ATOM    156  C   VAL d   1     -10.593  88.169  31.952  0.00  0.00     0.241 C 
ATOM    157  O   VAL d   1     -10.400  89.363  32.199  0.00  0.00    -0.271 OA
ATOM    158  N   ALA d   1     -11.319  87.761  30.912  0.00  0.00    -0.346 N 
ATOM    159  H96 ALA d   1     -11.443  86.781  30.759  0.00  0.00     0.163 HD
BRANCH 158 160
ATOM    160  CA  ALA d   1     -11.942  88.715  29.985  0.00  0.00     0.086 C 
ATOM    161  H97 ALA d   1     -11.234  89.541  29.822  0.00  0.00     0.086 H 
BRANCH 160 162
ATOM    162  C   ALA d   1     -13.238  89.308  30.529  0.00  0.00     0.240 C 
ATOM    163  O   ALA d   1     -14.042  88.586  31.114  0.00  0.00    -0.271 OA
ATOM    164  N   GLU d   1     -13.428  90.620  30.336  0.00  0.00    -0.346 N 
ATOM    165 1H10 GLU d   1     -12.717  91.139  29.862  0.00  0.00     0.163 HD
BRANCH 164 166
ATOM    166  CA  GLU d   1     -14.636  91.335  30.789  0.00  0.00     0.090 C 
ATOM    167 2H10 GLU d   1     -15.412  91.161  30.029  0.00  0.00     0.087 H 
BRANCH 166 168
ATOM    168  C   GLU d   1     -14.482  92.865  30.939  0.00  0.00     0.241 C 
ATOM    169  O   GLU d   1     -13.373  93.410  30.948  0.00  0.00    -0.271 OA
ATOM    170  N   PHE d   1     -15.628  93.540  31.036  0.00  0.00    -0.344 N 
ATOM    171 7H10 PHE d   1     -16.479  93.019  30.967  0.00  0.00     0.163 HD
BRANCH 170 172
ATOM    172  CA  PHE d   1     -15.734  94.992  31.237  0.00  0.00     0.100 C 
ATOM    173 8H10 PHE d   1     -15.168  95.273  32.137  0.00  0.00     0.090 H 
BRANCH 172 174
ATOM    174  C   PHE d   1     -17.218  95.322  31.435  0.00  0.00     0.197 C 
ATOM    175  O   PHE d   1     -18.043  94.395  31.266  0.00  0.00    -0.646 OA
ATOM    176  OXT PHE d   1     -17.548  96.486  31.757  0.00  0.00    -0.646 OA
ENDBRANCH 172 174
BRANCH 172 177
ATOM    177  CB  PHE d   1     -15.191  95.792  30.044  0.00  0.00    -0.013 C 
ATOM    178 9H10 PHE d   1     -15.706  95.451  29.133  0.00  0.00     0.043 H 
ATOM    179 0H11 PHE d   1     -14.113  95.592  29.953  0.00  0.00     0.043 H 
BRANCH 177 180
ATOM    180  CG  PHE d   1     -15.393  97.297  30.178  0.00  0.00    -0.056 A 
ATOM    181  CD1 PHE d   1     -14.693  98.031  31.147  0.00  0.00    -0.077 A 
ATOM    182  CE1 PHE d   1     -14.918  99.413  31.317  0.00  0.00    -0.082 A 
ATOM    183 1H11 PHE d   1     -13.967  97.528  31.776  0.00  0.00     0.084 H 
ATOM    184  CZ  PHE d   1     -15.853 100.073  30.508  0.00  0.00    -0.083 A 
ATOM    185 3H11 PHE d   1     -14.369  99.964  32.072  0.00  0.00     0.083 H 
ATOM    186  CE2 PHE d   1     -16.558  99.353  29.532  0.00  0.00    -0.082 A 
ATOM    187 5H11 PHE d   1     -16.030 101.135  30.636  0.00  0.00     0.083 H 
ATOM    188  CD2 PHE d   1     -16.324  97.970  29.372  0.00  0.00    -0.077 A 
ATOM    189 4H11 PHE d   1     -17.281  99.858  28.902  0.00  0.00     0.083 H 
ATOM    190 2H11 PHE d   1     -16.872  97.420  28.615  0.00  0.00     0.084 H 
ENDBRANCH 177 180
ENDBRANCH 172 177
ENDBRANCH 170 172
ENDBRANCH 166 168
BRANCH 166 191
ATOM    191  CB  GLU d   1     -15.140  90.754  32.130  0.00  0.00    -0.029 C 
ATOM    192 3H10 GLU d   1     -14.547  91.202  32.941  0.00  0.00     0.037 H 
ATOM    193 4H10 GLU d   1     -14.977  89.666  32.114  0.00  0.00     0.037 H 
BRANCH 191 194
ATOM    194  CG  GLU d   1     -16.632  91.011  32.429  0.00  0.00     0.018 C 
ATOM    195 5H10 GLU d   1     -17.080  90.074  32.790  0.00  0.00     0.049 H 
ATOM    196 6H10 GLU d   1     -17.126  91.318  31.495  0.00  0.00     0.049 H 
BRANCH 194 197
ATOM    197  CD  GLU d   1     -16.870  92.096  33.480  0.00  0.00     0.172 C 
ATOM    198  OE1 GLU d   1     -16.169  93.126  33.441  0.00  0.00    -0.648 OA
ATOM    199  OE2 GLU d   1     -17.768  91.929  34.340  0.00  0.00    -0.648 OA
ENDBRANCH 194 197
ENDBRANCH 191 194
ENDBRANCH 166 191
ENDBRANCH 164 166
ENDBRANCH 160 162
BRANCH 160 200
ATOM    200  CB  ALA d   1     -12.210  88.033  28.645  0.00  0.00    -0.049 C 
ATOM    201  H98 ALA d   1     -12.676  88.751  27.955  0.00  0.00     0.030 H 
ATOM    202  H99 ALA d   1     -12.886  87.179  28.797  0.00  0.00     0.030 H 
ATOM    203 0H10 ALA d   1     -11.261  87.678  28.218  0.00  0.00     0.030 H 
ENDBRANCH 160 200
ENDBRANCH 158 160
ENDBRANCH 154 156
BRANCH 154 204
ATOM    204  CB  VAL d   1     -10.935  86.722  33.995  0.00  0.00    -0.033 C 
ATOM    205  H89 VAL d   1     -10.387  86.102  34.720  0.00  0.00     0.042 H 
BRANCH 204 206
ATOM    206  CG1 VAL d   1     -11.378  87.984  34.701  0.00  0.00    -0.071 C 
ATOM    207  H90 VAL d   1     -12.060  87.724  35.524  0.00  0.00     0.028 H 
ATOM    208  H91 VAL d   1     -11.898  88.640  33.988  0.00  0.00     0.028 H 
ATOM    209  H92 VAL d   1     -10.498  88.506  35.105  0.00  0.00     0.028 H 
ENDBRANCH 204 206
BRANCH 204 210
ATOM    210  CG2 VAL d   1     -12.119  85.903  33.476  0.00  0.00    -0.071 C 
ATOM    211  H93 VAL d   1     -11.747  84.999  32.972  0.00  0.00     0.028 H 
ATOM    212  H94 VAL d   1     -12.698  86.507  32.763  0.00  0.00     0.028 H 
ATOM    213  H95 VAL d   1     -12.763  85.614  34.320  0.00  0.00     0.028 H 
ENDBRANCH 204 210
ENDBRANCH 154 204
ENDBRANCH 152 154
ENDBRANCH 147 150
ENDBRANCH 143 147
ENDBRANCH 128 143
ENDBRANCH 126 128
ENDBRANCH 122 124
BRANCH 122 214
ATOM    214  CB  ASN d   1      -2.711  87.575  28.733  0.00  0.00     0.036 C 
ATOM    215  H68 ASN d   1      -3.559  88.274  28.689  0.00  0.00     0.051 H 
ATOM    216  H69 ASN d   1      -2.937  86.686  28.126  0.00  0.00     0.051 H 
BRANCH 214 217
ATOM    217  CG  ASN d   1      -1.492  88.256  28.160  0.00  0.00     0.217 C 
ATOM    218  OD1 ASN d   1      -1.259  89.454  28.395  0.00  0.00    -0.274 OA
ATOM    219  ND2 ASN d   1      -0.691  87.501  27.419  0.00  0.00    -0.370 N 
ATOM    220  H70 ASN d   1       0.133  87.896  27.012  0.00  0.00     0.159 HD
ATOM    221  H71 ASN d   1      -0.911  86.537  27.268  0.00  0.00     0.159 HD
ENDBRANCH 214 217
ENDBRANCH 122 214
ENDBRANCH 120 122
ENDBRANCH   1 118
BRANCH   1 222
ATOM    222  CB  VAL d   1       0.722  84.440  31.937  0.00  0.00    -0.033 C 
ATOM    223  H59 VAL d   1      -0.271  84.511  32.404  0.00  0.00     0.042 H 
BRANCH 222 224
ATOM    224  CG1 VAL d   1       1.188  82.977  32.007  0.00  0.00    -0.071 C 
ATOM    225  H60 VAL d   1       1.268  82.668  33.060  0.00  0.00     0.028 H 
ATOM    226  H61 VAL d   1       2.170  82.881  31.521  0.00  0.00     0.028 H 
ATOM    227  H62 VAL d   1       0.460  82.335  31.490  0.00  0.00     0.028 H 
ENDBRANCH 222 224
BRANCH 222 228
ATOM    228  CG2 VAL d   1       1.674  85.343  32.698  0.00  0.00    -0.071 C 
ATOM    229  H63 VAL d   1       1.322  86.383  32.635  0.00  0.00     0.028 H 
ATOM    230  H64 VAL d   1       2.680  85.269  32.259  0.00  0.00     0.028 H 
ATOM    231  H65 VAL d   1       1.711  85.032  33.752  0.00  0.00     0.028 H 
ENDBRANCH 222 228
ENDBRANCH   1 222
TORSDOF 72
