REMARK  3 active torsions:
REMARK  status: ('A' for Active; 'I' for Inactive)
REMARK    1  A    between atoms: O1_1  and  C3_2 
REMARK    2  A    between atoms: C10_8  and  C19_9 
REMARK    3  A    between atoms: C13_16  and  C18_18 
ROOT
ATOM      1  C3  ATE d   1      11.967  26.385  77.059  0.00  0.00     0.036 C 
ATOM      2  C2  ATE d   1      12.253  27.193  75.773  0.00  0.00    -0.040 C 
ATOM      3  C1  ATE d   1      12.365  28.702  76.032  0.00  0.00    -0.055 C 
ATOM      4  C4  ATE d   1      10.986  26.948  78.111  0.00  0.00    -0.037 C 
ATOM      5  C5  ATE d   1      11.216  28.466  78.317  0.00  0.00    -0.044 C 
ATOM      6  C6  ATE d   1      10.194  28.987  79.346  0.00  0.00    -0.060 C 
ATOM      7  C10 ATE d   1      11.302  29.326  76.990  0.00  0.00    -0.036 C 
ATOM      8  C9  ATE d   1      11.519  30.863  77.259  0.00  0.00    -0.043 C 
ATOM      9  C11 ATE d   1      11.617  31.763  76.000  0.00  0.00    -0.060 C 
ATOM     10  C8  ATE d   1      10.432  31.351  78.306  0.00  0.00    -0.045 C 
ATOM     11  C7  ATE d   1      10.332  30.493  79.595  0.00  0.00    -0.061 C 
ATOM     12  C14 ATE d   1      10.611  32.871  78.590  0.00  0.00    -0.037 C 
ATOM     13  C15 ATE d   1       9.735  33.639  79.578  0.00  0.00    -0.045 C 
ATOM     14  C13 ATE d   1      10.724  33.783  77.324  0.00  0.00    -0.022 C 
ATOM     15  C12 ATE d   1      11.767  33.268  76.307  0.00  0.00    -0.054 C 
ATOM     16  C17 ATE d   1      10.866  35.074  78.110  0.00  0.00    -0.098 C 
ATOM     17  C16 ATE d   1      10.345  35.009  79.356  0.00  0.00    -0.105 C 
ATOM     18  H2  ATE d   1      11.629  25.381  76.764  0.00  0.00     0.082 H 
ATOM     19  H3  ATE d   1      11.435  27.019  75.059  0.00  0.00     0.036 H 
ATOM     20  H4  ATE d   1      13.200  26.840  75.339  0.00  0.00     0.036 H 
ATOM     21  H5  ATE d   1      12.282  29.214  75.062  0.00  0.00     0.034 H 
ATOM     22  H6  ATE d   1      13.358  28.894  76.465  0.00  0.00     0.034 H 
ATOM     23  H7  ATE d   1      11.143  26.426  79.067  0.00  0.00     0.037 H 
ATOM     24  H8  ATE d   1       9.954  26.782  77.768  0.00  0.00     0.037 H 
ATOM     25  H9  ATE d   1      12.206  28.564  78.786  0.00  0.00     0.041 H 
ATOM     26  H10 ATE d   1      10.348  28.456  80.297  0.00  0.00     0.033 H 
ATOM     27  H11 ATE d   1       9.180  28.782  78.972  0.00  0.00     0.033 H 
ATOM     28  H15 ATE d   1      12.497  30.953  77.755  0.00  0.00     0.041 H 
ATOM     29  H16 ATE d   1      10.704  31.622  75.404  0.00  0.00     0.033 H 
ATOM     30  H17 ATE d   1      12.491  31.442  75.414  0.00  0.00     0.033 H 
ATOM     31  H18 ATE d   1       9.458  31.242  77.806  0.00  0.00     0.041 H 
ATOM     32  H19 ATE d   1      11.241  30.661  80.191  0.00  0.00     0.033 H 
ATOM     33  H20 ATE d   1       9.453  30.829  80.164  0.00  0.00     0.033 H 
ATOM     34  H21 ATE d   1      11.608  32.898  79.053  0.00  0.00     0.042 H 
ATOM     35  H22 ATE d   1       9.862  33.286  80.612  0.00  0.00     0.039 H 
ATOM     36  H23 ATE d   1       8.669  33.606  79.307  0.00  0.00     0.039 H 
ATOM     37  H24 ATE d   1      11.650  33.831  75.369  0.00  0.00     0.034 H 
ATOM     38  H25 ATE d   1      12.773  33.444  76.717  0.00  0.00     0.034 H 
ATOM     39  H29 ATE d   1      11.342  35.967  77.709  0.00  0.00     0.077 H 
ATOM     40  H30 ATE d   1      10.361  35.816  80.087  0.00  0.00     0.076 H 
ENDROOT
BRANCH   7  41
ATOM     41  C19 ATE d   1       9.935  29.226  76.215  0.00  0.00    -0.068 C 
ATOM     42  H12 ATE d   1       9.992  29.823  75.293  0.00  0.00     0.028 H 
ATOM     43  H13 ATE d   1       9.124  29.611  76.851  0.00  0.00     0.028 H 
ATOM     44  H14 ATE d   1       9.734  28.175  75.960  0.00  0.00     0.028 H 
ENDBRANCH   7  41
BRANCH   1  45
ATOM     45  O1  ATE d   1      13.204  26.334  77.770  0.00  0.00    -0.396 OA
ATOM     46  H1  ATE d   1      13.085  25.845  78.576  0.00  0.00     0.210 HD
ENDBRANCH   1  45
BRANCH  14  47
ATOM     47  C18 ATE d   1       9.369  33.950  76.554  0.00  0.00    -0.065 C 
ATOM     48  H26 ATE d   1       8.597  34.317  77.246  0.00  0.00     0.028 H 
ATOM     49  H27 ATE d   1       9.060  32.978  76.141  0.00  0.00     0.028 H 
ATOM     50  H28 ATE d   1       9.499  34.672  75.734  0.00  0.00     0.028 H 
ENDBRANCH  14  47
TORSDOF 3
