REMARK  2 active torsions:
REMARK  status: ('A' for Active; 'I' for Inactive)
REMARK    1  A    between atoms: CA_2  and  C_3 
REMARK    2  A    between atoms: CD_7  and  C1_9 
ROOT
ATOM      1  C1  FCD d   1      -4.146  -1.385   8.525  0.00  0.00     0.019 A 
ATOM      2  C2  FCD d   1      -4.187  -2.380   7.503  0.00  0.00    -0.069 A 
ATOM      3  C3  FCD d   1      -5.415  -2.764   6.919  0.00  0.00    -0.082 A 
ATOM      4  C4  FCD d   1      -6.605  -2.152   7.356  0.00  0.00    -0.081 A 
ATOM      5  C5  FCD d   1      -6.591  -1.163   8.368  0.00  0.00    -0.061 A 
ATOM      6  C6  FCD d   1      -5.370  -0.767   8.964  0.00  0.00     0.047 A 
ATOM      7 CL2  FCD d   1      -5.403   0.416  10.162  0.00  0.00    -0.083 Cl
ATOM      8  H3  FCD d   1      -3.266  -2.846   7.171  0.00  0.00     0.085 H 
ATOM      9  H4  FCD d   1      -5.440  -3.521   6.144  0.00  0.00     0.083 H 
ATOM     10  H5  FCD d   1      -7.549  -2.443   6.909  0.00  0.00     0.083 H 
ATOM     11  H6  FCD d   1      -7.520  -0.706   8.688  0.00  0.00     0.086 H 
ENDROOT
BRANCH   1  12
ATOM     12  CD  FCD d   1      -2.836  -1.044   9.065  0.00  0.00     0.088 A 
ATOM     13  OA  FCD d   1      -1.743  -0.921   8.290  0.00  0.00    -0.303 OA
ATOM     14  CA  FCD d   1      -0.672  -0.612   9.032  0.00  0.00     0.152 A 
ATOM     15  CB  FCD d   1      -1.083  -0.524  10.376  0.00  0.00    -0.041 A 
ATOM     16  CG  FCD d   1      -2.457  -0.799  10.400  0.00  0.00    -0.046 A 
ATOM     17  H1  FCD d   1      -0.454  -0.287  11.233  0.00  0.00     0.088 H 
ATOM     18  H2  FCD d   1      -3.103  -0.819  11.276  0.00  0.00     0.087 H 
BRANCH  14  19
ATOM     19  C   FCD d   1       0.684  -0.412   8.463  0.00  0.00     0.234 C 
ATOM     20  OB  FCD d   1       0.799  -0.548   7.232  0.00  0.00    -0.642 OA
ATOM     21  OXT FCD d   1       1.629  -0.128   9.207  0.00  0.00    -0.642 OA
ENDBRANCH  14  19
ENDBRANCH   1  12
TORSDOF 2
