REMARK  5 active torsions:
REMARK  status: ('A' for Active; 'I' for Inactive)
REMARK    1  A    between atoms: C7_6  and  O7_21 
REMARK    2  A    between atoms: C3_8  and  O3_20 
REMARK    3  A    between atoms: C2_9  and  C1'_10 
REMARK    4  A    between atoms: C4'_13  and  O4'_19 
REMARK    5  A    between atoms: C3'_14  and  O3'_18 
ROOT
ATOM      1  C6  FSE d   1      -3.343  37.309 140.471  0.00  0.00    -0.050 A 
ATOM      2  C5  FSE d   1      -2.248  36.927 141.307  0.00  0.00    -0.064 A 
ATOM      3  C10 FSE d   1      -0.813  36.932 140.824  0.00  0.00     0.051 A 
ATOM      4  C9  FSE d   1      -0.673  37.392 139.424  0.00  0.00     0.093 A 
ATOM      5  C8  FSE d   1      -1.794  37.785 138.582  0.00  0.00    -0.017 A 
ATOM      6  C7  FSE d   1      -3.142  37.712 139.104  0.00  0.00     0.068 A 
ATOM      7  C4  FSE d   1       0.386  36.505 141.592  0.00  0.00     0.220 A 
ATOM      8  C3  FSE d   1       1.743  36.553 140.898  0.00  0.00     0.152 A 
ATOM      9  C2  FSE d   1       1.871  37.008 139.544  0.00  0.00     0.123 A 
ATOM     10  O1  FSE d   1       0.684  37.416 138.867  0.00  0.00    -0.306 OA
ATOM     11  O4  FSE d   1       0.350  36.089 142.801  0.00  0.00    -0.284 OA
ATOM     12  H1  FSE d   1      -4.348  37.295 140.876  0.00  0.00     0.087 H 
ATOM     13  H2  FSE d   1      -2.453  36.622 142.327  0.00  0.00     0.085 H 
ATOM     14  H3  FSE d   1      -1.620  38.130 137.569  0.00  0.00     0.092 H 
ENDROOT
BRANCH   9  15
ATOM     15  C1' FSE d   1       3.027  37.188 138.661  0.00  0.00     0.004 A 
ATOM     16  C6' FSE d   1       4.363  37.066 139.130  0.00  0.00    -0.068 A 
ATOM     17  C5' FSE d   1       5.456  37.255 138.260  0.00  0.00    -0.047 A 
ATOM     18  H4  FSE d   1       4.544  36.824 140.171  0.00  0.00     0.085 H 
ATOM     19  C4' FSE d   1       5.232  37.567 136.896  0.00  0.00     0.098 A 
ATOM     20  H5  FSE d   1       6.469  37.162 138.635  0.00  0.00     0.087 H 
ATOM     21  C3' FSE d   1       3.934  37.680 136.364  0.00  0.00     0.099 A 
ATOM     22  C2' FSE d   1       2.829  37.500 137.209  0.00  0.00    -0.035 A 
ATOM     23  H6  FSE d   1       1.825  37.587 136.809  0.00  0.00     0.089 H 
BRANCH  19  24
ATOM     24  O4' FSE d   1       6.310  37.736 136.116  0.00  0.00    -0.358 OA
ATOM     25  H8  FSE d   1       7.097  37.625 136.637  0.00  0.00     0.217 HD
ENDBRANCH  19  24
BRANCH  21  26
ATOM     26  O3' FSE d   1       3.850  38.004 134.995  0.00  0.00    -0.358 OA
ATOM     27  H7  FSE d   1       3.397  38.833 134.894  0.00  0.00     0.217 HD
ENDBRANCH  21  26
ENDBRANCH   9  15
BRANCH   8  28
ATOM     28  O3  FSE d   1       2.892  36.143 141.613  0.00  0.00    -0.355 OA
ATOM     29  H9  FSE d   1       2.639  35.873 142.488  0.00  0.00     0.218 HD
ENDBRANCH   8  28
BRANCH   6  30
ATOM     30  O7  FSE d   1      -4.220  38.024 138.260  0.00  0.00    -0.361 OA
ATOM     31  H10 FSE d   1      -4.221  37.432 137.517  0.00  0.00     0.217 HD
ENDBRANCH   6  30
TORSDOF 5
