REMARK  11 active torsions:
REMARK  status: ('A' for Active; 'I' for Inactive)
REMARK    1  A    between atoms: C1_1  and  C13_18 
REMARK    2  A    between atoms: C8_13  and  C2_2 
REMARK    3  A    between atoms: C3_4  and  C5_6 
REMARK       I    between atoms: N2_9  and  C6_10 
REMARK    4  A    between atoms: N2_9  and  C8_13 
REMARK    5  A    between atoms: C6_10  and  C7_11 
REMARK    6  A    between atoms: C8_13  and  C9_14 
REMARK    7  A    between atoms: C9_14  and  C10_15 
REMARK    8  A    between atoms: C10_15  and  C11_16 
REMARK    9  A    between atoms: C10_15  and  C12_17 
REMARK   10  A    between atoms: C13_18  and  O5_20 
REMARK   11  A    between atoms: O5_20  and  C14_21 
ROOT
ATOM      1  C8  ABX d   1      26.980  17.160  62.777  0.00  0.00     0.041 C 
ATOM      2  H12 ABX d   1      27.415  16.699  63.676  0.00  0.00     0.075 H 
ENDROOT
BRANCH   1   3
ATOM      3  C2  ABX d   1      25.578  17.801  63.009  0.00  0.00     0.134 C 
ATOM      4  C1  ABX d   1      24.436  16.807  63.316  0.00  0.00     0.062 C 
ATOM      5  C4  ABX d   1      23.386  17.666  63.996  0.00  0.00    -0.015 C 
ATOM      6  H1  ABX d   1      24.802  16.032  64.006  0.00  0.00     0.059 H 
ATOM      7  C3  ABX d   1      24.228  18.677  64.769  0.00  0.00     0.186 C 
ATOM      8  H6  ABX d   1      22.763  17.067  64.676  0.00  0.00     0.038 H 
ATOM      9  H7  ABX d   1      22.744  18.167  63.257  0.00  0.00     0.038 H 
ATOM     10  N1  ABX d   1      25.559  18.742  64.149  0.00  0.00    -0.054 N 
ATOM     11  H5  ABX d   1      24.327  18.333  65.809  0.00  0.00     0.101 H 
ATOM     12  H3  ABX d   1      25.739  19.679  63.823  0.00  0.00     0.278 HD
ATOM     13  H4  ABX d   1      26.263  18.479  64.821  0.00  0.00     0.278 HD
ATOM     14  H2  ABX d   1      25.324  18.349  62.090  0.00  0.00     0.088 H 
BRANCH   4  15
ATOM     15  C13 ABX d   1      23.835  16.105  62.082  0.00  0.00     0.264 C 
ATOM     16  O4  ABX d   1      23.345  16.655  61.131  0.00  0.00    -0.265 OA
BRANCH  15  17
ATOM     17  O5  ABX d   1      23.839  14.783  62.263  0.00  0.00    -0.326 OA
BRANCH  17  18
ATOM     18  C14 ABX d   1      23.285  13.902  61.275  0.00  0.00     0.013 C 
ATOM     19  H22 ABX d   1      23.387  12.861  61.614  0.00  0.00     0.067 H 
ATOM     20  H23 ABX d   1      23.823  14.032  60.325  0.00  0.00     0.067 H 
ATOM     21  H24 ABX d   1      22.221  14.138  61.129  0.00  0.00     0.067 H 
ENDBRANCH  17  18
ENDBRANCH  15  17
ENDBRANCH   4  15
BRANCH   7  22
ATOM     22  C5  ABX d   1      23.596  20.083  64.777  0.00  0.00     0.204 C 
ATOM     23  O1  ABX d   1      22.371  20.106  65.307  0.00  0.00    -0.646 OA
ATOM     24  O2  ABX d   1      24.157  21.038  64.343  0.00  0.00    -0.646 OA
ENDBRANCH   7  22
ENDBRANCH   1   3
BRANCH   1  25
ATOM     25  N2  ABX d   1      26.924  16.212  61.642  0.00  0.00    -0.355 N 
ATOM     26  C6  ABX d   1      27.255  14.888  61.771  0.00  0.00     0.213 C 
ATOM     27  O3  ABX d   1      27.621  14.372  62.809  0.00  0.00    -0.274 OA
ATOM     28  H8  ABX d   1      26.634  16.550  60.747  0.00  0.00     0.162 HD
BRANCH  26  29
ATOM     29  C7  ABX d   1      27.125  14.064  60.493  0.00  0.00    -0.003 C 
ATOM     30  H9  ABX d   1      27.411  13.022  60.698  0.00  0.00     0.040 H 
ATOM     31  H10 ABX d   1      27.787  14.480  59.719  0.00  0.00     0.040 H 
ATOM     32  H11 ABX d   1      26.084  14.096  60.141  0.00  0.00     0.040 H 
ENDBRANCH  26  29
ENDBRANCH   1  25
BRANCH   1  33
ATOM     33  C9  ABX d   1      27.711  18.448  62.295  0.00  0.00    -0.042 C 
ATOM     34  H13 ABX d   1      27.668  19.212  63.086  0.00  0.00     0.036 H 
ATOM     35  H14 ABX d   1      27.220  18.831  61.389  0.00  0.00     0.036 H 
BRANCH  33  36
ATOM     36  C10 ABX d   1      29.193  18.114  61.978  0.00  0.00    -0.059 C 
ATOM     37  H15 ABX d   1      29.244  17.115  61.520  0.00  0.00     0.038 H 
BRANCH  36  38
ATOM     38  C11 ABX d   1      29.760  19.156  60.985  0.00  0.00    -0.073 C 
ATOM     39  H16 ABX d   1      30.810  18.917  60.762  0.00  0.00     0.028 H 
ATOM     40  H17 ABX d   1      29.699  20.159  61.432  0.00  0.00     0.028 H 
ATOM     41  H18 ABX d   1      29.174  19.133  60.055  0.00  0.00     0.028 H 
ENDBRANCH  36  38
BRANCH  36  42
ATOM     42  C12 ABX d   1      30.036  18.115  63.268  0.00  0.00    -0.073 C 
ATOM     43  H19 ABX d   1      29.630  17.373  63.972  0.00  0.00     0.028 H 
ATOM     44  H20 ABX d   1      30.002  19.114  63.728  0.00  0.00     0.028 H 
ATOM     45  H21 ABX d   1      31.078  17.859  63.025  0.00  0.00     0.028 H 
ENDBRANCH  36  42
ENDBRANCH  33  36
ENDBRANCH   1  33
TORSDOF 11
