REMARK  6 active torsions:
REMARK  status: ('A' for Active; 'I' for Inactive)
REMARK    1  A    between atoms: C23_2  and  C4_4 
REMARK    2  A    between atoms: C1_9  and  C7_12 
REMARK    3  A    between atoms: C10_15  and  O11_16 
REMARK    4  A    between atoms: O11_16  and  C12_17 
REMARK    5  A    between atoms: C13_18  and  O14_20 
REMARK    6  A    between atoms: O14_20  and  C15_21 
ROOT
ATOM      1  C4  CIO d   1      12.762   6.372  17.006  0.00  0.00     0.031 C 
ATOM      2  C5  CIO d   1      14.100   6.698  16.347  0.00  0.00    -0.051 C 
ATOM      3  C6  CIO d   1      13.984   6.783  14.825  0.00  0.00    -0.041 C 
ATOM      4  C3  CIO d   1      12.149   5.117  16.377  0.00  0.00    -0.051 C 
ATOM      5  C2  CIO d   1      12.062   5.208  14.843  0.00  0.00    -0.041 C 
ATOM      6  C1  CIO d   1      13.425   5.497  14.207  0.00  0.00     0.076 C 
ATOM      7  C21 CIO d   1      14.323   4.381  14.557  0.00  0.00     0.074 C 
ATOM      8  N22 CIO d   1      15.035   3.515  14.853  0.00  0.00    -0.196 NA
ATOM      9  H1  CIO d   1      12.074   7.214  16.842  0.00  0.00     0.056 H 
ATOM     10  H2  CIO d   1      14.824   5.911  16.604  0.00  0.00     0.034 H 
ATOM     11  H3  CIO d   1      14.458   7.665  16.730  0.00  0.00     0.034 H 
ATOM     12  H4  CIO d   1      14.983   6.971  14.405  0.00  0.00     0.036 H 
ATOM     13  H5  CIO d   1      13.315   7.618  14.568  0.00  0.00     0.036 H 
ATOM     14  H6  CIO d   1      11.135   4.980  16.780  0.00  0.00     0.034 H 
ATOM     15  H7  CIO d   1      12.770   4.249  16.644  0.00  0.00     0.034 H 
ATOM     16  H8  CIO d   1      11.366   6.016  14.574  0.00  0.00     0.036 H 
ATOM     17  H9  CIO d   1      11.683   4.253  14.451  0.00  0.00     0.036 H 
ENDROOT
BRANCH   6  18
ATOM     18  C7  CIO d   1      13.401   5.665  12.695  0.00  0.00    -0.033 A 
ATOM     19  C8  CIO d   1      12.239   5.686  11.917  0.00  0.00    -0.072 A 
ATOM     20  C9  CIO d   1      12.311   5.853  10.525  0.00  0.00    -0.047 A 
ATOM     21  H10 CIO d   1      11.272   5.572  12.394  0.00  0.00     0.084 H 
ATOM     22  C10 CIO d   1      13.550   6.003   9.900  0.00  0.00     0.101 A 
ATOM     23  H11 CIO d   1      11.402   5.865   9.934  0.00  0.00     0.087 H 
ATOM     24  C13 CIO d   1      14.698   5.985  10.663  0.00  0.00     0.103 A 
ATOM     25  C20 CIO d   1      14.623   5.819  12.045  0.00  0.00    -0.040 A 
ATOM     26  H15 CIO d   1      15.537   5.810  12.627  0.00  0.00     0.088 H 
BRANCH  22  27
ATOM     27  O11 CIO d   1      13.709   6.169   8.544  0.00  0.00    -0.353 OA
BRANCH  27  28
ATOM     28  C12 CIO d   1      12.608   6.130   7.636  0.00  0.00     0.010 C 
ATOM     29  H12 CIO d   1      12.973   6.286   6.610  0.00  0.00     0.066 H 
ATOM     30  H13 CIO d   1      11.891   6.923   7.895  0.00  0.00     0.066 H 
ATOM     31  H14 CIO d   1      12.111   5.151   7.704  0.00  0.00     0.066 H 
ENDBRANCH  27  28
ENDBRANCH  22  27
BRANCH  24  32
ATOM     32  O14 CIO d   1      15.904   6.137  10.027  0.00  0.00    -0.343 OA
BRANCH  32  33
ATOM     33  C15 CIO d   1      17.145   6.290  10.723  0.00  0.00     0.045 C 
ATOM     34  C16 CIO d   1      18.245   6.429   9.682  0.00  0.00    -0.040 C 
ATOM     35  C17 CIO d   1      18.342   7.925   9.417  0.00  0.00    -0.063 C 
ATOM     36  H17 CIO d   1      17.978   5.889   8.762  0.00  0.00     0.036 H 
ATOM     37  H18 CIO d   1      19.198   6.042  10.071  0.00  0.00     0.036 H 
ATOM     38  C18 CIO d   1      17.898   8.632  10.689  0.00  0.00    -0.063 C 
ATOM     39  H19 CIO d   1      17.684   8.204   8.581  0.00  0.00     0.033 H 
ATOM     40  H20 CIO d   1      19.379   8.199   9.175  0.00  0.00     0.033 H 
ATOM     41  C19 CIO d   1      17.192   7.583  11.534  0.00  0.00    -0.040 C 
ATOM     42  H21 CIO d   1      17.208   9.454  10.447  0.00  0.00     0.033 H 
ATOM     43  H22 CIO d   1      18.770   9.031  11.227  0.00  0.00     0.033 H 
ATOM     44  H23 CIO d   1      17.748   7.419  12.469  0.00  0.00     0.036 H 
ATOM     45  H24 CIO d   1      16.170   7.916  11.768  0.00  0.00     0.036 H 
ATOM     46  H16 CIO d   1      17.319   5.421  11.375  0.00  0.00     0.084 H 
ENDBRANCH  32  33
ENDBRANCH  24  32
ENDBRANCH   6  18
BRANCH   1  47
ATOM     47  C23 CIO d   1      12.958   6.193  18.494  0.00  0.00     0.177 C 
ATOM     48  O25 CIO d   1      14.082   5.876  18.949  0.00  0.00    -0.648 OA
ATOM     49  O24 CIO d   1      11.979   6.380  19.240  0.00  0.00    -0.648 OA
ENDBRANCH   1  47
TORSDOF 6
