REMARK  6 active torsions:
REMARK  status: ('A' for Active; 'I' for Inactive)
REMARK    1  A    between atoms: C18_8  and  N16_9 
REMARK       I    between atoms: N16_9  and  C15_10 
REMARK    2  A    between atoms: C15_10  and  C14_12 
REMARK    3  A    between atoms: C9_15  and  O10_16 
REMARK    4  A    between atoms: O10_16  and  C11_17 
REMARK    5  A    between atoms: C2_18  and  O3_20 
REMARK    6  A    between atoms: O3_20  and  C4_21 
ROOT
ATOM      1  C14 PIL d   1       6.434  -2.485  56.695  0.00  0.00     0.035 A 
ATOM      2  C13 PIL d   1       7.201  -1.769  57.632  0.00  0.00    -0.065 A 
ATOM      3  C12 PIL d   1       7.028  -2.004  59.004  0.00  0.00    -0.047 A 
ATOM      4  C9  PIL d   1       6.094  -2.946  59.466  0.00  0.00     0.101 A 
ATOM      5  C2  PIL d   1       5.321  -3.653  58.541  0.00  0.00     0.103 A 
ATOM      6  C1  PIL d   1       5.496  -3.426  57.159  0.00  0.00    -0.033 A 
ATOM      7  H4  PIL d   1       7.925  -1.036  57.294  0.00  0.00     0.085 H 
ATOM      8  H5  PIL d   1       7.625  -1.450  59.719  0.00  0.00     0.087 H 
ATOM      9  H9  PIL d   1       4.900  -3.984  56.446  0.00  0.00     0.089 H 
ENDROOT
BRANCH   5  10
ATOM     10  O3  PIL d   1       4.416  -4.562  59.051  0.00  0.00    -0.343 OA
BRANCH  10  11
ATOM     11  C4  PIL d   1       3.697  -5.349  58.079  0.00  0.00     0.045 C 
ATOM     12  C5  PIL d   1       2.732  -4.403  57.574  0.00  0.00    -0.040 C 
ATOM     13  C6  PIL d   1       1.518  -4.448  58.497  0.00  0.00    -0.063 C 
ATOM     14  H11 PIL d   1       2.436  -4.678  56.551  0.00  0.00     0.036 H 
ATOM     15  H12 PIL d   1       3.164  -3.391  57.571  0.00  0.00     0.036 H 
ATOM     16  C7  PIL d   1       1.705  -5.661  59.380  0.00  0.00    -0.063 C 
ATOM     17  H13 PIL d   1       0.594  -4.544  57.908  0.00  0.00     0.033 H 
ATOM     18  H14 PIL d   1       1.470  -3.535  59.108  0.00  0.00     0.033 H 
ATOM     19  C8  PIL d   1       2.879  -6.424  58.790  0.00  0.00    -0.040 C 
ATOM     20  H15 PIL d   1       0.799  -6.285  59.371  0.00  0.00     0.033 H 
ATOM     21  H16 PIL d   1       1.928  -5.353  60.412  0.00  0.00     0.033 H 
ATOM     22  H17 PIL d   1       3.471  -6.905  59.583  0.00  0.00     0.036 H 
ATOM     23  H18 PIL d   1       2.531  -7.186  58.077  0.00  0.00     0.036 H 
ATOM     24  H10 PIL d   1       4.352  -5.771  57.303  0.00  0.00     0.084 H 
ENDBRANCH  10  11
ENDBRANCH   5  10
BRANCH   4  25
ATOM     25  O10 PIL d   1       5.945  -3.167  60.812  0.00  0.00    -0.353 OA
BRANCH  25  26
ATOM     26  C11 PIL d   1       6.695  -2.419  61.786  0.00  0.00     0.010 C 
ATOM     27  H6  PIL d   1       6.422  -2.756  62.797  0.00  0.00     0.066 H 
ATOM     28  H7  PIL d   1       6.466  -1.348  61.682  0.00  0.00     0.066 H 
ATOM     29  H8  PIL d   1       7.771  -2.581  61.624  0.00  0.00     0.066 H 
ENDBRANCH  25  26
ENDBRANCH   4  25
BRANCH   1  30
ATOM     30  C15 PIL d   1       6.557  -2.308  55.222  0.00  0.00     0.256 C 
ATOM     31  N16 PIL d   1       7.331  -1.261  54.758  0.00  0.00    -0.320 N 
ATOM     32  H3  PIL d   1       7.798  -0.663  55.409  0.00  0.00     0.169 HD
ATOM     33  O17 PIL d   1       5.970  -3.085  54.474  0.00  0.00    -0.267 OA
BRANCH  31  34
ATOM     34  C18 PIL d   1       7.468  -1.028  53.364  0.00  0.00     0.081 A 
ATOM     35  C24 PIL d   1       6.343  -0.615  52.629  0.00  0.00     0.080 A 
ATOM     36 CL25 PIL d   1       4.818  -0.384  53.414  0.00  0.00    -0.080 Cl
ATOM     37  C23 PIL d   1       6.452  -0.384  51.264  0.00  0.00     0.025 A 
ATOM     38  N22 PIL d   1       7.625  -0.518  50.589  0.00  0.00    -0.270 NA
ATOM     39  H1  PIL d   1       5.567  -0.085  50.715  0.00  0.00     0.117 H 
ATOM     40  C21 PIL d   1       8.707  -0.922  51.316  0.00  0.00     0.025 A 
ATOM     41  C19 PIL d   1       8.679  -1.183  52.681  0.00  0.00     0.080 A 
ATOM     42  H2  PIL d   1       9.649  -1.048  50.795  0.00  0.00     0.117 H 
ATOM     43 CL20 PIL d   1      10.109  -1.690  53.481  0.00  0.00    -0.080 Cl
ENDBRANCH  31  34
ENDBRANCH   1  30
TORSDOF 6
