REMARK  7 active torsions:
REMARK  status: ('A' for Active; 'I' for Inactive)
REMARK    1  A    between atoms: C20_16  and  C21_4 
REMARK    2  A    between atoms: C9_6  and  C8_5 
REMARK       I    between atoms: C8_5  and  N7_18 
REMARK    3  A    between atoms: C12_9  and  O15_10 
REMARK    4  A    between atoms: O15_10  and  C16_11 
REMARK    5  A    between atoms: O19_15  and  C13_14 
REMARK    6  A    between atoms: O19_15  and  C20_16 
REMARK    7  A    between atoms: N7_18  and  C6_19 
ROOT
ATOM      1  C9  ROF d   1      14.173  28.335  53.363  0.00  0.00     0.035 A 
ATOM      2  C10 ROF d   1      14.145  27.209  52.532  0.00  0.00    -0.065 A 
ATOM      3  C11 ROF d   1      13.940  27.356  51.149  0.00  0.00    -0.047 A 
ATOM      4  C12 ROF d   1      13.790  28.640  50.592  0.00  0.00     0.108 A 
ATOM      5  C13 ROF d   1      13.804  29.751  51.416  0.00  0.00     0.103 A 
ATOM      6  C14 ROF d   1      14.001  29.593  52.794  0.00  0.00    -0.033 A 
ATOM      7  H6  ROF d   1      14.282  26.221  52.956  0.00  0.00     0.085 H 
ATOM      8  H7  ROF d   1      13.897  26.480  50.511  0.00  0.00     0.087 H 
ATOM      9  H11 ROF d   1      14.020  30.470  53.431  0.00  0.00     0.089 H 
ENDROOT
BRANCH   1  10
ATOM     10  C8  ROF d   1      14.368  28.267  54.828  0.00  0.00     0.256 C 
ATOM     11  O24 ROF d   1      14.467  29.333  55.447  0.00  0.00    -0.267 OA
ATOM     12  N7  ROF d   1      14.457  27.087  55.459  0.00  0.00    -0.320 N 
ATOM     13  H12 ROF d   1      14.407  26.258  54.902  0.00  0.00     0.169 HD
BRANCH  12  14
ATOM     14  C6  ROF d   1      14.618  26.929  56.868  0.00  0.00     0.081 A 
ATOM     15  C5  ROF d   1      15.750  26.328  57.425  0.00  0.00     0.080 A 
ATOM     16 CL26 ROF d   1      17.039  25.821  56.407  0.00  0.00    -0.080 Cl
ATOM     17  C4  ROF d   1      15.843  26.157  58.808  0.00  0.00     0.025 A 
ATOM     18  N3  ROF d   1      14.846  26.570  59.612  0.00  0.00    -0.270 NA
ATOM     19  H13 ROF d   1      16.722  25.689  59.236  0.00  0.00     0.117 H 
ATOM     20  C2  ROF d   1      13.738  27.136  59.122  0.00  0.00     0.025 A 
ATOM     21  C1  ROF d   1      13.597  27.319  57.741  0.00  0.00     0.080 A 
ATOM     22  H14 ROF d   1      12.949  27.453  59.794  0.00  0.00     0.117 H 
ATOM     23 CL25 ROF d   1      12.166  28.048  57.100  0.00  0.00    -0.080 Cl
ENDBRANCH  12  14
ENDBRANCH   1  10
BRANCH   5  24
ATOM     24  O19 ROF d   1      13.645  30.991  50.855  0.00  0.00    -0.348 OA
BRANCH  24  25
ATOM     25  C20 ROF d   1      13.957  32.106  51.684  0.00  0.00     0.029 C 
ATOM     26  H9  ROF d   1      13.471  31.969  52.661  0.00  0.00     0.075 H 
ATOM     27  H10 ROF d   1      15.047  32.153  51.820  0.00  0.00     0.075 H 
BRANCH  25  28
ATOM     28  C21 ROF d   1      13.488  33.398  51.088  0.00  0.00    -0.033 A 
ATOM     29  C23 ROF d   1      12.294  34.011  50.524  0.00  0.00    -0.059 A 
ATOM     30  C22 ROF d   1      13.213  34.776  51.475  0.00  0.00    -0.059 A 
ATOM     31  H1  ROF d   1      12.258  34.275  49.457  0.00  0.00     0.033 H 
ATOM     32  H2  ROF d   1      11.296  33.690  50.856  0.00  0.00     0.033 H 
ATOM     33  H3  ROF d   1      12.882  35.009  52.498  0.00  0.00     0.033 H 
ATOM     34  H4  ROF d   1      13.844  35.594  51.098  0.00  0.00     0.033 H 
ATOM     35  H5  ROF d   1      14.265  33.427  50.310  0.00  0.00     0.043 H 
ENDBRANCH  25  28
ENDBRANCH  24  25
ENDBRANCH   5  24
BRANCH   4  36
ATOM     36  O15 ROF d   1      13.590  28.874  49.259  0.00  0.00    -0.287 OA
BRANCH  36  37
ATOM     37  C16 ROF d   1      13.907  27.889  48.282  0.00  0.00     0.310 C 
ATOM     38  F18 ROF d   1      13.038  26.894  48.390  0.00  0.00    -0.184 F 
ATOM     39  F17 ROF d   1      15.160  27.465  48.449  0.00  0.00    -0.184 F 
ATOM     40  H8  ROF d   1      13.818  28.332  47.279  0.00  0.00     0.195 H 
ENDBRANCH  36  37
ENDBRANCH   4  36
TORSDOF 7
