REMARK  5 active torsions:
REMARK  status: ('A' for Active; 'I' for Inactive)
REMARK    1  A    between atoms: C5_5  and  C8_8 
REMARK    2  A    between atoms: C10_10  and  O18_18 
REMARK    3  A    between atoms: C11_11  and  O15_15 
REMARK    4  A    between atoms: O15_15  and  C14_14 
REMARK    5  A    between atoms: O18_18  and  C19_19 
ROOT
ATOM      1  C8  ZAR d   1       6.514  -1.808  56.508  0.00  0.00    -0.003 A 
ATOM      2  C9  ZAR d   1       6.786  -1.995  57.875  0.00  0.00    -0.036 A 
ATOM      3  C10 ZAR d   1       6.058  -2.944  58.623  0.00  0.00     0.102 A 
ATOM      4  C11 ZAR d   1       5.045  -3.695  57.999  0.00  0.00     0.108 A 
ATOM      5  C12 ZAR d   1       4.759  -3.474  56.637  0.00  0.00    -0.047 A 
ATOM      6  C13 ZAR d   1       5.485  -2.530  55.899  0.00  0.00    -0.068 A 
ATOM      7  H4  ZAR d   1       7.559  -1.407  58.356  0.00  0.00     0.089 H 
ATOM      8  H5  ZAR d   1       3.970  -4.040  56.156  0.00  0.00     0.087 H 
ATOM      9  H6  ZAR d   1       5.248  -2.360  54.855  0.00  0.00     0.085 H 
ENDROOT
BRANCH   1  10
ATOM     10  C5  ZAR d   1       7.280  -0.764  55.788  0.00  0.00     0.087 C 
ATOM     11  N4  ZAR d   1       6.547  -0.040  55.007  0.00  0.00    -0.171 NA
ATOM     12  N3  ZAR d   1       7.150   0.928  54.298  0.00  0.00    -0.243 N 
ATOM     13  C2  ZAR d   1       8.497   1.165  54.248  0.00  0.00     0.261 C 
ATOM     14  H1  ZAR d   1       6.562   1.530  53.758  0.00  0.00     0.192 HD
ATOM     15  O1  ZAR d   1       8.955   2.075  53.562  0.00  0.00    -0.267 OA
ATOM     16  C7  ZAR d   1       9.329   0.275  55.089  0.00  0.00    -0.014 C 
ATOM     17  C6  ZAR d   1       8.757  -0.705  55.798  0.00  0.00    -0.047 C 
ATOM     18  H3  ZAR d   1      10.408   0.418  55.131  0.00  0.00     0.092 H 
ATOM     19  H2  ZAR d   1       9.352  -1.426  56.357  0.00  0.00     0.087 H 
ENDBRANCH   1  10
BRANCH   3  20
ATOM     20  O18 ZAR d   1       6.260  -3.227  59.976  0.00  0.00    -0.353 OA
BRANCH  20  21
ATOM     21  C19 ZAR d   1       6.884  -2.227  60.796  0.00  0.00     0.010 C 
ATOM     22  H8  ZAR d   1       6.971  -2.600  61.827  0.00  0.00     0.066 H 
ATOM     23  H9  ZAR d   1       6.273  -1.312  60.787  0.00  0.00     0.066 H 
ATOM     24  H10 ZAR d   1       7.886  -2.003  60.402  0.00  0.00     0.066 H 
ENDBRANCH  20  21
ENDBRANCH   3  20
BRANCH   4  25
ATOM     25  O15 ZAR d   1       4.409  -4.571  58.876  0.00  0.00    -0.287 OA
BRANCH  25  26
ATOM     26  C14 ZAR d   1       3.767  -5.810  58.570  0.00  0.00     0.310 C 
ATOM     27  F16 ZAR d   1       3.654  -6.067  57.247  0.00  0.00    -0.184 F 
ATOM     28  F17 ZAR d   1       2.502  -5.730  59.071  0.00  0.00    -0.184 F 
ATOM     29  H7  ZAR d   1       4.321  -6.631  59.049  0.00  0.00     0.195 H 
ENDBRANCH  25  26
ENDBRANCH   4  25
TORSDOF 5
