REMARK  11 active torsions:
REMARK  status: ('A' for Active; 'I' for Inactive)
REMARK    1  A    between atoms: C34_1  and  C33_2 
REMARK    2  A    between atoms: C33_2  and  C32_3 
REMARK    3  A    between atoms: C32_3  and  C30_4 
REMARK    4  A    between atoms: N28_6  and  C31_7 
REMARK    5  A    between atoms: C21_12  and  C9_15 
REMARK    6  A    between atoms: C7_17  and  S10_24 
REMARK    7  A    between atoms: C4_20  and  O3_21 
REMARK    8  A    between atoms: O3_21  and  C2_22 
REMARK    9  A    between atoms: C2_22  and  C1_23 
REMARK   10  A    between atoms: S10_24  and  N14_27 
REMARK   11  A    between atoms: N17_30  and  C20_31 
ROOT
ATOM      1  C9  VIA d   1       0.729  64.417  40.125  0.00  0.00     0.045 A 
ATOM      2  C8  VIA d   1      -0.191  65.324  39.579  0.00  0.00    -0.044 A 
ATOM      3  C7  VIA d   1      -0.389  65.460  38.191  0.00  0.00     0.080 A 
ATOM      4  C6  VIA d   1       0.402  64.638  37.356  0.00  0.00    -0.058 A 
ATOM      5  C5  VIA d   1       1.337  63.734  37.870  0.00  0.00    -0.048 A 
ATOM      6  C4  VIA d   1       1.528  63.603  39.271  0.00  0.00     0.082 A 
ATOM      7  H12 VIA d   1      -0.772  65.945  40.251  0.00  0.00     0.087 H 
ATOM      8  H13 VIA d   1       0.280  64.711  36.281  0.00  0.00     0.086 H 
ATOM      9  H14 VIA d   1       1.923  63.126  37.191  0.00  0.00     0.087 H 
ENDROOT
BRANCH   1  10
ATOM     10  C21 VIA d   1       0.850  64.386  41.612  0.00  0.00     0.144 A 
ATOM     11  N22 VIA d   1       1.022  63.155  42.307  0.00  0.00    -0.305 N 
ATOM     12  C23 VIA d   1       1.146  63.104  43.723  0.00  0.00     0.278 A 
ATOM     13  H11 VIA d   1       1.057  62.303  41.785  0.00  0.00     0.170 HD
ATOM     14  C24 VIA d   1       1.077  64.419  44.374  0.00  0.00     0.151 A 
ATOM     15  O27 VIA d   1       1.296  62.009  44.301  0.00  0.00    -0.265 OA
ATOM     16  N28 VIA d   1       1.133  64.880  45.702  0.00  0.00    -0.266 N 
ATOM     17  C25 VIA d   1       0.894  65.581  43.551  0.00  0.00     0.119 A 
ATOM     18  N29 VIA d   1       1.003  66.207  45.730  0.00  0.00    -0.174 NA
ATOM     19  C30 VIA d   1       0.856  66.678  44.456  0.00  0.00     0.086 A 
ATOM     20  N26 VIA d   1       0.783  65.572  42.189  0.00  0.00    -0.226 NA
BRANCH  16  21
ATOM     21  C31 VIA d   1       1.302  64.088  46.904  0.00  0.00     0.003 C 
ATOM     22  H8  VIA d   1       1.387  63.025  46.634  0.00  0.00     0.059 H 
ATOM     23  H9  VIA d   1       0.432  64.230  47.562  0.00  0.00     0.059 H 
ATOM     24  H10 VIA d   1       2.215  64.407  47.428  0.00  0.00     0.059 H 
ENDBRANCH  16  21
BRANCH  19  25
ATOM     25  C32 VIA d   1       0.700  68.069  44.017  0.00  0.00    -0.021 C 
ATOM     26  H6  VIA d   1       0.780  68.723  44.898  0.00  0.00     0.042 H 
ATOM     27  H7  VIA d   1       1.510  68.304  43.311  0.00  0.00     0.042 H 
BRANCH  25  28
ATOM     28  C33 VIA d   1      -0.609  68.341  43.343  0.00  0.00    -0.063 C 
ATOM     29  H4  VIA d   1      -0.869  67.487  42.700  0.00  0.00     0.033 H 
ATOM     30  H5  VIA d   1      -1.389  68.475  44.107  0.00  0.00     0.033 H 
BRANCH  28  31
ATOM     31  C34 VIA d   1      -0.520  69.583  42.504  0.00  0.00    -0.076 C 
ATOM     32  H1  VIA d   1      -1.489  69.767  42.017  0.00  0.00     0.027 H 
ATOM     33  H2  VIA d   1       0.257  69.452  41.736  0.00  0.00     0.027 H 
ATOM     34  H3  VIA d   1      -0.263  70.440  43.144  0.00  0.00     0.027 H 
ENDBRANCH  28  31
ENDBRANCH  25  28
ENDBRANCH  19  25
ENDBRANCH   1  10
BRANCH   6  35
ATOM     35  O3  VIA d   1       2.419  62.767  39.914  0.00  0.00    -0.351 OA
BRANCH  35  36
ATOM     36  C2  VIA d   1       3.052  61.669  39.238  0.00  0.00     0.023 C 
ATOM     37  H15 VIA d   1       3.894  61.292  39.837  0.00  0.00     0.074 H 
ATOM     38  H16 VIA d   1       3.418  61.993  38.253  0.00  0.00     0.074 H 
BRANCH  36  39
ATOM     39  C1  VIA d   1       2.005  60.587  39.074  0.00  0.00    -0.056 C 
ATOM     40  H17 VIA d   1       2.449  59.723  38.558  0.00  0.00     0.030 H 
ATOM     41  H18 VIA d   1       1.165  60.977  38.480  0.00  0.00     0.030 H 
ATOM     42  H19 VIA d   1       1.641  60.276  40.064  0.00  0.00     0.030 H 
ENDBRANCH  36  39
ENDBRANCH  35  36
ENDBRANCH   6  35
BRANCH   3  43
ATOM     43  S10 VIA d   1      -1.539  66.566  37.558  0.00  0.00     0.261 S 
ATOM     44  O11 VIA d   1      -2.364  67.001  38.620  0.00  0.00    -0.200 OA
ATOM     45  O12 VIA d   1      -2.200  65.927  36.484  0.00  0.00    -0.200 OA
BRANCH  43  46
ATOM     46  N14 VIA d   1      -0.690  67.871  37.029  0.00  0.00    -0.304 N 
ATOM     47  C19 VIA d   1       0.144  68.653  37.919  0.00  0.00     0.028 C 
ATOM     48  C18 VIA d   1       0.401  70.111  37.466  0.00  0.00     0.098 C 
ATOM     49  H20 VIA d   1       1.117  68.147  38.007  0.00  0.00     0.067 H 
ATOM     50  H21 VIA d   1      -0.344  68.683  38.904  0.00  0.00     0.067 H 
ATOM     51  N17 VIA d   1       0.801  70.213  36.068  0.00  0.00    -0.072 N 
ATOM     52  H22 VIA d   1       1.200  70.536  38.091  0.00  0.00     0.078 H 
ATOM     53  H23 VIA d   1      -0.523  70.690  37.609  0.00  0.00     0.078 H 
ATOM     54  C16 VIA d   1      -0.145  69.545  35.197  0.00  0.00     0.098 C 
ATOM     55  H24 VIA d   1       1.658  69.687  35.994  0.00  0.00     0.279 HD
ATOM     56  C15 VIA d   1      -0.386  68.078  35.622  0.00  0.00     0.028 C 
ATOM     57  H28 VIA d   1       0.248  69.557  34.170  0.00  0.00     0.078 H 
ATOM     58  H29 VIA d   1      -1.102  70.086  35.230  0.00  0.00     0.078 H 
ATOM     59  H30 VIA d   1      -1.230  67.690  35.033  0.00  0.00     0.067 H 
ATOM     60  H31 VIA d   1       0.522  67.504  35.384  0.00  0.00     0.067 H 
BRANCH  51  61
ATOM     61  C20 VIA d   1       1.144  71.555  35.637  0.00  0.00     0.066 C 
ATOM     62  H25 VIA d   1       1.432  71.537  34.575  0.00  0.00     0.068 H 
ATOM     63  H26 VIA d   1       1.985  71.930  36.239  0.00  0.00     0.068 H 
ATOM     64  H27 VIA d   1       0.275  72.216  35.770  0.00  0.00     0.068 H 
ENDBRANCH  51  61
ENDBRANCH  43  46
ENDBRANCH   3  43
TORSDOF 11
