REMARK  12 active torsions:
REMARK  status: ('A' for Active; 'I' for Inactive)
REMARK    1  A    between atoms: C2_2  and  C1_1 
REMARK    2  A    between atoms: O3_3  and  C2_2 
REMARK    3  A    between atoms: C4_4  and  O3_3 
REMARK    4  A    between atoms: S10_10  and  C7_7 
REMARK    5  A    between atoms: C9_9  and  C21_21 
REMARK    6  A    between atoms: N14_14  and  S10_10 
REMARK    7  A    between atoms: C20_20  and  C13_13 
REMARK    8  A    between atoms: N17_17  and  C20_20 
REMARK    9  A    between atoms: C28_28  and  C31_31 
REMARK   10  A    between atoms: C30_30  and  C32_32 
REMARK   11  A    between atoms: C32_32  and  C33_33 
REMARK   12  A    between atoms: C33_33  and  C34_34 
ROOT
ATOM      1  C4  NON d   1      39.293   2.046  63.806  0.00  0.00     0.083 A 
ATOM      2  C5  NON d   1      37.907   2.069  64.066  0.00  0.00    -0.048 A 
ATOM      3  C6  NON d   1      37.316   1.133  64.928  0.00  0.00    -0.058 A 
ATOM      4  C7  NON d   1      38.114   0.153  65.540  0.00  0.00     0.080 A 
ATOM      5  C8  NON d   1      39.472   0.156  65.284  0.00  0.00    -0.044 A 
ATOM      6  C9  NON d   1      40.042   1.103  64.439  0.00  0.00     0.046 A 
ATOM      7  H6  NON d   1      37.288   2.822  63.592  0.00  0.00     0.087 H 
ATOM      8  H7  NON d   1      36.250   1.166  65.120  0.00  0.00     0.086 H 
ATOM      9  H8  NON d   1      40.104  -0.592  65.749  0.00  0.00     0.087 H 
ENDROOT
BRANCH   6  10
ATOM     10  C21 NON d   1      41.481   0.933  64.231  0.00  0.00     0.164 C 
ATOM     11  N22 NON d   1      42.182   1.462  63.041  0.00  0.00    -0.304 N 
ATOM     12  C23 NON d   1      43.522   1.607  63.103  0.00  0.00     0.278 C 
ATOM     13  H23 NON d   1      41.677   1.706  62.213  0.00  0.00     0.171 HD
ATOM     14  C24 NON d   1      44.155   1.427  64.441  0.00  0.00     0.150 A 
ATOM     15  O27 NON d   1      44.213   1.902  62.151  0.00  0.00    -0.265 OA
ATOM     16  N25 NON d   1      43.526   1.087  65.537  0.00  0.00    -0.212 N 
ATOM     17  C28 NON d   1      45.497   1.537  64.832  0.00  0.00     0.041 A 
ATOM     18  N26 NON d   1      42.167   0.917  65.505  0.00  0.00    -0.146 NA
ATOM     19  C30 NON d   1      44.274   0.959  66.617  0.00  0.00     0.106 A 
ATOM     20  N29 NON d   1      45.534   1.256  66.187  0.00  0.00    -0.346 N 
ATOM     21  H24 NON d   1      46.379   1.269  66.777  0.00  0.00     0.167 HD
BRANCH  19  22
ATOM     22  C32 NON d   1      43.820   0.556  67.988  0.00  0.00    -0.010 C 
ATOM     23  H28 NON d   1      44.469  -0.247  68.366  0.00  0.00     0.044 H 
ATOM     24  H29 NON d   1      42.782   0.196  67.938  0.00  0.00     0.044 H 
BRANCH  22  25
ATOM     25  C33 NON d   1      43.894   1.739  68.919  0.00  0.00    -0.062 C 
ATOM     26  H30 NON d   1      43.007   2.373  68.774  0.00  0.00     0.033 H 
ATOM     27  H31 NON d   1      44.800   2.321  68.697  0.00  0.00     0.033 H 
BRANCH  25  28
ATOM     28  C34 NON d   1      43.942   1.267  70.350  0.00  0.00    -0.076 C 
ATOM     29  H32 NON d   1      43.996   2.137  71.021  0.00  0.00     0.027 H 
ATOM     30  H33 NON d   1      44.830   0.634  70.498  0.00  0.00     0.027 H 
ATOM     31  H34 NON d   1      43.036   0.686  70.575  0.00  0.00     0.027 H 
ENDBRANCH  25  28
ENDBRANCH  22  25
ENDBRANCH  19  22
BRANCH  17  32
ATOM     32  C31 NON d   1      46.701   1.907  64.001  0.00  0.00    -0.035 C 
ATOM     33  H25 NON d   1      46.390   2.077  62.960  0.00  0.00     0.035 H 
ATOM     34  H26 NON d   1      47.435   1.089  64.035  0.00  0.00     0.035 H 
ATOM     35  H27 NON d   1      47.156   2.825  64.403  0.00  0.00     0.035 H 
ENDBRANCH  17  32
ENDBRANCH   6  10
BRANCH   1  36
ATOM     36  O3  NON d   1      39.937   2.922  62.974  0.00  0.00    -0.351 OA
BRANCH  36  37
ATOM     37  C2  NON d   1      39.189   3.436  61.896  0.00  0.00     0.023 C 
ATOM     38  H4  NON d   1      38.556   2.647  61.465  0.00  0.00     0.074 H 
ATOM     39  H5  NON d   1      38.556   4.268  62.238  0.00  0.00     0.074 H 
BRANCH  37  40
ATOM     40  C1  NON d   1      40.168   3.921  60.878  0.00  0.00    -0.056 C 
ATOM     41  H1  NON d   1      39.625   4.333  60.014  0.00  0.00     0.030 H 
ATOM     42  H2  NON d   1      40.800   3.083  60.548  0.00  0.00     0.030 H 
ATOM     43  H3  NON d   1      40.800   4.705  61.321  0.00  0.00     0.030 H 
ENDBRANCH  37  40
ENDBRANCH  36  37
ENDBRANCH   1  36
BRANCH   4  44
ATOM     44  S10 NON d   1      37.521  -0.969  66.530  0.00  0.00     0.261 S 
ATOM     45  O11 NON d   1      36.503  -1.686  65.793  0.00  0.00    -0.200 OA
ATOM     46  O12 NON d   1      38.583  -1.864  66.907  0.00  0.00    -0.200 OA
BRANCH  44  47
ATOM     47  N14 NON d   1      36.989  -0.221  67.761  0.00  0.00    -0.304 N 
ATOM     48  C15 NON d   1      37.934   0.644  68.450  0.00  0.00     0.028 C 
ATOM     49  C16 NON d   1      37.437   0.825  69.881  0.00  0.00     0.099 C 
ATOM     50  H12 NON d   1      37.986   1.620  67.945  0.00  0.00     0.067 H 
ATOM     51  H13 NON d   1      38.931   0.180  68.456  0.00  0.00     0.067 H 
ATOM     52  N17 NON d   1      36.031   1.223  69.858  0.00  0.00    -0.068 N 
ATOM     53  H14 NON d   1      38.031   1.604  70.380  0.00  0.00     0.078 H 
ATOM     54  H15 NON d   1      37.541  -0.123  70.429  0.00  0.00     0.078 H 
ATOM     55  C18 NON d   1      35.117   0.316  69.182  0.00  0.00     0.099 C 
ATOM     56  H16 NON d   1      36.063   1.987  69.202  0.00  0.00     0.280 HD
ATOM     57  C19 NON d   1      35.604   0.245  67.735  0.00  0.00     0.028 C 
ATOM     58  H17 NON d   1      34.089   0.706  69.222  0.00  0.00     0.078 H 
ATOM     59  H18 NON d   1      35.150  -0.680  69.648  0.00  0.00     0.078 H 
ATOM     60  H19 NON d   1      34.981  -0.459  67.163  0.00  0.00     0.067 H 
ATOM     61  H20 NON d   1      35.551   1.241  67.272  0.00  0.00     0.067 H 
BRANCH  52  62
ATOM     62  C20 NON d   1      35.506   1.905  71.048  0.00  0.00     0.080 C 
ATOM     63  H21 NON d   1      36.168   2.747  71.299  0.00  0.00     0.075 H 
ATOM     64  H22 NON d   1      34.498   2.285  70.827  0.00  0.00     0.075 H 
BRANCH  62  65
ATOM     65  C13 NON d   1      35.429   0.961  72.245  0.00  0.00    -0.053 C 
ATOM     66  H9  NON d   1      35.033   1.504  73.115  0.00  0.00     0.029 H 
ATOM     67  H10 NON d   1      36.435   0.580  72.477  0.00  0.00     0.029 H 
ATOM     68  H11 NON d   1      34.764   0.118  72.005  0.00  0.00     0.029 H 
ENDBRANCH  62  65
ENDBRANCH  52  62
ENDBRANCH  44  47
ENDBRANCH   4  44
TORSDOF 12
