REMARK  2 active torsions:
REMARK  status: ('A' for Active; 'I' for Inactive)
REMARK    1  A    between atoms: C13_10  and  C22_21 
REMARK    2  A    between atoms: N15_15  and  C18_20 
ROOT
ATOM      1  C3  CIA d   1      42.822  37.877  10.147  0.00  0.00    -0.081 A 
ATOM      2  C2  CIA d   1      42.966  38.273  11.504  0.00  0.00    -0.082 A 
ATOM      3  C1  CIA d   1      43.820  37.673  12.415  0.00  0.00    -0.070 A 
ATOM      4  C6  CIA d   1      44.567  36.604  11.890  0.00  0.00    -0.001 A 
ATOM      5  C7  CIA d   1      45.567  35.722  12.509  0.00  0.00    -0.018 A 
ATOM      6  C8  CIA d   1      45.950  34.878  11.518  0.00  0.00     0.045 A 
ATOM      7  N9  CIA d   1      45.307  35.145  10.396  0.00  0.00    -0.356 N 
ATOM      8  C5  CIA d   1      44.443  36.195  10.554  0.00  0.00     0.043 A 
ATOM      9  C4  CIA d   1      43.588  36.799   9.648  0.00  0.00    -0.056 A 
ATOM     10  C13 CIA d   1      46.964  33.834  11.772  0.00  0.00     0.082 C 
ATOM     11  N12 CIA d   1      47.258  33.575  13.171  0.00  0.00    -0.323 N 
ATOM     12  C17 CIA d   1      48.138  32.576  13.397  0.00  0.00     0.239 C 
ATOM     13  O20 CIA d   1      48.665  31.933  12.525  0.00  0.00    -0.271 OA
ATOM     14  C16 CIA d   1      48.493  32.240  14.776  0.00  0.00     0.071 C 
ATOM     15  N15 CIA d   1      48.126  33.180  15.835  0.00  0.00    -0.346 N 
ATOM     16  C31 CIA d   1      47.249  34.154  15.628  0.00  0.00     0.243 C 
ATOM     17  O32 CIA d   1      46.890  34.979  16.484  0.00  0.00    -0.271 OA
ATOM     18  C11 CIA d   1      46.630  34.309  14.275  0.00  0.00     0.097 C 
ATOM     19  C10 CIA d   1      46.097  35.702  13.915  0.00  0.00    -0.011 C 
ATOM     20  H1  CIA d   1      42.128  38.399   9.498  0.00  0.00     0.083 H 
ATOM     21  H2  CIA d   1      42.364  39.105  11.852  0.00  0.00     0.083 H 
ATOM     22  H3  CIA d   1      43.905  38.000  13.445  0.00  0.00     0.084 H 
ATOM     23  H4  CIA d   1      45.439  34.629   9.514  0.00  0.00     0.166 HD
ATOM     24  H5  CIA d   1      43.511  36.466   8.619  0.00  0.00     0.086 H 
ATOM     25  H6  CIA d   1      46.594  32.886  11.354  0.00  0.00     0.090 H 
ATOM     26  H7  CIA d   1      49.586  32.120  14.811  0.00  0.00     0.079 H 
ATOM     27  H8  CIA d   1      48.011  31.280  15.012  0.00  0.00     0.079 H 
ATOM     28  H9  CIA d   1      45.694  33.746  14.405  0.00  0.00     0.088 H 
ATOM     29  H10 CIA d   1      45.287  35.969  14.610  0.00  0.00     0.044 H 
ATOM     30  H11 CIA d   1      46.913  36.434  14.004  0.00  0.00     0.044 H 
ENDROOT
BRANCH  10  31
ATOM     31  C22 CIA d   1      48.206  34.298  10.934  0.00  0.00    -0.027 A 
ATOM     32  C27 CIA d   1      48.736  33.482   9.896  0.00  0.00    -0.072 A 
ATOM     33  C26 CIA d   1      49.822  33.841   9.128  0.00  0.00    -0.047 A 
ATOM     34  H15 CIA d   1      48.261  32.528   9.699  0.00  0.00     0.084 H 
ATOM     35  C25 CIA d   1      50.403  35.057   9.407  0.00  0.00     0.105 A 
ATOM     36  H16 CIA d   1      50.200  33.197   8.342  0.00  0.00     0.087 H 
ATOM     37  O30 CIA d   1      51.480  35.617   8.784  0.00  0.00    -0.323 OA
ATOM     38  C24 CIA d   1      49.930  35.868  10.390  0.00  0.00     0.105 A 
ATOM     39  C29 CIA d   1      51.808  36.690   9.660  0.00  0.00     0.115 C 
ATOM     40  O28 CIA d   1      50.658  37.027  10.491  0.00  0.00    -0.323 OA
ATOM     41  H17 CIA d   1      52.098  37.569   9.066  0.00  0.00     0.118 H 
ATOM     42  H18 CIA d   1      52.647  36.390  10.305  0.00  0.00     0.118 H 
ATOM     43  C23 CIA d   1      48.828  35.513  11.171  0.00  0.00    -0.039 A 
ATOM     44  H19 CIA d   1      48.466  36.176  11.948  0.00  0.00     0.088 H 
ENDBRANCH  10  31
BRANCH  15  45
ATOM     45  C18 CIA d   1      48.716  33.053  17.155  0.00  0.00    -0.015 C 
ATOM     46  H12 CIA d   1      48.321  33.843  17.811  0.00  0.00     0.056 H 
ATOM     47  H13 CIA d   1      49.809  33.152  17.079  0.00  0.00     0.056 H 
ATOM     48  H14 CIA d   1      48.465  32.068  17.576  0.00  0.00     0.056 H 
ENDBRANCH  15  45
TORSDOF 2
