REMARK  12 active torsions:
REMARK  status: ('A' for Active; 'I' for Inactive)
REMARK    1  A    between atoms: C2_2  and  C1_1 
REMARK    2  A    between atoms: O3_3  and  C2_2 
REMARK    3  A    between atoms: C4_4  and  O3_3 
REMARK    4  A    between atoms: S10_10  and  C7_7 
REMARK    5  A    between atoms: C9_9  and  C21_21 
REMARK    6  A    between atoms: N14_14  and  S10_10 
REMARK    7  A    between atoms: C20_20  and  C13_13 
REMARK    8  A    between atoms: N17_17  and  C20_20 
REMARK    9  A    between atoms: C28_28  and  C31_31 
REMARK   10  A    between atoms: C30_30  and  C32_32 
REMARK   11  A    between atoms: C32_32  and  C33_33 
REMARK   12  A    between atoms: C33_33  and  C34_34 
ROOT
ATOM      1  C4  VDN d   1     -20.679  27.647  60.532  0.00  0.00     0.083 A 
ATOM      2  C5  VDN d   1     -20.872  26.322  60.132  0.00  0.00    -0.048 A 
ATOM      3  C6  VDN d   1     -22.088  25.700  60.407  0.00  0.00    -0.058 A 
ATOM      4  C7  VDN d   1     -23.112  26.387  61.075  0.00  0.00     0.080 A 
ATOM      5  C8  VDN d   1     -22.903  27.707  61.474  0.00  0.00    -0.044 A 
ATOM      6  C9  VDN d   1     -21.710  28.336  61.166  0.00  0.00     0.046 A 
ATOM      7  H6  VDN d   1     -20.085  25.785  59.614  0.00  0.00     0.087 H 
ATOM      8  H7  VDN d   1     -22.245  24.672  60.101  0.00  0.00     0.086 H 
ATOM      9  H8  VDN d   1     -23.672  28.238  62.023  0.00  0.00     0.087 H 
ENDROOT
BRANCH   6  10
ATOM     10  C21 VDN d   1     -21.389  29.716  61.614  0.00  0.00     0.164 C 
ATOM     11  N22 VDN d   1     -21.038  30.726  60.643  0.00  0.00    -0.304 N 
ATOM     12  C23 VDN d   1     -20.995  32.029  60.921  0.00  0.00     0.278 C 
ATOM     13  H23 VDN d   1     -20.816  30.432  59.713  0.00  0.00     0.171 HD
ATOM     14  C24 VDN d   1     -21.536  32.397  62.243  0.00  0.00     0.150 A 
ATOM     15  O27 VDN d   1     -20.573  32.827  60.098  0.00  0.00    -0.265 OA
ATOM     16  N25 VDN d   1     -21.991  31.533  63.124  0.00  0.00    -0.212 N 
ATOM     17  C28 VDN d   1     -21.710  33.636  62.850  0.00  0.00     0.041 A 
ATOM     18  N26 VDN d   1     -22.038  30.181  62.807  0.00  0.00    -0.146 NA
ATOM     19  C30 VDN d   1     -22.461  32.057  64.225  0.00  0.00     0.106 A 
ATOM     20  N29 VDN d   1     -22.267  33.389  64.067  0.00  0.00    -0.346 N 
ATOM     21  H24 VDN d   1     -22.506  34.108  64.765  0.00  0.00     0.167 HD
BRANCH  19  22
ATOM     22  C32 VDN d   1     -23.018  31.324  65.410  0.00  0.00    -0.010 C 
ATOM     23  H28 VDN d   1     -23.753  30.578  65.075  0.00  0.00     0.044 H 
ATOM     24  H29 VDN d   1     -23.503  32.036  66.094  0.00  0.00     0.044 H 
BRANCH  22  25
ATOM     25  C33 VDN d   1     -21.860  30.626  66.124  0.00  0.00    -0.062 C 
ATOM     26  H30 VDN d   1     -21.122  31.373  66.452  0.00  0.00     0.033 H 
ATOM     27  H31 VDN d   1     -21.379  29.911  65.440  0.00  0.00     0.033 H 
BRANCH  25  28
ATOM     28  C34 VDN d   1     -22.410  29.892  67.324  0.00  0.00    -0.076 C 
ATOM     29  H32 VDN d   1     -21.589  29.383  67.850  0.00  0.00     0.027 H 
ATOM     30  H33 VDN d   1     -23.149  29.148  66.992  0.00  0.00     0.027 H 
ATOM     31  H34 VDN d   1     -22.892  30.610  68.004  0.00  0.00     0.027 H 
ENDBRANCH  25  28
ENDBRANCH  22  25
ENDBRANCH  19  22
BRANCH  17  32
ATOM     32  C31 VDN d   1     -21.384  35.007  62.325  0.00  0.00    -0.035 C 
ATOM     33  H25 VDN d   1     -20.944  34.920  61.321  0.00  0.00     0.035 H 
ATOM     34  H26 VDN d   1     -20.665  35.496  62.999  0.00  0.00     0.035 H 
ATOM     35  H27 VDN d   1     -22.304  35.608  62.271  0.00  0.00     0.035 H 
ENDBRANCH  17  32
ENDBRANCH   6  10
BRANCH   1  36
ATOM     36  O3  VDN d   1     -19.499  28.317  60.289  0.00  0.00    -0.351 OA
BRANCH  36  37
ATOM     37  C2  VDN d   1     -18.424  27.750  59.552  0.00  0.00     0.023 C 
ATOM     38  H4  VDN d   1     -18.048  26.859  60.077  0.00  0.00     0.074 H 
ATOM     39  H5  VDN d   1     -18.776  27.464  58.550  0.00  0.00     0.074 H 
BRANCH  37  40
ATOM     40  C1  VDN d   1     -17.311  28.769  59.425  0.00  0.00    -0.056 C 
ATOM     41  H1  VDN d   1     -16.478  28.333  58.855  0.00  0.00     0.030 H 
ATOM     42  H2  VDN d   1     -16.959  29.055  60.427  0.00  0.00     0.030 H 
ATOM     43  H3  VDN d   1     -17.687  29.660  58.901  0.00  0.00     0.030 H 
ENDBRANCH  37  40
ENDBRANCH  36  37
ENDBRANCH   1  36
BRANCH   4  44
ATOM     44  S10 VDN d   1     -24.513  25.683  61.421  0.00  0.00     0.261 S 
ATOM     45  O11 VDN d   1     -25.628  26.501  61.051  0.00  0.00    -0.200 OA
ATOM     46  O12 VDN d   1     -24.559  24.448  60.700  0.00  0.00    -0.200 OA
BRANCH  44  47
ATOM     47  N14 VDN d   1     -24.652  25.389  62.919  0.00  0.00    -0.304 N 
ATOM     48  C15 VDN d   1     -23.589  24.530  63.465  0.00  0.00     0.028 C 
ATOM     49  C16 VDN d   1     -23.701  24.352  64.968  0.00  0.00     0.099 C 
ATOM     50  H12 VDN d   1     -22.614  24.985  63.235  0.00  0.00     0.067 H 
ATOM     51  H13 VDN d   1     -23.654  23.541  62.987  0.00  0.00     0.067 H 
ATOM     52  N17 VDN d   1     -23.954  25.673  65.507  0.00  0.00    -0.068 N 
ATOM     53  H14 VDN d   1     -22.764  23.945  65.376  0.00  0.00     0.078 H 
ATOM     54  H15 VDN d   1     -24.532  23.674  65.212  0.00  0.00     0.078 H 
ATOM     55  C18 VDN d   1     -25.303  26.139  65.236  0.00  0.00     0.099 C 
ATOM     56  H16 VDN d   1     -23.398  26.267  64.912  0.00  0.00     0.280 HD
ATOM     57  C19 VDN d   1     -25.477  26.304  63.720  0.00  0.00     0.028 C 
ATOM     58  H17 VDN d   1     -25.466  27.106  65.734  0.00  0.00     0.078 H 
ATOM     59  H18 VDN d   1     -26.030  25.405  65.613  0.00  0.00     0.078 H 
ATOM     60  H19 VDN d   1     -26.533  26.124  63.472  0.00  0.00     0.067 H 
ATOM     61  H20 VDN d   1     -25.208  27.336  63.452  0.00  0.00     0.067 H 
BRANCH  52  62
ATOM     62  C20 VDN d   1     -23.380  25.948  66.820  0.00  0.00     0.080 C 
ATOM     63  H21 VDN d   1     -22.286  25.846  66.766  0.00  0.00     0.075 H 
ATOM     64  H22 VDN d   1     -23.638  26.974  67.121  0.00  0.00     0.075 H 
BRANCH  62  65
ATOM     65  C13 VDN d   1     -23.926  24.969  67.853  0.00  0.00    -0.053 C 
ATOM     66  H9  VDN d   1     -23.484  25.189  68.836  0.00  0.00     0.029 H 
ATOM     67  H10 VDN d   1     -23.668  23.942  67.557  0.00  0.00     0.029 H 
ATOM     68  H11 VDN d   1     -25.020  25.070  67.912  0.00  0.00     0.029 H 
ENDBRANCH  62  65
ENDBRANCH  52  62
ENDBRANCH  44  47
ENDBRANCH   4  44
TORSDOF 12
