REMARK  10 active torsions:
REMARK  status: ('A' for Active; 'I' for Inactive)
REMARK    1  A    between atoms: C1_1  and  C12_12 
REMARK    2  A    between atoms: C2_2  and  C19_19 
REMARK    3  A    between atoms: C7_7  and  O8_8 
REMARK    4  A    between atoms: C15_15  and  O16_16 
REMARK    5  A    between atoms: C22_22  and  O25_25 
REMARK    6  A    between atoms: O25_25  and  C26_26 
REMARK    7  A    between atoms: C26_26  and  C27_27 
REMARK    8  A    between atoms: C27_27  and  N28_28 
REMARK    9  A    between atoms: C30_30  and  C31_31 
REMARK   10  A    between atoms: C32_32  and  C33_33 
ROOT
ATOM      1  C19 AIH d   1      31.600  -1.796  26.874  0.00  0.00    -0.027 A 
ATOM      2  C20 AIH d   1      32.598  -2.767  26.602  0.00  0.00    -0.072 A 
ATOM      3  C21 AIH d   1      33.038  -3.036  25.301  0.00  0.00    -0.050 A 
ATOM      4  C22 AIH d   1      32.428  -2.341  24.225  0.00  0.00     0.068 A 
ATOM      5  C23 AIH d   1      31.472  -1.381  24.485  0.00  0.00    -0.050 A 
ATOM      6  C24 AIH d   1      31.049  -1.088  25.819  0.00  0.00    -0.072 A 
ATOM      7  H12 AIH d   1      33.033  -3.318  27.428  0.00  0.00     0.084 H 
ATOM      8  H13 AIH d   1      33.826  -3.758  25.120  0.00  0.00     0.087 H 
ATOM      9  H14 AIH d   1      31.031  -0.836  23.658  0.00  0.00     0.087 H 
ATOM     10  H15 AIH d   1      30.306  -0.321  26.002  0.00  0.00     0.084 H 
ENDROOT
BRANCH   1  11
ATOM     11  C2  AIH d   1      31.229  -1.602  28.354  0.00  0.00     0.086 C 
ATOM     12  C1  AIH d   1      31.020  -0.159  28.883  0.00  0.00     0.050 C 
ATOM     13  S11 AIH d   1      29.485   0.535  28.271  0.00  0.00    -0.114 SA
ATOM     14  H1  AIH d   1      30.919  -0.196  29.978  0.00  0.00     0.069 H 
ATOM     15  C10 AIH d   1      28.471  -0.533  27.900  0.00  0.00     0.037 A 
ATOM     16  C4  AIH d   1      28.787  -1.902  28.125  0.00  0.00     0.086 A 
ATOM     17  C9  AIH d   1      27.176  -0.226  27.485  0.00  0.00    -0.032 A 
ATOM     18  O3  AIH d   1      29.999  -2.326  28.603  0.00  0.00    -0.338 OA
ATOM     19  C5  AIH d   1      27.877  -2.901  27.817  0.00  0.00    -0.047 A 
ATOM     20  C6  AIH d   1      26.620  -2.596  27.297  0.00  0.00    -0.048 A 
ATOM     21  H3  AIH d   1      28.147  -3.938  27.983  0.00  0.00     0.087 H 
ATOM     22  C7  AIH d   1      26.251  -1.229  27.161  0.00  0.00     0.067 A 
ATOM     23  H4  AIH d   1      25.937  -3.385  27.002  0.00  0.00     0.087 H 
ATOM     24  H6  AIH d   1      26.877   0.813  27.411  0.00  0.00     0.089 H 
ATOM     25  H2  AIH d   1      32.039  -2.049  28.948  0.00  0.00     0.094 H 
BRANCH  12  26
ATOM     26  C12 AIH d   1      32.321   0.557  28.581  0.00  0.00    -0.041 A 
ATOM     27  C13 AIH d   1      32.528   1.364  27.455  0.00  0.00    -0.073 A 
ATOM     28  C14 AIH d   1      33.790   1.961  27.325  0.00  0.00    -0.051 A 
ATOM     29  H7  AIH d   1      31.748   1.520  26.718  0.00  0.00     0.084 H 
ATOM     30  C15 AIH d   1      34.818   1.746  28.277  0.00  0.00     0.065 A 
ATOM     31  H8  AIH d   1      33.985   2.604  26.474  0.00  0.00     0.087 H 
ATOM     32  C17 AIH d   1      34.602   0.947  29.406  0.00  0.00    -0.051 A 
ATOM     33  C18 AIH d   1      33.332   0.342  29.531  0.00  0.00    -0.073 A 
ATOM     34  H10 AIH d   1      35.375   0.799  30.151  0.00  0.00     0.087 H 
ATOM     35  H11 AIH d   1      33.133  -0.303  30.380  0.00  0.00     0.084 H 
BRANCH  30  36
ATOM     36  O16 AIH d   1      36.036   2.308  28.108  0.00  0.00    -0.361 OA
ATOM     37  H9  AIH d   1      36.600   2.063  28.832  0.00  0.00     0.217 HD
ENDBRANCH  30  36
ENDBRANCH  12  26
BRANCH  22  38
ATOM     38  O8  AIH d   1      25.010  -0.983  26.658  0.00  0.00    -0.361 OA
ATOM     39  H5  AIH d   1      24.942  -1.359  25.788  0.00  0.00     0.217 HD
ENDBRANCH  22  38
ENDBRANCH   1  11
BRANCH   4  40
ATOM     40  O25 AIH d   1      32.832  -2.575  22.951  0.00  0.00    -0.350 OA
BRANCH  40  41
ATOM     41  C26 AIH d   1      33.662  -3.702  22.619  0.00  0.00     0.049 C 
ATOM     42  H16 AIH d   1      33.193  -4.622  22.997  0.00  0.00     0.077 H 
ATOM     43  H17 AIH d   1      34.650  -3.575  23.086  0.00  0.00     0.077 H 
BRANCH  41  44
ATOM     44  C27 AIH d   1      33.833  -3.810  21.091  0.00  0.00     0.103 C 
ATOM     45  H18 AIH d   1      34.520  -4.645  20.890  0.00  0.00     0.079 H 
ATOM     46  H19 AIH d   1      34.284  -2.871  20.738  0.00  0.00     0.079 H 
BRANCH  44  47
ATOM     47  N28 AIH d   1      32.600  -4.042  20.300  0.00  0.00    -0.068 N 
ATOM     48  C29 AIH d   1      33.051  -4.028  18.888  0.00  0.00     0.087 C 
ATOM     49  C30 AIH d   1      31.712  -3.861  18.138  0.00  0.00    -0.030 C 
ATOM     50  H21 AIH d   1      33.549  -4.970  18.616  0.00  0.00     0.076 H 
ATOM     51  H22 AIH d   1      33.729  -3.185  18.691  0.00  0.00     0.076 H 
ATOM     52  C32 AIH d   1      31.120  -2.676  18.919  0.00  0.00    -0.030 C 
ATOM     53  H23 AIH d   1      31.085  -4.758  18.248  0.00  0.00     0.042 H 
ATOM     54  C34 AIH d   1      31.611  -2.936  20.369  0.00  0.00     0.087 C 
ATOM     55  H27 AIH d   1      31.512  -1.718  18.546  0.00  0.00     0.042 H 
ATOM     56  H31 AIH d   1      32.085  -2.030  20.776  0.00  0.00     0.076 H 
ATOM     57  H32 AIH d   1      30.764  -3.226  21.009  0.00  0.00     0.076 H 
ATOM     58  H20 AIH d   1      32.173  -4.917  20.562  0.00  0.00     0.280 HD
BRANCH  49  59
ATOM     59  C31 AIH d   1      31.886  -3.574  16.646  0.00  0.00    -0.071 C 
ATOM     60  H24 AIH d   1      30.898  -3.467  16.175  0.00  0.00     0.028 H 
ATOM     61  H25 AIH d   1      32.429  -4.406  16.173  0.00  0.00     0.028 H 
ATOM     62  H26 AIH d   1      32.457  -2.643  16.516  0.00  0.00     0.028 H 
ENDBRANCH  49  59
BRANCH  52  63
ATOM     63  C33 AIH d   1      29.596  -2.678  18.789  0.00  0.00    -0.071 C 
ATOM     64  H28 AIH d   1      29.179  -1.828  19.350  0.00  0.00     0.028 H 
ATOM     65  H29 AIH d   1      29.195  -3.618  19.196  0.00  0.00     0.028 H 
ATOM     66  H30 AIH d   1      29.318  -2.589  17.728  0.00  0.00     0.028 H 
ENDBRANCH  52  63
ENDBRANCH  44  47
ENDBRANCH  41  44
ENDBRANCH  40  41
ENDBRANCH   4  40
TORSDOF 10
