REMARK  10 active torsions:
REMARK  status: ('A' for Active; 'I' for Inactive)
REMARK    1  A    between atoms: C1_1  and  C12_12 
REMARK    2  A    between atoms: C2_2  and  C19_19 
REMARK    3  A    between atoms: C7_7  and  O8_8 
REMARK    4  A    between atoms: C15_15  and  O16_16 
REMARK    5  A    between atoms: C22_22  and  O25_25 
REMARK    6  A    between atoms: O25_25  and  C26_26 
REMARK    7  A    between atoms: C26_26  and  C27_27 
REMARK    8  A    between atoms: C27_27  and  N28_28 
REMARK    9  A    between atoms: C30_30  and  C31_31 
REMARK   10  A    between atoms: C32_32  and  C33_33 
ROOT
ATOM      1  C19 AIU d   1      31.576  -1.841  26.763  0.00  0.00    -0.027 A 
ATOM      2  C20 AIU d   1      32.499  -2.861  26.462  0.00  0.00    -0.072 A 
ATOM      3  C21 AIU d   1      32.886  -3.141  25.130  0.00  0.00    -0.050 A 
ATOM      4  C22 AIU d   1      32.338  -2.408  24.067  0.00  0.00     0.068 A 
ATOM      5  C23 AIU d   1      31.457  -1.375  24.362  0.00  0.00    -0.050 A 
ATOM      6  C24 AIU d   1      31.055  -1.117  25.686  0.00  0.00    -0.072 A 
ATOM      7  H12 AIU d   1      32.923  -3.446  27.270  0.00  0.00     0.084 H 
ATOM      8  H13 AIU d   1      33.608  -3.924  24.930  0.00  0.00     0.087 H 
ATOM      9  H14 AIU d   1      31.073  -0.757  23.559  0.00  0.00     0.087 H 
ATOM     10  H15 AIU d   1      30.324  -0.339  25.875  0.00  0.00     0.084 H 
ENDROOT
BRANCH   1  11
ATOM     11  C2  AIU d   1      31.225  -1.634  28.242  0.00  0.00     0.086 C 
ATOM     12  C1  AIU d   1      31.027  -0.190  28.783  0.00  0.00     0.050 C 
ATOM     13  S11 AIU d   1      29.502   0.553  28.175  0.00  0.00    -0.114 SA
ATOM     14  H1  AIU d   1      30.923  -0.240  29.877  0.00  0.00     0.069 H 
ATOM     15  C10 AIU d   1      28.485  -0.553  27.891  0.00  0.00     0.037 A 
ATOM     16  C4  AIU d   1      28.801  -1.919  28.051  0.00  0.00     0.086 A 
ATOM     17  C9  AIU d   1      27.190  -0.255  27.460  0.00  0.00    -0.032 A 
ATOM     18  O3  AIU d   1      30.021  -2.383  28.507  0.00  0.00    -0.338 OA
ATOM     19  C5  AIU d   1      27.890  -2.928  27.753  0.00  0.00    -0.047 A 
ATOM     20  C6  AIU d   1      26.611  -2.636  27.266  0.00  0.00    -0.048 A 
ATOM     21  H3  AIU d   1      28.177  -3.963  27.901  0.00  0.00     0.087 H 
ATOM     22  C7  AIU d   1      26.266  -1.264  27.136  0.00  0.00     0.067 A 
ATOM     23  H4  AIU d   1      25.914  -3.422  27.000  0.00  0.00     0.087 H 
ATOM     24  H6  AIU d   1      26.889   0.783  27.373  0.00  0.00     0.089 H 
ATOM     25  H2  AIU d   1      32.050  -2.072  28.823  0.00  0.00     0.094 H 
BRANCH  12  26
ATOM     26  C12 AIU d   1      32.333   0.529  28.488  0.00  0.00    -0.041 A 
ATOM     27  C13 AIU d   1      32.504   1.373  27.377  0.00  0.00    -0.073 A 
ATOM     28  C14 AIU d   1      33.760   1.973  27.217  0.00  0.00    -0.051 A 
ATOM     29  H7  AIU d   1      31.698   1.552  26.674  0.00  0.00     0.084 H 
ATOM     30  C15 AIU d   1      34.785   1.727  28.148  0.00  0.00     0.065 A 
ATOM     31  H8  AIU d   1      33.942   2.629  26.373  0.00  0.00     0.087 H 
ATOM     32  C17 AIU d   1      34.596   0.902  29.272  0.00  0.00    -0.051 A 
ATOM     33  C18 AIU d   1      33.344   0.294  29.433  0.00  0.00    -0.073 A 
ATOM     34  H10 AIU d   1      35.393   0.742  29.990  0.00  0.00     0.087 H 
ATOM     35  H11 AIU d   1      33.157  -0.354  30.282  0.00  0.00     0.084 H 
BRANCH  30  36
ATOM     36  O16 AIU d   1      36.015   2.243  27.946  0.00  0.00    -0.361 OA
ATOM     37  H9  AIU d   1      36.586   1.986  28.660  0.00  0.00     0.217 HD
ENDBRANCH  30  36
ENDBRANCH  12  26
BRANCH  22  38
ATOM     38  O8  AIU d   1      25.040  -0.970  26.645  0.00  0.00    -0.361 OA
ATOM     39  H5  AIU d   1      24.954  -1.334  25.772  0.00  0.00     0.217 HD
ENDBRANCH  22  38
ENDBRANCH   1  11
BRANCH   4  40
ATOM     40  O25 AIU d   1      32.720  -2.610  22.779  0.00  0.00    -0.350 OA
BRANCH  40  41
ATOM     41  C26 AIU d   1      33.395  -3.834  22.439  0.00  0.00     0.049 C 
ATOM     42  H16 AIU d   1      32.727  -4.674  22.679  0.00  0.00     0.077 H 
ATOM     43  H17 AIU d   1      34.308  -3.905  23.049  0.00  0.00     0.077 H 
BRANCH  41  44
ATOM     44  C27 AIU d   1      33.795  -3.944  20.958  0.00  0.00     0.103 C 
ATOM     45  H18 AIU d   1      34.444  -4.826  20.850  0.00  0.00     0.079 H 
ATOM     46  H19 AIU d   1      34.361  -3.038  20.695  0.00  0.00     0.079 H 
BRANCH  44  47
ATOM     47  N28 AIU d   1      32.691  -4.079  19.994  0.00  0.00    -0.068 N 
ATOM     48  C29 AIU d   1      33.330  -4.129  18.654  0.00  0.00     0.087 C 
ATOM     49  C30 AIU d   1      32.284  -3.557  17.670  0.00  0.00    -0.030 C 
ATOM     50  H21 AIU d   1      33.581  -5.166  18.387  0.00  0.00     0.076 H 
ATOM     51  H22 AIU d   1      34.243  -3.516  18.642  0.00  0.00     0.076 H 
ATOM     52  C32 AIU d   1      31.098  -3.178  18.579  0.00  0.00    -0.030 C 
ATOM     53  H23 AIU d   1      32.684  -2.680  17.140  0.00  0.00     0.042 H 
ATOM     54  C34 AIU d   1      31.799  -2.900  19.922  0.00  0.00     0.087 C 
ATOM     55  H27 AIU d   1      30.407  -4.027  18.687  0.00  0.00     0.042 H 
ATOM     56  H31 AIU d   1      32.367  -1.959  19.899  0.00  0.00     0.076 H 
ATOM     57  H32 AIU d   1      31.085  -2.877  20.758  0.00  0.00     0.076 H 
ATOM     58  H20 AIU d   1      32.158  -4.911  20.193  0.00  0.00     0.280 HD
BRANCH  49  59
ATOM     59  C31 AIU d   1      31.808  -4.613  16.650  0.00  0.00    -0.071 C 
ATOM     60  H24 AIU d   1      31.067  -4.162  15.973  0.00  0.00     0.028 H 
ATOM     61  H25 AIU d   1      31.349  -5.458  17.184  0.00  0.00     0.028 H 
ATOM     62  H26 AIU d   1      32.668  -4.972  16.065  0.00  0.00     0.028 H 
ENDBRANCH  49  59
BRANCH  52  63
ATOM     63  C33 AIU d   1      30.309  -1.993  18.010  0.00  0.00    -0.071 C 
ATOM     64  H28 AIU d   1      29.473  -1.752  18.683  0.00  0.00     0.028 H 
ATOM     65  H29 AIU d   1      29.916  -2.257  17.017  0.00  0.00     0.028 H 
ATOM     66  H30 AIU d   1      30.972  -1.120  17.921  0.00  0.00     0.028 H 
ENDBRANCH  52  63
ENDBRANCH  44  47
ENDBRANCH  41  44
ENDBRANCH  40  41
ENDBRANCH   4  40
TORSDOF 10
