REMARK  9 active torsions:
REMARK  status: ('A' for Active; 'I' for Inactive)
REMARK    1  A    between atoms: C1_1  and  C12_12 
REMARK    2  A    between atoms: C2_2  and  C19_19 
REMARK    3  A    between atoms: C7_7  and  O8_8 
REMARK    4  A    between atoms: C15_15  and  O16_16 
REMARK    5  A    between atoms: C22_22  and  O25_25 
REMARK    6  A    between atoms: O25_25  and  C26_26 
REMARK    7  A    between atoms: C26_26  and  C27_27 
REMARK    8  A    between atoms: C27_27  and  C28_28 
REMARK    9  A    between atoms: C27_27  and  N29_29 
ROOT
ATOM      1  C19 AIJ d   1      31.652  -1.924  26.684  0.00  0.00    -0.027 A 
ATOM      2  C20 AIJ d   1      32.495  -2.986  26.336  0.00  0.00    -0.072 A 
ATOM      3  C21 AIJ d   1      32.872  -3.265  25.001  0.00  0.00    -0.050 A 
ATOM      4  C22 AIJ d   1      32.411  -2.452  23.948  0.00  0.00     0.068 A 
ATOM      5  C23 AIJ d   1      31.563  -1.383  24.309  0.00  0.00    -0.050 A 
ATOM      6  C24 AIJ d   1      31.184  -1.126  25.630  0.00  0.00    -0.072 A 
ATOM      7  H12 AIJ d   1      32.876  -3.624  27.125  0.00  0.00     0.084 H 
ATOM      8  H13 AIJ d   1      33.519  -4.109  24.788  0.00  0.00     0.087 H 
ATOM      9  H14 AIJ d   1      31.189  -0.732  23.527  0.00  0.00     0.087 H 
ATOM     10  H15 AIJ d   1      30.518  -0.297  25.843  0.00  0.00     0.084 H 
ENDROOT
BRANCH   1  11
ATOM     11  C2  AIJ d   1      31.295  -1.719  28.153  0.00  0.00     0.086 C 
ATOM     12  C1  AIJ d   1      31.136  -0.285  28.694  0.00  0.00     0.050 C 
ATOM     13  S11 AIJ d   1      29.623   0.454  28.071  0.00  0.00    -0.114 SA
ATOM     14  H1  AIJ d   1      31.027  -0.337  29.787  0.00  0.00     0.069 H 
ATOM     15  C10 AIJ d   1      28.593  -0.626  27.734  0.00  0.00     0.037 A 
ATOM     16  C4  AIJ d   1      28.869  -1.985  27.952  0.00  0.00     0.086 A 
ATOM     17  C9  AIJ d   1      27.291  -0.312  27.351  0.00  0.00    -0.032 A 
ATOM     18  O3  AIJ d   1      30.063  -2.437  28.404  0.00  0.00    -0.338 OA
ATOM     19  C5  AIJ d   1      27.944  -2.991  27.660  0.00  0.00    -0.047 A 
ATOM     20  C6  AIJ d   1      26.693  -2.655  27.163  0.00  0.00    -0.048 A 
ATOM     21  H3  AIJ d   1      28.203  -4.031  27.821  0.00  0.00     0.087 H 
ATOM     22  C7  AIJ d   1      26.351  -1.302  27.059  0.00  0.00     0.067 A 
ATOM     23  H4  AIJ d   1      25.994  -3.426  26.861  0.00  0.00     0.087 H 
ATOM     24  H6  AIJ d   1      27.000   0.730  27.278  0.00  0.00     0.089 H 
ATOM     25  H2  AIJ d   1      32.101  -2.184  28.739  0.00  0.00     0.094 H 
BRANCH  12  26
ATOM     26  C12 AIJ d   1      32.433   0.438  28.415  0.00  0.00    -0.041 A 
ATOM     27  C13 AIJ d   1      32.662   1.284  27.315  0.00  0.00    -0.073 A 
ATOM     28  C14 AIJ d   1      33.910   1.873  27.147  0.00  0.00    -0.051 A 
ATOM     29  H7  AIJ d   1      31.869   1.476  26.601  0.00  0.00     0.084 H 
ATOM     30  C15 AIJ d   1      34.942   1.648  28.087  0.00  0.00     0.065 A 
ATOM     31  H8  AIJ d   1      34.093   2.510  26.289  0.00  0.00     0.087 H 
ATOM     32  C17 AIJ d   1      34.710   0.831  29.204  0.00  0.00    -0.051 A 
ATOM     33  C18 AIJ d   1      33.453   0.237  29.356  0.00  0.00    -0.073 A 
ATOM     34  H10 AIJ d   1      35.491   0.663  29.936  0.00  0.00     0.087 H 
ATOM     35  H11 AIJ d   1      33.263  -0.392  30.219  0.00  0.00     0.084 H 
BRANCH  30  36
ATOM     36  O16 AIJ d   1      36.145   2.238  27.974  0.00  0.00    -0.361 OA
ATOM     37  H9  AIJ d   1      36.700   1.965  28.695  0.00  0.00     0.217 HD
ENDBRANCH  30  36
ENDBRANCH  12  26
BRANCH  22  38
ATOM     38  O8  AIJ d   1      25.129  -1.005  26.570  0.00  0.00    -0.361 OA
ATOM     39  H5  AIJ d   1      25.048  -1.354  25.690  0.00  0.00     0.217 HD
ENDBRANCH  22  38
ENDBRANCH   1  11
BRANCH   4  40
ATOM     40  O25 AIJ d   1      32.762  -2.646  22.635  0.00  0.00    -0.349 OA
BRANCH  40  41
ATOM     41  C26 AIJ d   1      33.363  -3.918  22.285  0.00  0.00     0.052 C 
ATOM     42  H16 AIJ d   1      32.629  -4.704  22.516  0.00  0.00     0.078 H 
ATOM     43  H17 AIJ d   1      34.252  -4.048  22.920  0.00  0.00     0.078 H 
BRANCH  41  44
ATOM     44  C27 AIJ d   1      33.817  -4.122  20.790  0.00  0.00     0.121 C 
ATOM     45  H18 AIJ d   1      34.441  -5.023  20.697  0.00  0.00     0.087 H 
BRANCH  44  46
ATOM     46  C28 AIJ d   1      34.627  -2.860  20.595  0.00  0.00    -0.047 C 
ATOM     47  H19 AIJ d   1      35.032  -2.838  19.572  0.00  0.00     0.030 H 
ATOM     48  H20 AIJ d   1      35.456  -2.841  21.318  0.00  0.00     0.030 H 
ATOM     49  H21 AIJ d   1      33.983  -1.983  20.753  0.00  0.00     0.030 H 
ENDBRANCH  44  46
BRANCH  44  50
ATOM     50  N29 AIJ d   1      32.716  -4.202  19.773  0.00  0.00    -0.065 N 
ATOM     51  C30 AIJ d   1      33.052  -3.917  18.330  0.00  0.00     0.084 C 
ATOM     52  C31 AIJ d   1      31.755  -3.347  17.677  0.00  0.00    -0.041 C 
ATOM     53  H23 AIJ d   1      33.358  -4.843  17.821  0.00  0.00     0.076 H 
ATOM     54  H24 AIJ d   1      33.865  -3.178  18.268  0.00  0.00     0.076 H 
ATOM     55  C32 AIJ d   1      30.756  -3.312  18.849  0.00  0.00    -0.041 C 
ATOM     56  H25 AIJ d   1      31.396  -4.006  16.873  0.00  0.00     0.035 H 
ATOM     57  H26 AIJ d   1      31.927  -2.338  17.275  0.00  0.00     0.035 H 
ATOM     58  C33 AIJ d   1      31.669  -3.235  20.084  0.00  0.00     0.084 C 
ATOM     59  H27 AIJ d   1      30.140  -4.223  18.870  0.00  0.00     0.035 H 
ATOM     60  H28 AIJ d   1      30.103  -2.429  18.785  0.00  0.00     0.035 H 
ATOM     61  H29 AIJ d   1      32.086  -2.225  20.206  0.00  0.00     0.076 H 
ATOM     62  H30 AIJ d   1      31.125  -3.520  20.997  0.00  0.00     0.076 H 
ATOM     63  H22 AIJ d   1      32.340  -5.136  19.826  0.00  0.00     0.280 HD
ENDBRANCH  44  50
ENDBRANCH  41  44
ENDBRANCH  40  41
ENDBRANCH   4  40
TORSDOF 9
