REMARK  9 active torsions:
REMARK  status: ('A' for Active; 'I' for Inactive)
REMARK    1  A    between atoms: C1_1  and  C12_12 
REMARK    2  A    between atoms: C2_2  and  C19_19 
REMARK    3  A    between atoms: C7_7  and  O8_8 
REMARK    4  A    between atoms: C15_15  and  O16_16 
REMARK    5  A    between atoms: C22_22  and  O25_25 
REMARK    6  A    between atoms: O25_25  and  C26_26 
REMARK    7  A    between atoms: C26_26  and  C27_27 
REMARK    8  A    between atoms: C27_27  and  C28_28 
REMARK    9  A    between atoms: C27_27  and  N29_29 
ROOT
ATOM      1  C19 AIT d   1      31.705  -1.873  26.820  0.00  0.00    -0.027 A 
ATOM      2  C20 AIT d   1      32.608  -2.871  26.435  0.00  0.00    -0.072 A 
ATOM      3  C21 AIT d   1      32.989  -3.136  25.101  0.00  0.00    -0.050 A 
ATOM      4  C22 AIT d   1      32.495  -2.305  24.090  0.00  0.00     0.068 A 
ATOM      5  C23 AIT d   1      31.595  -1.290  24.458  0.00  0.00    -0.050 A 
ATOM      6  C24 AIT d   1      31.188  -1.092  25.767  0.00  0.00    -0.072 A 
ATOM      7  H12 AIT d   1      33.045  -3.483  27.215  0.00  0.00     0.084 H 
ATOM      8  H13 AIT d   1      33.648  -3.964  24.866  0.00  0.00     0.087 H 
ATOM      9  H14 AIT d   1      31.204  -0.636  23.687  0.00  0.00     0.087 H 
ATOM     10  H15 AIT d   1      30.458  -0.321  25.986  0.00  0.00     0.084 H 
ENDROOT
BRANCH   1  11
ATOM     11  C2  AIT d   1      31.356  -1.721  28.289  0.00  0.00     0.086 C 
ATOM     12  C1  AIT d   1      31.236  -0.323  28.913  0.00  0.00     0.050 C 
ATOM     13  S11 AIT d   1      29.720   0.483  28.356  0.00  0.00    -0.114 SA
ATOM     14  H1  AIT d   1      31.151  -0.429  30.005  0.00  0.00     0.069 H 
ATOM     15  C10 AIT d   1      28.676  -0.587  27.984  0.00  0.00     0.037 A 
ATOM     16  C4  AIT d   1      28.957  -1.955  28.101  0.00  0.00     0.086 A 
ATOM     17  C9  AIT d   1      27.386  -0.250  27.554  0.00  0.00    -0.032 A 
ATOM     18  O3  AIT d   1      30.137  -2.473  28.544  0.00  0.00    -0.338 OA
ATOM     19  C5  AIT d   1      28.057  -2.972  27.751  0.00  0.00    -0.047 A 
ATOM     20  C6  AIT d   1      26.816  -2.612  27.291  0.00  0.00    -0.048 A 
ATOM     21  H3  AIT d   1      28.335  -4.016  27.842  0.00  0.00     0.087 H 
ATOM     22  C7  AIT d   1      26.485  -1.249  27.158  0.00  0.00     0.067 A 
ATOM     23  H4  AIT d   1      26.091  -3.375  27.030  0.00  0.00     0.087 H 
ATOM     24  H6  AIT d   1      27.082   0.790  27.527  0.00  0.00     0.089 H 
ATOM     25  H2  AIT d   1      32.172  -2.213  28.837  0.00  0.00     0.094 H 
BRANCH  12  26
ATOM     26  C12 AIT d   1      32.545   0.383  28.630  0.00  0.00    -0.041 A 
ATOM     27  C13 AIT d   1      32.740   1.243  27.538  0.00  0.00    -0.073 A 
ATOM     28  C14 AIT d   1      33.997   1.825  27.360  0.00  0.00    -0.051 A 
ATOM     29  H7  AIT d   1      31.931   1.451  26.847  0.00  0.00     0.084 H 
ATOM     30  C15 AIT d   1      35.061   1.584  28.253  0.00  0.00     0.065 A 
ATOM     31  H8  AIT d   1      34.159   2.480  26.512  0.00  0.00     0.087 H 
ATOM     32  C17 AIT d   1      34.861   0.737  29.356  0.00  0.00    -0.051 A 
ATOM     33  C18 AIT d   1      33.591   0.175  29.528  0.00  0.00    -0.073 A 
ATOM     34  H10 AIT d   1      35.665   0.526  30.052  0.00  0.00     0.087 H 
ATOM     35  H11 AIT d   1      33.413  -0.449  30.396  0.00  0.00     0.084 H 
BRANCH  30  36
ATOM     36  O16 AIT d   1      36.277   2.150  28.098  0.00  0.00    -0.361 OA
ATOM     37  H9  AIT d   1      36.850   1.863  28.799  0.00  0.00     0.217 HD
ENDBRANCH  30  36
ENDBRANCH  12  26
BRANCH  22  38
ATOM     38  O8  AIT d   1      25.224  -1.018  26.753  0.00  0.00    -0.361 OA
ATOM     39  H5  AIT d   1      25.087  -1.420  25.903  0.00  0.00     0.217 HD
ENDBRANCH  22  38
ENDBRANCH   1  11
BRANCH   4  40
ATOM     40  O25 AIT d   1      32.788  -2.467  22.787  0.00  0.00    -0.349 OA
BRANCH  40  41
ATOM     41  C26 AIT d   1      33.298  -3.729  22.321  0.00  0.00     0.052 C 
ATOM     42  H16 AIT d   1      32.522  -4.498  22.453  0.00  0.00     0.078 H 
ATOM     43  H17 AIT d   1      34.184  -3.997  22.915  0.00  0.00     0.078 H 
BRANCH  41  44
ATOM     44  C27 AIT d   1      33.697  -3.668  20.822  0.00  0.00     0.121 C 
ATOM     45  H18 AIT d   1      34.191  -2.710  20.601  0.00  0.00     0.087 H 
BRANCH  44  46
ATOM     46  C28 AIT d   1      34.626  -4.843  20.606  0.00  0.00    -0.047 C 
ATOM     47  H19 AIT d   1      34.953  -4.864  19.556  0.00  0.00     0.030 H 
ATOM     48  H20 AIT d   1      34.097  -5.777  20.844  0.00  0.00     0.030 H 
ATOM     49  H21 AIT d   1      35.504  -4.742  21.261  0.00  0.00     0.030 H 
ENDBRANCH  44  46
BRANCH  44  50
ATOM     50  N29 AIT d   1      32.571  -3.881  19.896  0.00  0.00    -0.065 N 
ATOM     51  C30 AIT d   1      32.706  -3.184  18.588  0.00  0.00     0.084 C 
ATOM     52  C31 AIT d   1      31.264  -2.908  18.105  0.00  0.00    -0.041 C 
ATOM     53  H23 AIT d   1      33.236  -3.824  17.866  0.00  0.00     0.076 H 
ATOM     54  H24 AIT d   1      33.255  -2.239  18.713  0.00  0.00     0.076 H 
ATOM     55  C32 AIT d   1      30.374  -3.451  19.222  0.00  0.00    -0.041 C 
ATOM     56  H25 AIT d   1      31.064  -3.433  17.159  0.00  0.00     0.035 H 
ATOM     57  H26 AIT d   1      31.100  -1.829  17.968  0.00  0.00     0.035 H 
ATOM     58  C33 AIT d   1      31.325  -3.359  20.448  0.00  0.00     0.084 C 
ATOM     59  H27 AIT d   1      30.071  -4.490  19.025  0.00  0.00     0.035 H 
ATOM     60  H28 AIT d   1      29.478  -2.828  19.361  0.00  0.00     0.035 H 
ATOM     61  H29 AIT d   1      31.442  -2.319  20.788  0.00  0.00     0.076 H 
ATOM     62  H30 AIT d   1      30.965  -3.979  21.282  0.00  0.00     0.076 H 
ATOM     63  H22 AIT d   1      32.486  -4.873  19.736  0.00  0.00     0.280 HD
ENDBRANCH  44  50
ENDBRANCH  41  44
ENDBRANCH  40  41
ENDBRANCH   4  40
TORSDOF 9
