REMARK  4 active torsions:
REMARK  status: ('A' for Active; 'I' for Inactive)
REMARK    1  A    between atoms: O42_1  and  C39_2 
REMARK    2  A    between atoms: C24_8  and  C19_18 
REMARK    3  A    between atoms: N26_9  and  C44_10 
REMARK    4  A    between atoms: C14_21  and  N7_24 
ROOT
ATOM      1  C19 AEJ d   1      13.936   2.290  36.518  0.00  0.00    -0.031 A 
ATOM      2  C20 AEJ d   1      14.948   3.182  36.190  0.00  0.00    -0.072 A 
ATOM      3  C22 AEJ d   1      14.782   4.570  36.321  0.00  0.00    -0.057 A 
ATOM      4  C14 AEJ d   1      13.579   5.139  36.793  0.00  0.00     0.030 A 
ATOM      5  C15 AEJ d   1      12.602   4.214  37.109  0.00  0.00    -0.057 A 
ATOM      6  C17 AEJ d   1      12.765   2.833  36.969  0.00  0.00    -0.072 A 
ATOM      7  H15 AEJ d   1      15.892   2.796  35.823  0.00  0.00     0.084 H 
ATOM      8  H16 AEJ d   1      15.603   5.225  36.051  0.00  0.00     0.086 H 
ATOM      9  H17 AEJ d   1      11.655   4.581  37.487  0.00  0.00     0.086 H 
ATOM     10  H18 AEJ d   1      11.942   2.175  37.224  0.00  0.00     0.084 H 
ENDROOT
BRANCH   1  11
ATOM     11  C24 AEJ d   1      14.046   0.778  36.397  0.00  0.00     0.063 C 
ATOM     12  C34 AEJ d   1      15.268   0.543  37.200  0.00  0.00    -0.024 A 
ATOM     13  C35 AEJ d   1      15.332   0.809  38.564  0.00  0.00    -0.071 A 
ATOM     14  C33 AEJ d   1      16.369   0.020  36.575  0.00  0.00    -0.045 A 
ATOM     15  C37 AEJ d   1      16.528   0.565  39.278  0.00  0.00    -0.050 A 
ATOM     16  H3  AEJ d   1      14.464   1.204  39.080  0.00  0.00     0.084 H 
ATOM     17  C39 AEJ d   1      17.629   0.046  38.597  0.00  0.00     0.066 A 
ATOM     18  H2  AEJ d   1      16.588   0.778  40.339  0.00  0.00     0.087 H 
ATOM     19  C40 AEJ d   1      17.545  -0.236  37.265  0.00  0.00    -0.044 A 
ATOM     20  H4  AEJ d   1      18.397  -0.660  36.746  0.00  0.00     0.088 H 
ATOM     21  C30 AEJ d   1      16.370  -0.308  35.134  0.00  0.00    -0.025 C 
ATOM     22  C27 AEJ d   1      15.081  -0.211  34.339  0.00  0.00    -0.000 C 
ATOM     23  H13 AEJ d   1      16.723  -1.346  35.044  0.00  0.00     0.042 H 
ATOM     24  H14 AEJ d   1      17.092   0.368  34.654  0.00  0.00     0.042 H 
ATOM     25  N26 AEJ d   1      14.052   0.568  34.944  0.00  0.00    -0.367 N 
ATOM     26  H11 AEJ d   1      15.317   0.236  33.362  0.00  0.00     0.064 H 
ATOM     27  H12 AEJ d   1      14.694  -1.230  34.192  0.00  0.00     0.064 H 
ATOM     28  H5  AEJ d   1      13.198   0.236  36.840  0.00  0.00     0.088 H 
BRANCH  17  29
ATOM     29  O42 AEJ d   1      18.854  -0.196  39.241  0.00  0.00    -0.361 OA
ATOM     30  H1  AEJ d   1      19.189   0.618  39.599  0.00  0.00     0.217 HD
ENDBRANCH  17  29
BRANCH  25  31
ATOM     31  C44 AEJ d   1      12.878   0.739  34.187  0.00  0.00     0.030 A 
ATOM     32  C45 AEJ d   1      11.629   0.361  34.689  0.00  0.00    -0.057 A 
ATOM     33  C47 AEJ d   1      10.447   0.597  33.923  0.00  0.00    -0.081 A 
ATOM     34  H6  AEJ d   1      11.558  -0.112  35.662  0.00  0.00     0.086 H 
ATOM     35  C49 AEJ d   1      10.500   1.214  32.680  0.00  0.00    -0.083 A 
ATOM     36  H7  AEJ d   1       9.487   0.288  34.321  0.00  0.00     0.083 H 
ATOM     37  C51 AEJ d   1      11.733   1.612  32.164  0.00  0.00    -0.081 A 
ATOM     38  H8  AEJ d   1       9.591   1.385  32.115  0.00  0.00     0.083 H 
ATOM     39  C53 AEJ d   1      12.899   1.385  32.916  0.00  0.00    -0.057 A 
ATOM     40  H9  AEJ d   1      11.792   2.091  31.194  0.00  0.00     0.083 H 
ATOM     41  H10 AEJ d   1      13.851   1.714  32.514  0.00  0.00     0.086 H 
ENDBRANCH  25  31
ENDBRANCH   1  11
BRANCH   4  42
ATOM     42  N7  AEJ d   1      13.383   6.452  36.955  0.00  0.00    -0.377 N 
ATOM     43  C8  AEJ d   1      12.081   6.915  37.473  0.00  0.00     0.018 C 
ATOM     44  C11 AEJ d   1      11.874   8.437  37.461  0.00  0.00     0.099 C 
ATOM     45  H19 AEJ d   1      11.985   6.567  38.512  0.00  0.00     0.066 H 
ATOM     46  H20 AEJ d   1      11.290   6.460  36.860  0.00  0.00     0.066 H 
ATOM     47  N1  AEJ d   1      13.020   9.205  37.943  0.00  0.00    -0.064 N 
ATOM     48  H21 AEJ d   1      11.009   8.672  38.099  0.00  0.00     0.078 H 
ATOM     49  H22 AEJ d   1      11.662   8.747  36.427  0.00  0.00     0.078 H 
ATOM     50  C2  AEJ d   1      14.224   8.762  37.228  0.00  0.00     0.119 C 
ATOM     51  C64 AEJ d   1      12.728  10.625  37.605  0.00  0.00     0.084 C 
ATOM     52  H23 AEJ d   1      13.142   9.090  38.937  0.00  0.00     0.280 HD
ATOM     53  C4  AEJ d   1      14.479   7.289  37.470  0.00  0.00     0.022 C 
ATOM     54  C55 AEJ d   1      15.399   9.616  37.757  0.00  0.00    -0.036 C 
ATOM     55  H24 AEJ d   1      14.099   8.931  36.148  0.00  0.00     0.087 H 
ATOM     56  H25 AEJ d   1      15.413   7.002  36.965  0.00  0.00     0.067 H 
ATOM     57  H26 AEJ d   1      14.579   7.118  38.552  0.00  0.00     0.067 H 
ATOM     58  C58 AEJ d   1      15.086  11.119  37.632  0.00  0.00    -0.062 C 
ATOM     59  H27 AEJ d   1      16.302   9.387  37.173  0.00  0.00     0.036 H 
ATOM     60  H28 AEJ d   1      15.574   9.371  38.815  0.00  0.00     0.036 H 
ATOM     61  C61 AEJ d   1      13.765  11.503  38.334  0.00  0.00    -0.042 C 
ATOM     62  H29 AEJ d   1      15.008  11.377  36.566  0.00  0.00     0.033 H 
ATOM     63  H30 AEJ d   1      15.908  11.691  38.088  0.00  0.00     0.033 H 
ATOM     64  H31 AEJ d   1      13.542  12.572  38.203  0.00  0.00     0.035 H 
ATOM     65  H32 AEJ d   1      13.802  11.265  39.407  0.00  0.00     0.035 H 
ATOM     66  H33 AEJ d   1      11.713  10.889  37.938  0.00  0.00     0.076 H 
ATOM     67  H34 AEJ d   1      12.807  10.775  36.518  0.00  0.00     0.076 H 
ENDBRANCH   4  42
TORSDOF 4
