REMARK  22 active torsions:
REMARK  status: ('A' for Active; 'I' for Inactive)
REMARK    1  A    between atoms: C11_1  and  C12_2 
REMARK    2  A    between atoms: C12_2  and  C13_3 
REMARK    3  A    between atoms: C12_2  and  C14_4 
REMARK    4  A    between atoms: C21_13  and  C29_18 
REMARK       I    between atoms: C29_18  and  N3_25 
REMARK    5  A    between atoms: N3_25  and  C31_26 
REMARK    6  A    between atoms: C31_26  and  C32_27 
REMARK    7  A    between atoms: C31_26  and  C33_29 
REMARK    8  A    between atoms: C32_27  and  O31_28 
REMARK    9  A    between atoms: C32_27  and  C37_33 
REMARK   10  A    between atoms: C33_29  and  C34_30 
REMARK   11  A    between atoms: C34_30  and  C35_31 
REMARK   12  A    between atoms: C34_30  and  C36_32 
REMARK   13  A    between atoms: C37_33  and  C38_34 
REMARK   14  A    between atoms: C38_34  and  C39_35 
REMARK   15  A    between atoms: C38_34  and  C30_36 
REMARK       I    between atoms: C30_36  and  N4_38 
REMARK   16  A    between atoms: N4_38  and  C41_39 
REMARK   17  A    between atoms: C41_39  and  C42_40 
REMARK   18  A    between atoms: C41_39  and  C45_41 
REMARK   19  A    between atoms: C42_40  and  C44_43 
REMARK   20  A    between atoms: C42_40  and  C43_44 
REMARK       I    between atoms: C45_41  and  N5_45 
REMARK   21  A    between atoms: N5_45  and  C51_46 
REMARK   22  A    between atoms: C51_46  and  C52_47 
ROOT
ATOM      1  C31 MMI d   1      47.355  17.219 106.486  0.00  0.00     0.037 C 
ATOM      2  H28 MMI d   1      46.584  17.928 106.149  0.00  0.00     0.076 H 
ENDROOT
BRANCH   1   3
ATOM      3  N3  MMI d   1      48.378  17.982 107.278  0.00  0.00    -0.352 N 
ATOM      4  C29 MMI d   1      48.171  19.297 107.750  0.00  0.00     0.241 C 
ATOM      5  O21 MMI d   1      47.138  19.967 107.574  0.00  0.00    -0.271 OA
ATOM      6  H27 MMI d   1      49.250  17.536 107.481  0.00  0.00     0.163 HD
BRANCH   4   7
ATOM      7  C21 MMI d   1      49.379  19.901 108.528  0.00  0.00     0.097 C 
ATOM      8  N21 MMI d   1      49.772  21.133 107.850  0.00  0.00    -0.346 N 
ATOM      9  C15 MMI d   1      51.026  21.316 107.415  0.00  0.00     0.241 C 
ATOM     10  H12 MMI d   1      49.093  21.853 107.708  0.00  0.00     0.163 HD
ATOM     11  C11 MMI d   1      51.134  21.944 105.988  0.00  0.00     0.094 C 
ATOM     12  O11 MMI d   1      51.967  21.043 108.115  0.00  0.00    -0.271 OA
ATOM     13  N1  MMI d   1      50.949  23.440 106.126  0.00  0.00    -0.323 N 
ATOM     14  H1  MMI d   1      50.287  21.564 105.398  0.00  0.00     0.088 H 
ATOM     15  C16 MMI d   1      51.605  24.376 106.981  0.00  0.00     0.361 C 
ATOM     16  H9  MMI d   1      50.257  23.835 105.522  0.00  0.00     0.165 HD
ATOM     17  O12 MMI d   1      51.222  25.550 106.867  0.00  0.00    -0.239 OA
ATOM     18  O13 MMI d   1      52.607  24.022 107.909  0.00  0.00    -0.304 OA
ATOM     19  C17 MMI d   1      53.892  24.671 107.841  0.00  0.00     0.030 C 
ATOM     20  C28 MMI d   1      54.678  24.464 109.147  0.00  0.00    -0.044 C 
ATOM     21  H10 MMI d   1      53.744  25.748 107.676  0.00  0.00     0.075 H 
ATOM     22  H11 MMI d   1      54.466  24.248 107.004  0.00  0.00     0.075 H 
ATOM     23  C27 MMI d   1      54.777  22.974 109.520  0.00  0.00    -0.063 C 
ATOM     24  H17 MMI d   1      54.168  25.002 109.960  0.00  0.00     0.036 H 
ATOM     25  H18 MMI d   1      55.693  24.868 109.020  0.00  0.00     0.036 H 
ATOM     26  C26 MMI d   1      53.601  22.477 110.389  0.00  0.00    -0.064 C 
ATOM     27  H19 MMI d   1      55.712  22.816 110.077  0.00  0.00     0.033 H 
ATOM     28  H20 MMI d   1      54.798  22.384 108.592  0.00  0.00     0.033 H 
ATOM     29  C25 MMI d   1      53.761  20.981 110.707  0.00  0.00    -0.050 C 
ATOM     30  H21 MMI d   1      52.658  22.633 109.845  0.00  0.00     0.033 H 
ATOM     31  H22 MMI d   1      53.580  23.047 111.330  0.00  0.00     0.033 H 
ATOM     32  C24 MMI d   1      52.604  20.450 111.504  0.00  0.00    -0.005 C 
ATOM     33  H23 MMI d   1      54.686  20.837 111.284  0.00  0.00     0.035 H 
ATOM     34  H24 MMI d   1      53.828  20.422 109.762  0.00  0.00     0.035 H 
ATOM     35  N22 MMI d   1      51.448  20.118 110.611  0.00  0.00    -0.361 N 
ATOM     36  H25 MMI d   1      52.920  19.541 112.037  0.00  0.00     0.064 H 
ATOM     37  H26 MMI d   1      52.289  21.211 112.233  0.00  0.00     0.064 H 
ATOM     38  C23 MMI d   1      50.151  20.513 110.963  0.00  0.00     0.220 C 
ATOM     39  H16 MMI d   1      51.603  19.613 109.762  0.00  0.00     0.162 HD
ATOM     40  C22 MMI d   1      48.982  20.099 110.024  0.00  0.00     0.036 C 
ATOM     41  O22 MMI d   1      49.904  21.139 111.994  0.00  0.00    -0.274 OA
ATOM     42  H14 MMI d   1      48.565  19.151 110.395  0.00  0.00     0.051 H 
ATOM     43  H15 MMI d   1      48.211  20.882 110.072  0.00  0.00     0.051 H 
ATOM     44  H13 MMI d   1      50.225  19.199 108.489  0.00  0.00     0.088 H 
BRANCH  11  45
ATOM     45  C12 MMI d   1      52.437  21.524 105.204  0.00  0.00    -0.033 C 
ATOM     46  H2  MMI d   1      53.298  21.894 105.780  0.00  0.00     0.042 H 
BRANCH  45  47
ATOM     47  C13 MMI d   1      52.476  22.168 103.794  0.00  0.00    -0.071 C 
ATOM     48  H3  MMI d   1      53.394  21.857 103.274  0.00  0.00     0.028 H 
ATOM     49  H4  MMI d   1      52.463  23.264 103.891  0.00  0.00     0.028 H 
ATOM     50  H5  MMI d   1      51.599  21.840 103.217  0.00  0.00     0.028 H 
ENDBRANCH  45  47
BRANCH  45  51
ATOM     51  C14 MMI d   1      52.604  19.975 105.030  0.00  0.00    -0.071 C 
ATOM     52  H6  MMI d   1      52.580  19.491 106.017  0.00  0.00     0.028 H 
ATOM     53  H7  MMI d   1      53.566  19.763 104.541  0.00  0.00     0.028 H 
ATOM     54  H8  MMI d   1      51.783  19.585 104.410  0.00  0.00     0.028 H 
ENDBRANCH  45  51
ENDBRANCH  11  45
ENDBRANCH   4   7
ENDBRANCH   1   3
BRANCH   1  55
ATOM     55  C32 MMI d   1      46.674  16.167 107.436  0.00  0.00     0.056 C 
ATOM     56  H29 MMI d   1      46.554  15.227 106.878  0.00  0.00     0.086 H 
BRANCH  55  57
ATOM     57  O31 MMI d   1      47.509  15.899 108.584  0.00  0.00    -0.393 OA
ATOM     58  H30 MMI d   1      48.345  15.554 108.293  0.00  0.00     0.210 HD
ENDBRANCH  55  57
BRANCH  55  59
ATOM     59  C37 MMI d   1      45.251  16.663 107.860  0.00  0.00    -0.028 C 
ATOM     60  H40 MMI d   1      44.543  16.045 107.288  0.00  0.00     0.038 H 
ATOM     61  H41 MMI d   1      45.189  17.706 107.515  0.00  0.00     0.038 H 
BRANCH  59  62
ATOM     62  C38 MMI d   1      44.699  16.676 109.337  0.00  0.00     0.022 C 
ATOM     63  H42 MMI d   1      44.663  15.636 109.695  0.00  0.00     0.054 H 
BRANCH  62  64
ATOM     64  C39 MMI d   1      45.533  17.486 110.346  0.00  0.00    -0.065 C 
ATOM     65  H43 MMI d   1      45.063  17.430 111.339  0.00  0.00     0.028 H 
ATOM     66  H44 MMI d   1      45.581  18.536 110.022  0.00  0.00     0.028 H 
ATOM     67  H45 MMI d   1      46.550  17.071 110.398  0.00  0.00     0.028 H 
ENDBRANCH  62  64
BRANCH  62  68
ATOM     68  C30 MMI d   1      43.255  17.249 109.288  0.00  0.00     0.222 C 
ATOM     69  O32 MMI d   1      43.030  18.464 109.339  0.00  0.00    -0.273 OA
ATOM     70  N4  MMI d   1      42.231  16.266 109.138  0.00  0.00    -0.347 N 
ATOM     71  H46 MMI d   1      42.526  15.311 109.112  0.00  0.00     0.163 HD
BRANCH  70  72
ATOM     72  C41 MMI d   1      40.738  16.522 109.014  0.00  0.00     0.092 C 
ATOM     73  H47 MMI d   1      40.566  17.190 108.157  0.00  0.00     0.088 H 
BRANCH  72  74
ATOM     74  C42 MMI d   1      39.929  15.188 108.748  0.00  0.00    -0.033 C 
ATOM     75  H48 MMI d   1      40.107  14.519 109.603  0.00  0.00     0.042 H 
BRANCH  74  76
ATOM     76  C44 MMI d   1      40.370  14.480 107.464  0.00  0.00    -0.071 C 
ATOM     77  H49 MMI d   1      39.778  13.563 107.329  0.00  0.00     0.028 H 
ATOM     78  H50 MMI d   1      41.436  14.220 107.536  0.00  0.00     0.028 H 
ATOM     79  H51 MMI d   1      40.213  15.148 106.604  0.00  0.00     0.028 H 
ENDBRANCH  74  76
BRANCH  74  80
ATOM     80  C43 MMI d   1      38.428  15.412 108.606  0.00  0.00    -0.071 C 
ATOM     81  H52 MMI d   1      38.047  15.921 109.504  0.00  0.00     0.028 H 
ATOM     82  H53 MMI d   1      37.922  14.442 108.492  0.00  0.00     0.028 H 
ATOM     83  H54 MMI d   1      38.232  16.034 107.720  0.00  0.00     0.028 H 
ENDBRANCH  74  80
ENDBRANCH  72  74
BRANCH  72  84
ATOM     84  C45 MMI d   1      40.287  17.256 110.310  0.00  0.00     0.241 C 
ATOM     85  O4  MMI d   1      40.741  16.934 111.401  0.00  0.00    -0.271 OA
ATOM     86  N5  MMI d   1      39.351  18.279 110.095  0.00  0.00    -0.355 N 
ATOM     87  H55 MMI d   1      39.054  18.455 109.156  0.00  0.00     0.162 HD
BRANCH  86  88
ATOM     88  C51 MMI d   1      38.774  19.117 111.179  0.00  0.00     0.019 C 
ATOM     89  H56 MMI d   1      39.559  19.321 111.922  0.00  0.00     0.071 H 
ATOM     90  H57 MMI d   1      37.954  18.560 111.656  0.00  0.00     0.071 H 
BRANCH  88  91
ATOM     91  C52 MMI d   1      38.226  20.453 110.664  0.00  0.00    -0.041 A 
ATOM     92  C57 MMI d   1      36.819  20.678 110.439  0.00  0.00    -0.075 A 
ATOM     93  C56 MMI d   1      36.335  21.945 109.957  0.00  0.00    -0.082 A 
ATOM     94  H58 MMI d   1      36.114  19.879 110.636  0.00  0.00     0.084 H 
ATOM     95  C55 MMI d   1      37.260  23.013 109.698  0.00  0.00    -0.083 A 
ATOM     96  H59 MMI d   1      35.274  22.093 109.790  0.00  0.00     0.083 H 
ATOM     97  C54 MMI d   1      38.662  22.806 109.916  0.00  0.00    -0.082 A 
ATOM     98  H60 MMI d   1      36.900  23.971 109.340  0.00  0.00     0.083 H 
ATOM     99  C53 MMI d   1      39.132  21.544 110.396  0.00  0.00    -0.075 A 
ATOM    100  H61 MMI d   1      39.365  23.606 109.717  0.00  0.00     0.083 H 
ATOM    101  H62 MMI d   1      40.194  21.403 110.563  0.00  0.00     0.084 H 
ENDBRANCH  88  91
ENDBRANCH  86  88
ENDBRANCH  72  84
ENDBRANCH  70  72
ENDBRANCH  62  68
ENDBRANCH  59  62
ENDBRANCH  55  59
ENDBRANCH   1  55
BRANCH   1 102
ATOM    102  C33 MMI d   1      47.967  16.548 105.207  0.00  0.00    -0.041 C 
ATOM    103  H31 MMI d   1      47.151  16.041 104.671  0.00  0.00     0.036 H 
ATOM    104  H32 MMI d   1      48.705  15.803 105.540  0.00  0.00     0.036 H 
BRANCH 102 105
ATOM    105  C34 MMI d   1      48.684  17.514 104.188  0.00  0.00    -0.059 C 
ATOM    106  H33 MMI d   1      49.509  18.006 104.723  0.00  0.00     0.038 H 
BRANCH 105 107
ATOM    107  C35 MMI d   1      47.742  18.613 103.626  0.00  0.00    -0.073 C 
ATOM    108  H34 MMI d   1      48.300  19.251 102.925  0.00  0.00     0.028 H 
ATOM    109  H35 MMI d   1      47.359  19.227 104.455  0.00  0.00     0.028 H 
ATOM    110  H36 MMI d   1      46.899  18.140 103.100  0.00  0.00     0.028 H 
ENDBRANCH 105 107
BRANCH 105 111
ATOM    111  C36 MMI d   1      49.268  16.741 102.986  0.00  0.00    -0.073 C 
ATOM    112  H37 MMI d   1      49.942  15.952 103.350  0.00  0.00     0.028 H 
ATOM    113  H38 MMI d   1      49.829  17.434 102.342  0.00  0.00     0.028 H 
ATOM    114  H39 MMI d   1      48.449  16.286 102.410  0.00  0.00     0.028 H 
ENDBRANCH 105 111
ENDBRANCH 102 105
ENDBRANCH   1 102
TORSDOF 22
