REMARK  11 active torsions:
REMARK  status: ('A' for Active; 'I' for Inactive)
REMARK    1  A    between atoms: O3B_8  and  PG_1 
REMARK    2  A    between atoms: PB_5  and  O3B_8 
REMARK    3  A    between atoms: O3A_12  and  PB_5 
REMARK    4  A    between atoms: PA_9  and  O3A_12 
REMARK    5  A    between atoms: PA_9  and  O5_13 
REMARK    6  A    between atoms: O5_13  and  C5_14 
REMARK    7  A    between atoms: C5_14  and  C4_15 
REMARK    8  A    between atoms: C3_17  and  O3_18 
REMARK    9  A    between atoms: C2_19  and  O2_20 
REMARK   10  A    between atoms: C1_21  and  N9_22 
REMARK   11  A    between atoms: C6_26  and  N6_27 
ROOT
ATOM      1  C4  ATP d   1      -1.198 -12.725 -24.216  0.00  0.00     0.089 C 
ATOM      2  O4  ATP d   1      -1.450 -12.348 -22.834  0.00  0.00    -0.353 OA
ATOM      3  C3  ATP d   1      -2.496 -13.356 -24.709  0.00  0.00     0.091 C 
ATOM      4  C2  ATP d   1      -3.554 -12.670 -23.854  0.00  0.00     0.105 C 
ATOM      5  C1  ATP d   1      -2.817 -12.536 -22.527  0.00  0.00     0.139 C 
ATOM      6  H3  ATP d   1      -0.395 -13.475 -24.267  0.00  0.00     0.090 H 
ATOM      7  H4  ATP d   1      -2.656 -13.135 -25.774  0.00  0.00     0.091 H 
ATOM      8  H6  ATP d   1      -3.858 -11.699 -24.271  0.00  0.00     0.093 H 
ATOM      9  H8  ATP d   1      -2.951 -13.464 -21.951  0.00  0.00     0.122 H 
ENDROOT
BRANCH   1  10
ATOM     10  C5  ATP d   1      -0.753 -11.499 -24.975  0.00  0.00     0.058 C 
ATOM     11  H1  ATP d   1      -1.447 -10.671 -24.767  0.00  0.00     0.079 H 
ATOM     12  H2  ATP d   1       0.260 -11.219 -24.651  0.00  0.00     0.079 H 
BRANCH  10  13
ATOM     13  O5  ATP d   1      -0.743 -11.765 -26.374  0.00  0.00    -0.287 OA
BRANCH  13  14
ATOM     14  PA  ATP d   1       0.596 -11.616 -27.225  0.00  0.00     0.417 P 
ATOM     15  O1A ATP d   1       0.495 -12.709 -28.225  0.00  0.00    -0.624 OA
ATOM     16  O2A ATP d   1       1.763 -11.595 -26.306  0.00  0.00    -0.624 OA
BRANCH  14  17
ATOM     17  O3A ATP d   1       0.360 -10.229 -27.700  0.00  0.00    -0.180 OA
BRANCH  17  18
ATOM     18  PB  ATP d   1       0.041  -9.617 -29.016  0.00  0.00     0.428 P 
ATOM     19  O1B ATP d   1      -0.059  -8.173 -28.681  0.00  0.00    -0.624 OA
ATOM     20  O2B ATP d   1       1.068 -10.085 -29.979  0.00  0.00    -0.624 OA
BRANCH  18  21
ATOM     21  O3B ATP d   1      -1.296 -10.008 -29.529  0.00  0.00    -0.173 OA
BRANCH  21  22
ATOM     22  PG  ATP d   1      -1.760 -10.484 -30.856  0.00  0.00     0.431 P 
ATOM     23  O1G ATP d   1      -3.242 -10.563 -30.870  0.00  0.00    -0.616 OA
ATOM     24  O2G ATP d   1      -1.389 -11.911 -31.037  0.00  0.00    -0.616 OA
ATOM     25  O3G ATP d   1      -1.049  -9.663 -31.869  0.00  0.00    -0.616 OA
ENDBRANCH  21  22
ENDBRANCH  18  21
ENDBRANCH  17  18
ENDBRANCH  14  17
ENDBRANCH  13  14
ENDBRANCH  10  13
ENDBRANCH   1  10
BRANCH   3  26
ATOM     26  O3  ATP d   1      -2.492 -14.765 -24.527  0.00  0.00    -0.390 OA
ATOM     27  H5  ATP d   1      -3.312 -15.126 -24.843  0.00  0.00     0.210 HD
ENDBRANCH   3  26
BRANCH   5  28
ATOM     28  N9  ATP d   1      -3.257 -11.411 -21.705  0.00  0.00    -0.294 N 
ATOM     29  C8  ATP d   1      -4.040 -10.344 -22.068  0.00  0.00     0.071 A 
ATOM     30  N7  ATP d   1      -4.251  -9.490 -21.096  0.00  0.00    -0.236 NA
ATOM     31  H9  ATP d   1      -4.448 -10.218 -23.070  0.00  0.00     0.144 H 
ATOM     32  C5  ATP d   1      -3.563 -10.033 -20.019  0.00  0.00     0.149 A 
ATOM     33  C6  ATP d   1      -3.389  -9.605 -18.694  0.00  0.00     0.155 A 
ATOM     34  C4  ATP d   1      -2.949 -11.218 -20.381  0.00  0.00     0.167 A 
ATOM     35  N1  ATP d   1      -2.644 -10.382 -17.877  0.00  0.00    -0.222 NA
ATOM     36  C2  ATP d   1      -2.111 -11.508 -18.371  0.00  0.00     0.091 A 
ATOM     37  N3  ATP d   1      -2.200 -12.012 -19.597  0.00  0.00    -0.222 NA
ATOM     38  H12 ATP d   1      -1.524 -12.091 -17.671  0.00  0.00     0.146 H 
BRANCH  33  39
ATOM     39  N6  ATP d   1      -3.917  -8.483 -18.203  0.00  0.00    -0.382 N 
ATOM     40  H10 ATP d   1      -3.752  -8.223 -17.220  0.00  0.00     0.157 HD
ATOM     41  H11 ATP d   1      -4.490  -7.876 -18.807  0.00  0.00     0.157 HD
ENDBRANCH  33  39
ENDBRANCH   5  28
BRANCH   4  42
ATOM     42  O2  ATP d   1      -4.680 -13.506 -23.662  0.00  0.00    -0.388 OA
ATOM     43  H7  ATP d   1      -4.409 -14.305 -23.226  0.00  0.00     0.210 HD
ENDBRANCH   4  42
TORSDOF 11
