REMARK WARNING: 32 MAX_TORS EXCEEDED!!!
REMARK  41 active torsions:
REMARK  status: ('A' for Active; 'I' for Inactive)
REMARK    1  A    between atoms: O4_25  and  C1_1 
REMARK    2  A    between atoms: C2_2  and  O2_7 
REMARK    3  A    between atoms: C3_3  and  O3_8 
REMARK    4  A    between atoms: C5_5  and  C6_6 
REMARK    5  A    between atoms: O2_7  and  S_12 
REMARK    6  A    between atoms: O1_23  and  C1_16 
REMARK    7  A    between atoms: C2_17  and  N_22 
REMARK    8  A    between atoms: C3_18  and  O3_24 
REMARK    9  A    between atoms: C4_19  and  O4_25 
REMARK   10  A    between atoms: C5_20  and  C6_21 
REMARK   11  A    between atoms: C6_21  and  O6_27 
REMARK   12  A    between atoms: N_22  and  S1_28 
REMARK   13  A    between atoms: C4_39  and  O1_23 
REMARK   14  A    between atoms: O6_27  and  S2_32 
REMARK   15  A    between atoms: O4_60  and  C1_36 
REMARK   16  A    between atoms: C2_37  and  O2_42 
REMARK   17  A    between atoms: C3_38  and  O3_43 
REMARK   18  A    between atoms: C5_40  and  C6_41 
REMARK   19  A    between atoms: O2_42  and  S_47 
REMARK   20  A    between atoms: O1_58  and  C1_51 
REMARK   21  A    between atoms: C2_52  and  N_57 
REMARK   22  A    between atoms: C3_53  and  O3_59 
REMARK   23  A    between atoms: C4_54  and  O4_60 
REMARK   24  A    between atoms: C5_55  and  C6_56 
REMARK   25  A    between atoms: C6_56  and  O6_62 
REMARK   26  A    between atoms: N_57  and  S1_63 
REMARK   27  A    between atoms: C4_74  and  O1_58 
REMARK   28  A    between atoms: O6_62  and  S2_67 
REMARK   29  A    between atoms: O4_95  and  C1_71 
REMARK   30  A    between atoms: C2_72  and  O2_77 
REMARK   31  A    between atoms: C3_73  and  O3_78 
REMARK   32  A    between atoms: C5_75  and  C6_76 
REMARK   33  A    between atoms: O2_77  and  S_82 
REMARK   34  A    between atoms: C1_86  and  O1_93 
REMARK   35  A    between atoms: C2_87  and  N_92 
REMARK   36  A    between atoms: C3_88  and  O3_94 
REMARK   37  A    between atoms: C4_89  and  O4_95 
REMARK   38  A    between atoms: C5_90  and  C6_91 
REMARK   39  A    between atoms: C6_91  and  O6_97 
REMARK   40  A    between atoms: N_92  and  S1_98 
REMARK   41  A    between atoms: O6_97  and  S2_102 
ROOT
ATOM      1  H21 IDS d   1      23.826  39.008  48.346  0.00  0.00     0.132 H 
ATOM      2  H22 IDS d   1      24.053  37.941  46.116  0.00  0.00     0.085 H 
ATOM      3  H23 IDS d   1      21.187  38.951  45.743  0.00  0.00     0.090 H 
ATOM      4  H24 IDS d   1      22.401  36.107  45.897  0.00  0.00     0.091 H 
ATOM      5  H25 IDS d   1      20.448  37.661  47.726  0.00  0.00     0.090 H 
ATOM      6  C1  SGN d   1      22.930  38.717  47.777  0.00  0.00     0.155 C 
ATOM      7  C2  SGN d   1      23.241  38.658  46.304  0.00  0.00     0.097 C 
ATOM      8  C3  SGN d   1      22.006  38.237  45.569  0.00  0.00     0.087 C 
ATOM      9  C4  SGN d   1      21.588  36.829  46.067  0.00  0.00     0.095 C 
ATOM     10  C5  SGN d   1      21.265  36.941  47.568  0.00  0.00     0.091 C 
ATOM     11  O5  SGN d   1      22.480  37.418  48.217  0.00  0.00    -0.349 OA
ENDROOT
BRANCH   9  12
ATOM     12  O4  SGN d   1      20.396  36.404  45.389  0.00  0.00    -0.348 OA
BRANCH  12  13
ATOM     13  C1  IDS d   1      20.392  35.288  44.446  0.00  0.00     0.161 C 
ATOM     14  C2  IDS d   1      18.929  35.182  43.935  0.00  0.00     0.134 C 
ATOM     15  C3  IDS d   1      18.509  36.498  43.267  0.00  0.00     0.094 C 
ATOM     16  H16 IDS d   1      18.279  35.001  44.803  0.00  0.00     0.097 H 
ATOM     17  C4  IDS d   1      19.500  36.830  42.069  0.00  0.00     0.103 C 
ATOM     18  H17 IDS d   1      17.476  36.439  42.894  0.00  0.00     0.091 H 
ATOM     19  C5  IDS d   1      20.966  36.772  42.577  0.00  0.00     0.152 C 
ATOM     20  H18 IDS d   1      19.281  37.851  41.723  0.00  0.00     0.092 H 
ATOM     21  O5  IDS d   1      21.249  35.500  43.295  0.00  0.00    -0.340 OA
ATOM     22  H19 IDS d   1      21.049  37.581  43.318  0.00  0.00     0.104 H 
ATOM     23  H15 IDS d   1      20.696  34.365  44.961  0.00  0.00     0.133 H 
BRANCH  14  24
ATOM     24  O2  IDS d   1      18.742  34.134  43.021  0.00  0.00    -0.244 OA
BRANCH  24  25
ATOM     25  S   IDS d   1      19.218  32.512  43.542  0.00  0.00     0.252 S 
ATOM     26  O1S IDS d   1      18.878  31.632  42.439  0.00  0.00    -0.572 OA
ATOM     27  O2S IDS d   1      18.447  32.223  44.744  0.00  0.00    -0.572 OA
ATOM     28  O3S IDS d   1      20.602  32.377  43.893  0.00  0.00    -0.572 OA
ENDBRANCH  24  25
ENDBRANCH  14  24
BRANCH  15  29
ATOM     29  O3  IDS d   1      18.622  37.472  44.281  0.00  0.00    -0.390 OA
ATOM     30  H20 IDS d   1      19.513  37.483  44.610  0.00  0.00     0.210 HD
ENDBRANCH  15  29
BRANCH  17  31
ATOM     31  O1  IDS d   1      19.376  35.951  40.958  0.00  0.00    -0.348 OA
BRANCH  31  32
ATOM     32  C1  SGN d   1      18.295  36.351  40.106  0.00  0.00     0.155 C 
ATOM     33  C2  SGN d   1      17.348  35.167  39.969  0.00  0.00     0.097 C 
ATOM     34  C3  SGN d   1      17.926  34.058  39.085  0.00  0.00     0.087 C 
ATOM     35  H7  IDS d   1      16.389  35.513  39.556  0.00  0.00     0.085 H 
ATOM     36  C4  SGN d   1      18.144  34.651  37.684  0.00  0.00     0.095 C 
ATOM     37  H8  IDS d   1      18.879  33.690  39.493  0.00  0.00     0.090 H 
ATOM     38  C5  SGN d   1      19.212  35.742  37.872  0.00  0.00     0.091 C 
ATOM     39  H9  IDS d   1      17.208  35.068  37.285  0.00  0.00     0.091 H 
ATOM     40  O5  SGN d   1      18.713  36.775  38.769  0.00  0.00    -0.349 OA
ATOM     41  H10 IDS d   1      20.114  35.285  38.305  0.00  0.00     0.090 H 
ATOM     42  H6  IDS d   1      17.768  37.190  40.584  0.00  0.00     0.132 H 
BRANCH  33  43
ATOM     43  N   SGN d   1      17.161  34.583  41.259  0.00  0.00    -0.289 N 
ATOM     44  H13 IDS d   1      17.843  33.980  41.673  0.00  0.00     0.175 HD
BRANCH  43  45
ATOM     45  S1  SGN d   1      15.668  34.987  42.068  0.00  0.00     0.205 S 
ATOM     46  O1S SGN d   1      15.656  34.294  43.339  0.00  0.00    -0.578 OA
ATOM     47  O2S SGN d   1      14.613  34.553  41.198  0.00  0.00    -0.578 OA
ATOM     48  O3S SGN d   1      15.548  36.417  42.233  0.00  0.00    -0.578 OA
ENDBRANCH  43  45
ENDBRANCH  33  43
BRANCH  34  49
ATOM     49  O3  SGN d   1      16.984  33.020  39.045  0.00  0.00    -0.391 OA
ATOM     50  H14 IDS d   1      17.295  32.334  38.466  0.00  0.00     0.210 HD
ENDBRANCH  34  49
BRANCH  36  51
ATOM     51  O4  SGN d   1      18.668  33.670  36.792  0.00  0.00    -0.347 OA
BRANCH  51  52
ATOM     52  C1  IDS d   1      17.786  33.335  35.701  0.00  0.00     0.167 C 
ATOM     53  C2  IDS d   1      18.511  32.342  34.799  0.00  0.00     0.135 C 
ATOM     54  C3  IDS d   1      18.825  31.013  35.486  0.00  0.00     0.086 C 
ATOM     55  H2  IDS d   1      19.450  32.806  34.461  0.00  0.00     0.097 H 
ATOM     56  C4  IDS d   1      17.726  30.567  36.390  0.00  0.00    -0.034 C 
ATOM     57  H3  IDS d   1      18.969  30.236  34.721  0.00  0.00     0.093 H 
ATOM     58  C5  IDS d   1      16.654  31.367  36.649  0.00  0.00     0.147 C 
ATOM     59  H4  IDS d   1      17.781  29.582  36.852  0.00  0.00     0.085 H 
ATOM     60  O5  IDS d   1      16.598  32.689  36.228  0.00  0.00    -0.311 OA
ATOM     61  H1  IDS d   1      17.511  34.239  35.138  0.00  0.00     0.134 H 
BRANCH  53  62
ATOM     62  O2  IDS d   1      17.698  32.004  33.662  0.00  0.00    -0.244 OA
BRANCH  62  63
ATOM     63  S   IDS d   1      16.304  32.984  33.136  0.00  0.00     0.252 S 
ATOM     64  O1S IDS d   1      15.297  32.918  34.162  0.00  0.00    -0.572 OA
ATOM     65  O2S IDS d   1      15.716  32.410  31.974  0.00  0.00    -0.572 OA
ATOM     66  O3S IDS d   1      16.785  34.338  32.905  0.00  0.00    -0.572 OA
ENDBRANCH  62  63
ENDBRANCH  53  62
BRANCH  54  67
ATOM     67  O3  IDS d   1      20.017  31.213  36.160  0.00  0.00    -0.389 OA
ATOM     68  H5  IDS d   1      19.895  31.880  36.825  0.00  0.00     0.210 HD
ENDBRANCH  54  67
BRANCH  58  69
ATOM     69  C6  IDS d   1      15.357  30.777  37.327  0.00  0.00     0.233 C 
ATOM     70  O61 IDS d   1      15.329  29.595  37.672  0.00  0.00    -0.642 OA
ATOM     71  O62 IDS d   1      14.345  31.504  37.482  0.00  0.00    -0.642 OA
ENDBRANCH  58  69
ENDBRANCH  51  52
ENDBRANCH  36  51
BRANCH  38  72
ATOM     72  C6  SGN d   1      19.567  36.392  36.556  0.00  0.00     0.067 C 
ATOM     73  H11 IDS d   1      19.976  37.399  36.726  0.00  0.00     0.080 H 
ATOM     74  H12 IDS d   1      18.677  36.461  35.913  0.00  0.00     0.080 H 
BRANCH  72  75
ATOM     75  O6  SGN d   1      20.544  35.561  35.955  0.00  0.00    -0.254 OA
BRANCH  75  76
ATOM     76  S2  SGN d   1      21.993  36.396  35.449  0.00  0.00     0.251 S 
ATOM     77  O4S SGN d   1      21.706  37.249  34.344  0.00  0.00    -0.572 OA
ATOM     78  O5S SGN d   1      22.918  35.367  35.059  0.00  0.00    -0.572 OA
ATOM     79  O6S SGN d   1      22.558  37.112  36.590  0.00  0.00    -0.572 OA
ENDBRANCH  75  76
ENDBRANCH  72  75
ENDBRANCH  38  72
ENDBRANCH  31  32
ENDBRANCH  17  31
BRANCH  19  80
ATOM     80  C6  IDS d   1      22.068  37.034  41.554  0.00  0.00     0.206 C 
ATOM     81  O61 IDS d   1      22.007  38.033  40.839  0.00  0.00    -0.646 OA
ATOM     82  O62 IDS d   1      23.009  36.239  41.519  0.00  0.00    -0.646 OA
ENDBRANCH  19  80
ENDBRANCH  12  13
ENDBRANCH   9  12
BRANCH   8  83
ATOM     83  O3  SGN d   1      22.342  38.214  44.229  0.00  0.00    -0.391 OA
ATOM     84  H29 IDS d   1      22.593  39.087  43.952  0.00  0.00     0.210 HD
ENDBRANCH   8  83
BRANCH  10  85
ATOM     85  C6  SGN d   1      20.851  35.591  48.114  0.00  0.00     0.067 C 
ATOM     86  H26 IDS d   1      20.807  34.868  47.286  0.00  0.00     0.080 H 
ATOM     87  H27 IDS d   1      19.857  35.681  48.576  0.00  0.00     0.080 H 
BRANCH  85  88
ATOM     88  O6  SGN d   1      21.774  35.125  49.088  0.00  0.00    -0.254 OA
BRANCH  88  89
ATOM     89  S2  SGN d   1      23.316  34.444  48.506  0.00  0.00     0.251 S 
ATOM     90  O4S SGN d   1      23.009  33.320  47.660  0.00  0.00    -0.572 OA
ATOM     91  O5S SGN d   1      24.085  34.017  49.644  0.00  0.00    -0.572 OA
ATOM     92  O6S SGN d   1      24.078  35.425  47.761  0.00  0.00    -0.572 OA
ENDBRANCH  88  89
ENDBRANCH  85  88
ENDBRANCH  10  85
BRANCH   7  93
ATOM     93  N   SGN d   1      23.634  39.975  45.867  0.00  0.00    -0.289 N 
ATOM     94  H28 IDS d   1      23.264  40.783  46.325  0.00  0.00     0.175 HD
BRANCH  93  95
ATOM     95  S1  SGN d   1      24.770  40.165  44.521  0.00  0.00     0.205 S 
ATOM     96  O1S SGN d   1      26.141  39.970  44.965  0.00  0.00    -0.578 OA
ATOM     97  O2S SGN d   1      24.564  41.510  44.059  0.00  0.00    -0.578 OA
ATOM     98  O3S SGN d   1      24.474  39.236  43.445  0.00  0.00    -0.578 OA
ENDBRANCH  93  95
ENDBRANCH   7  93
BRANCH   6  99
ATOM     99  O1  IDS d   1      21.905  39.697  47.946  0.00  0.00    -0.348 OA
BRANCH  99 100
ATOM    100  C4  IDS d   1      22.160  40.946  48.594  0.00  0.00     0.103 C 
ATOM    101  C3  IDS d   1      22.431  42.359  48.029  0.00  0.00     0.094 C 
ATOM    102  C2  IDS d   1      22.246  43.384  49.102  0.00  0.00     0.134 C 
ATOM    103  H32 IDS d   1      21.746  42.566  47.193  0.00  0.00     0.091 H 
ATOM    104  C1  IDS d   1      20.763  43.363  49.580  0.00  0.00     0.161 C 
ATOM    105  H31 IDS d   1      22.914  43.181  49.952  0.00  0.00     0.097 H 
ATOM    106  O5  IDS d   1      20.180  42.038  49.685  0.00  0.00    -0.340 OA
ATOM    107  H30 IDS d   1      20.099  44.162  49.219  0.00  0.00     0.133 H 
ATOM    108  C5  IDS d   1      21.118  40.921  49.767  0.00  0.00     0.152 C 
ATOM    109  H34 IDS d   1      21.688  41.022  50.702  0.00  0.00     0.104 H 
ATOM    110  H33 IDS d   1      23.133  40.752  49.069  0.00  0.00     0.092 H 
BRANCH 101 111
ATOM    111  O3  IDS d   1      23.752  42.409  47.591  0.00  0.00    -0.390 OA
ATOM    112  H35 IDS d   1      23.936  43.272  47.240  0.00  0.00     0.210 HD
ENDBRANCH 101 111
BRANCH 102 113
ATOM    113  O2  IDS d   1      22.560  44.638  48.516  0.00  0.00    -0.244 OA
BRANCH 113 114
ATOM    114  S   IDS d   1      24.265  45.142  48.662  0.00  0.00     0.252 S 
ATOM    115  O1S IDS d   1      24.911  45.109  47.351  0.00  0.00    -0.572 OA
ATOM    116  O2S IDS d   1      24.898  44.187  49.550  0.00  0.00    -0.572 OA
ATOM    117  O3S IDS d   1      24.357  46.478  49.244  0.00  0.00    -0.572 OA
ENDBRANCH 113 114
ENDBRANCH 102 113
BRANCH 104 118
ATOM    118  O4  SGN d   1      21.285  43.331  50.900  0.00  0.00    -0.348 OA
BRANCH 118 119
ATOM    119  C4  SGN d   1      21.080  43.285  52.390  0.00  0.00     0.095 C 
ATOM    120  C3  SGN d   1      20.654  41.888  52.872  0.00  0.00     0.087 C 
ATOM    121  C2  SGN d   1      20.485  41.919  54.393  0.00  0.00     0.096 C 
ATOM    122  H38 IDS d   1      21.409  41.142  52.584  0.00  0.00     0.090 H 
ATOM    123  C1  SGN d   1      21.807  42.346  55.063  0.00  0.00     0.151 C 
ATOM    124  H37 IDS d   1      19.702  42.644  54.660  0.00  0.00     0.085 H 
ATOM    125  O5  SGN d   1      22.150  43.682  54.565  0.00  0.00    -0.349 OA
ATOM    126  H36 IDS d   1      21.691  42.378  56.156  0.00  0.00     0.132 H 
ATOM    127  C5  SGN d   1      22.352  43.756  53.112  0.00  0.00     0.091 C 
ATOM    128  H40 IDS d   1      23.182  43.088  52.839  0.00  0.00     0.090 H 
ATOM    129  H39 IDS d   1      20.269  43.985  52.640  0.00  0.00     0.091 H 
BRANCH 120 130
ATOM    130  O3  SGN d   1      19.387  41.559  52.304  0.00  0.00    -0.391 OA
ATOM    131  H45 IDS d   1      19.456  41.562  51.356  0.00  0.00     0.210 HD
ENDBRANCH 120 130
BRANCH 121 132
ATOM    132  N   SGN d   1      20.072  40.579  54.833  0.00  0.00    -0.289 N 
ATOM    133  H43 IDS d   1      19.528  40.016  54.211  0.00  0.00     0.175 HD
BRANCH 132 134
ATOM    134  S1  SGN d   1      20.503  39.918  56.432  0.00  0.00     0.205 S 
ATOM    135  O1S SGN d   1      19.878  38.609  56.552  0.00  0.00    -0.578 OA
ATOM    136  O2S SGN d   1      19.991  40.844  57.423  0.00  0.00    -0.578 OA
ATOM    137  O3S SGN d   1      21.938  39.731  56.583  0.00  0.00    -0.578 OA
ENDBRANCH 132 134
ENDBRANCH 121 132
BRANCH 123 138
ATOM    138  O1  SGN d   1      22.809  41.372  54.711  0.00  0.00    -0.369 OA
ATOM    139  H44 IDS d   1      22.555  40.521  55.049  0.00  0.00     0.212 HD
ENDBRANCH 123 138
BRANCH 127 140
ATOM    140  C6  SGN d   1      22.714  45.188  52.676  0.00  0.00     0.067 C 
ATOM    141  H41 IDS d   1      22.878  45.204  51.588  0.00  0.00     0.080 H 
ATOM    142  H42 IDS d   1      23.635  45.500  53.190  0.00  0.00     0.080 H 
BRANCH 140 143
ATOM    143  O6  SGN d   1      21.649  46.109  53.009  0.00  0.00    -0.254 OA
BRANCH 143 144
ATOM    144  S2  SGN d   1      20.828  47.012  51.713  0.00  0.00     0.251 S 
ATOM    145  O4S SGN d   1      20.133  46.101  50.814  0.00  0.00    -0.572 OA
ATOM    146  O5S SGN d   1      21.841  47.783  50.998  0.00  0.00    -0.572 OA
ATOM    147  O6S SGN d   1      19.864  47.912  52.314  0.00  0.00    -0.572 OA
ENDBRANCH 143 144
ENDBRANCH 140 143
ENDBRANCH 127 140
ENDBRANCH 118 119
ENDBRANCH 104 118
BRANCH 108 148
ATOM    148  C6  IDS d   1      20.293  39.610  49.860  0.00  0.00     0.206 C 
ATOM    149  O61 IDS d   1      20.949  38.539  49.864  0.00  0.00    -0.646 OA
ATOM    150  O62 IDS d   1      19.030  39.676  49.949  0.00  0.00    -0.646 OA
ENDBRANCH 108 148
ENDBRANCH  99 100
ENDBRANCH   6  99
TORSDOF 41
