REMARK  8 active torsions:
REMARK  status: ('A' for Active; 'I' for Inactive)
REMARK    1  A    between atoms: C15_10  and  C1_1 
REMARK    2  A    between atoms: C3_3  and  C9_7 
REMARK    3  A    between atoms: C6_26  and  C7_5 
REMARK    4  A    between atoms: C4_23  and  C8_6 
REMARK       I    between atoms: C9_7  and  N10_19 
REMARK    5  A    between atoms: C11_8  and  C12_9 
REMARK    6  A    between atoms: N10_19  and  C11_8 
REMARK       I    between atoms: N16_20  and  C15_10 
REMARK    7  A    between atoms: C17_21  and  N16_20 
REMARK    8  A    between atoms: C18_22  and  C17_21 
ROOT
ATOM      1  C1  PB3 d   1     -11.644  27.424  44.934  0.00  0.00     0.128 A 
ATOM      2  C2  PB3 d   1     -11.094  27.999  46.071  0.00  0.00    -0.016 A 
ATOM      3  C3  PB3 d   1      -9.716  28.040  46.183  0.00  0.00     0.128 A 
ATOM      4  N6  PB3 d   1     -10.816  26.897  43.919  0.00  0.00    -0.236 NA
ATOM      5  N4  PB3 d   1      -8.880  27.513  45.169  0.00  0.00    -0.236 NA
ATOM      6  C5  PB3 d   1      -9.426  26.934  44.018  0.00  0.00     0.088 A 
ATOM      7  H1  PB3 d   1     -11.728  28.405  46.851  0.00  0.00     0.091 H 
ATOM      8  H16 PB3 d   1      -8.794  26.531  43.235  0.00  0.00     0.146 H 
ENDROOT
BRANCH   1   9
ATOM      9  C15 PB3 d   1     -13.102  27.363  44.816  0.00  0.00     0.270 C 
ATOM     10  N16 PB3 d   1     -13.597  26.418  43.918  0.00  0.00    -0.351 N 
ATOM     11  H18 PB3 d   1     -12.942  25.863  43.405  0.00  0.00     0.163 HD
ATOM     12  O41 PB3 d   1     -13.919  28.049  45.452  0.00  0.00    -0.266 OA
BRANCH  10  13
ATOM     13  C17 PB3 d   1     -15.046  26.194  43.684  0.00  0.00     0.019 C 
ATOM     14  H19 PB3 d   1     -15.195  25.962  42.619  0.00  0.00     0.071 H 
ATOM     15  H20 PB3 d   1     -15.587  27.118  43.937  0.00  0.00     0.071 H 
BRANCH  13  16
ATOM     16  C18 PB3 d   1     -15.627  25.046  44.518  0.00  0.00    -0.040 A 
ATOM     17  C21 PB3 d   1     -16.642  24.211  43.959  0.00  0.00    -0.070 A 
ATOM     18  C4  PB3 d   1     -17.185  23.133  44.749  0.00  0.00    -0.061 A 
ATOM     19  H10 PB3 d   1     -17.001  24.386  42.951  0.00  0.00     0.085 H 
ATOM     20  C23 PB3 d   1     -16.734  22.873  46.087  0.00  0.00    -0.077 A 
ATOM     21  C24 PB3 d   1     -15.722  23.698  46.659  0.00  0.00    -0.082 A 
ATOM     22  H21 PB3 d   1     -17.160  22.056  46.658  0.00  0.00     0.084 H 
ATOM     23  C25 PB3 d   1     -15.178  24.772  45.877  0.00  0.00    -0.075 A 
ATOM     24  H11 PB3 d   1     -15.369  23.517  47.668  0.00  0.00     0.083 H 
ATOM     25  H22 PB3 d   1     -14.408  25.399  46.312  0.00  0.00     0.084 H 
BRANCH  18  26
ATOM     26  C8  PB3 d   1     -18.271  22.239  44.149  0.00  0.00    -0.051 C 
ATOM     27  H5  PB3 d   1     -18.497  22.573  43.126  0.00  0.00     0.033 H 
ATOM     28  H6  PB3 d   1     -19.180  22.303  44.765  0.00  0.00     0.033 H 
ATOM     29  H7  PB3 d   1     -17.917  21.198  44.124  0.00  0.00     0.033 H 
ENDBRANCH  18  26
ENDBRANCH  13  16
ENDBRANCH  10  13
ENDBRANCH   1   9
BRANCH   3  30
ATOM     30  C9  PB3 d   1      -9.131  28.625  47.377  0.00  0.00     0.270 C 
ATOM     31  N10 PB3 d   1      -7.795  28.333  47.547  0.00  0.00    -0.351 N 
ATOM     32  H17 PB3 d   1      -7.331  27.782  46.853  0.00  0.00     0.163 HD
ATOM     33  O42 PB3 d   1      -9.705  29.301  48.233  0.00  0.00    -0.266 OA
BRANCH  31  34
ATOM     34  C11 PB3 d   1      -7.014  28.807  48.726  0.00  0.00     0.019 C 
ATOM     35  H8  PB3 d   1      -5.947  28.782  48.459  0.00  0.00     0.071 H 
ATOM     36  H9  PB3 d   1      -7.315  29.844  48.938  0.00  0.00     0.071 H 
BRANCH  34  37
ATOM     37  C12 PB3 d   1      -7.198  27.993  50.004  0.00  0.00    -0.040 A 
ATOM     38  C30 PB3 d   1      -8.085  26.841  50.056  0.00  0.00    -0.075 A 
ATOM     39  C31 PB3 d   1      -8.264  26.083  51.248  0.00  0.00    -0.082 A 
ATOM     40  H12 PB3 d   1      -8.625  26.552  49.162  0.00  0.00     0.084 H 
ATOM     41  C32 PB3 d   1      -7.551  26.462  52.420  0.00  0.00    -0.077 A 
ATOM     42  H13 PB3 d   1      -8.933  25.230  51.263  0.00  0.00     0.083 H 
ATOM     43  C6  PB3 d   1      -6.675  27.591  52.378  0.00  0.00    -0.061 A 
ATOM     44  H14 PB3 d   1      -7.671  25.898  53.338  0.00  0.00     0.084 H 
ATOM     45  C34 PB3 d   1      -6.491  28.360  51.188  0.00  0.00    -0.070 A 
ATOM     46  H15 PB3 d   1      -5.822  29.213  51.185  0.00  0.00     0.085 H 
BRANCH  43  47
ATOM     47  C7  PB3 d   1      -5.912  27.992  53.639  0.00  0.00    -0.051 C 
ATOM     48  H2  PB3 d   1      -6.166  27.301  54.457  0.00  0.00     0.033 H 
ATOM     49  H3  PB3 d   1      -6.190  29.017  53.925  0.00  0.00     0.033 H 
ATOM     50  H4  PB3 d   1      -4.830  27.946  53.443  0.00  0.00     0.033 H 
ENDBRANCH  43  47
ENDBRANCH  34  37
ENDBRANCH  31  34
ENDBRANCH   3  30
TORSDOF 8
