REMARK  8 active torsions:
REMARK  status: ('A' for Active; 'I' for Inactive)
REMARK    1  A    between atoms: C1_1  and  C12_9 
REMARK    2  A    between atoms: C9_6  and  C3_3 
REMARK    3  A    between atoms: C4_26  and  C7_4 
REMARK    4  A    between atoms: C6_23  and  C8_5 
REMARK       I    between atoms: N3_21  and  C9_6 
REMARK    5  A    between atoms: C11_8  and  C10_7 
REMARK    6  A    between atoms: C10_7  and  N3_21 
REMARK       I    between atoms: C12_9  and  N4_22 
REMARK    7  A    between atoms: C13_10  and  C14_11 
REMARK    8  A    between atoms: N4_22  and  C13_10 
ROOT
ATOM      1  C1  PB4 d   1     -11.602  27.332  44.847  0.00  0.00     0.128 A 
ATOM      2  C2  PB4 d   1     -11.042  27.940  45.964  0.00  0.00    -0.016 A 
ATOM      3  C3  PB4 d   1      -9.660  27.991  46.058  0.00  0.00     0.128 A 
ATOM      4  N1  PB4 d   1      -8.831  27.441  45.049  0.00  0.00    -0.236 NA
ATOM      5  C5  PB4 d   1      -9.388  26.828  43.921  0.00  0.00     0.088 A 
ATOM      6  N2  PB4 d   1     -10.779  26.781  43.838  0.00  0.00    -0.236 NA
ATOM      7  H1  PB4 d   1     -11.669  28.363  46.741  0.00  0.00     0.091 H 
ATOM      8  H16 PB4 d   1      -8.763  26.406  43.142  0.00  0.00     0.146 H 
ENDROOT
BRANCH   1   9
ATOM      9  C12 PB4 d   1     -13.064  27.260  44.739  0.00  0.00     0.270 C 
ATOM     10  N4  PB4 d   1     -13.561  26.296  43.855  0.00  0.00    -0.351 N 
ATOM     11  H18 PB4 d   1     -12.906  25.734  43.350  0.00  0.00     0.163 HD
ATOM     12  O1  PB4 d   1     -13.883  27.954  45.368  0.00  0.00    -0.266 OA
BRANCH  10  13
ATOM     13  C13 PB4 d   1     -15.011  26.062  43.626  0.00  0.00     0.019 C 
ATOM     14  H10 PB4 d   1     -15.551  26.997  43.835  0.00  0.00     0.071 H 
ATOM     15  H11 PB4 d   1     -15.155  25.783  42.572  0.00  0.00     0.071 H 
BRANCH  13  16
ATOM     16  C14 PB4 d   1     -15.604  24.954  44.505  0.00  0.00    -0.040 A 
ATOM     17  C15 PB4 d   1     -16.634  24.112  43.982  0.00  0.00    -0.067 A 
ATOM     18  C6  PB4 d   1     -17.189  23.074  44.816  0.00  0.00    -0.023 A 
ATOM     19  H12 PB4 d   1     -16.994  24.252  42.969  0.00  0.00     0.085 H 
ATOM     20  C16 PB4 d   1     -16.734  22.861  46.167  0.00  0.00     0.122 A 
ATOM     21  C17 PB4 d   1     -15.707  23.695  46.697  0.00  0.00    -0.045 A 
ATOM     22  F2  PB4 d   1     -17.298  21.828  46.977  0.00  0.00    -0.206 F 
ATOM     23  C18 PB4 d   1     -15.153  24.727  45.870  0.00  0.00    -0.072 A 
ATOM     24  H19 PB4 d   1     -15.350  23.551  47.710  0.00  0.00     0.088 H 
ATOM     25  H20 PB4 d   1     -14.372  25.360  46.275  0.00  0.00     0.084 H 
BRANCH  18  26
ATOM     26  C8  PB4 d   1     -18.293  22.176  44.247  0.00  0.00    -0.048 C 
ATOM     27  H5  PB4 d   1     -18.514  22.477  43.212  0.00  0.00     0.033 H 
ATOM     28  H6  PB4 d   1     -19.201  22.277  44.860  0.00  0.00     0.033 H 
ATOM     29  H7  PB4 d   1     -17.957  21.129  44.260  0.00  0.00     0.033 H 
ENDBRANCH  18  26
ENDBRANCH  13  16
ENDBRANCH  10  13
ENDBRANCH   1   9
BRANCH   3  30
ATOM     30  C9  PB4 d   1      -9.058  28.610  47.229  0.00  0.00     0.270 C 
ATOM     31  N3  PB4 d   1      -7.720  28.315  47.389  0.00  0.00    -0.351 N 
ATOM     32  H17 PB4 d   1      -7.266  27.742  46.707  0.00  0.00     0.163 HD
ATOM     33  O2  PB4 d   1      -9.615  29.317  48.077  0.00  0.00    -0.266 OA
BRANCH  31  34
ATOM     34  C10 PB4 d   1      -6.929  28.823  48.546  0.00  0.00     0.019 C 
ATOM     35  H8  PB4 d   1      -5.866  28.822  48.264  0.00  0.00     0.071 H 
ATOM     36  H9  PB4 d   1      -7.251  29.853  48.758  0.00  0.00     0.071 H 
BRANCH  34  37
ATOM     37  C11 PB4 d   1      -7.087  28.003  49.816  0.00  0.00    -0.040 A 
ATOM     38  C19 PB4 d   1      -7.950  26.838  49.846  0.00  0.00    -0.072 A 
ATOM     39  C20 PB4 d   1      -8.120  26.057  51.014  0.00  0.00    -0.045 A 
ATOM     40  H13 PB4 d   1      -8.482  26.556  48.945  0.00  0.00     0.084 H 
ATOM     41  C21 PB4 d   1      -7.420  26.424  52.190  0.00  0.00     0.122 A 
ATOM     42  H14 PB4 d   1      -8.774  25.193  51.009  0.00  0.00     0.088 H 
ATOM     43  C4  PB4 d   1      -6.559  27.575  52.179  0.00  0.00    -0.023 A 
ATOM     44  F1  PB4 d   1      -7.589  25.595  53.445  0.00  0.00    -0.206 F 
ATOM     45  C22 PB4 d   1      -6.386  28.368  51.005  0.00  0.00    -0.067 A 
ATOM     46  H15 PB4 d   1      -5.733  29.233  51.016  0.00  0.00     0.085 H 
BRANCH  43  47
ATOM     47  C7  PB4 d   1      -5.805  27.966  53.454  0.00  0.00    -0.048 C 
ATOM     48  H2  PB4 d   1      -5.200  28.864  53.261  0.00  0.00     0.033 H 
ATOM     49  H3  PB4 d   1      -5.147  27.139  53.759  0.00  0.00     0.033 H 
ATOM     50  H4  PB4 d   1      -6.527  28.176  54.257  0.00  0.00     0.033 H 
ENDBRANCH  43  47
ENDBRANCH  34  37
ENDBRANCH  31  34
ENDBRANCH   3  30
TORSDOF 8
