REMARK  11 active torsions:
REMARK  status: ('A' for Active; 'I' for Inactive)
REMARK       I    between atoms: C69_2  and  N71_3 
REMARK    1  A    between atoms: C69_2  and  C30_5 
REMARK    2  A    between atoms: N71_3  and  C73_4 
REMARK    3  A    between atoms: C30_5  and  C49_6 
REMARK    4  A    between atoms: C30_5  and  N2_17 
REMARK    5  A    between atoms: C49_6  and  C52_7 
REMARK    6  A    between atoms: N11_22  and  C27_30 
REMARK    7  A    between atoms: C12_23  and  C14_24 
REMARK    8  A    between atoms: C14_24  and  C17_25 
REMARK    9  A    between atoms: C17_25  and  C23_26 
REMARK   10  A    between atoms: C17_25  and  C19_27 
REMARK   11  A    between atoms: C27_30  and  C33_31 
ROOT
ATOM      1  N2  LA1 d   1       7.112  46.815  42.469  0.00  0.00    -0.336 N 
ATOM      2  C3  LA1 d   1       6.451  45.803  43.278  0.00  0.00     0.006 C 
ATOM      3  C6  LA1 d   1       7.233  45.566  44.580  0.00  0.00     0.024 C 
ATOM      4  C9  LA1 d   1       8.556  44.833  44.484  0.00  0.00     0.222 C 
ATOM      5  O10 LA1 d   1       8.943  44.312  45.526  0.00  0.00    -0.273 OA
ATOM      6  N11 LA1 d   1       9.343  44.728  43.414  0.00  0.00    -0.334 N 
ATOM      7  C12 LA1 d   1       9.034  45.268  42.089  0.00  0.00     0.092 C 
ATOM      8  C1  LA1 d   1       8.328  46.594  41.945  0.00  0.00     0.243 C 
ATOM      9  O32 LA1 d   1       8.941  47.431  41.277  0.00  0.00    -0.271 OA
ATOM     10  H15 LA1 d   1       6.398  44.862  42.710  0.00  0.00     0.065 H 
ATOM     11  H16 LA1 d   1       5.433  46.142  43.523  0.00  0.00     0.065 H 
ATOM     12  H17 LA1 d   1       6.584  44.985  45.252  0.00  0.00     0.049 H 
ATOM     13  H18 LA1 d   1       7.435  46.551  45.026  0.00  0.00     0.049 H 
ATOM     14  H19 LA1 d   1      10.010  45.433  41.609  0.00  0.00     0.087 H 
ENDROOT
BRANCH   1  15
ATOM     15  C30 LA1 d   1       6.490  48.124  42.253  0.00  0.00     0.095 C 
ATOM     16  H5  LA1 d   1       7.082  48.673  41.506  0.00  0.00     0.088 H 
BRANCH  15  17
ATOM     17  C69 LA1 d   1       6.526  48.891  43.558  0.00  0.00     0.240 C 
ATOM     18  O70 LA1 d   1       5.754  48.608  44.464  0.00  0.00    -0.271 OA
ATOM     19  N71 LA1 d   1       7.475  49.836  43.658  0.00  0.00    -0.364 N 
ATOM     20  H1  LA1 d   1       8.092  49.983  42.885  0.00  0.00     0.161 HD
BRANCH  19  21
ATOM     21  C73 LA1 d   1       7.638  50.652  44.848  0.00  0.00    -0.018 C 
ATOM     22  H2  LA1 d   1       8.473  51.352  44.701  0.00  0.00     0.056 H 
ATOM     23  H3  LA1 d   1       7.851  50.004  45.711  0.00  0.00     0.056 H 
ATOM     24  H4  LA1 d   1       6.713  51.218  45.034  0.00  0.00     0.056 H 
ENDBRANCH  19  21
ENDBRANCH  15  17
BRANCH  15  25
ATOM     25  C49 LA1 d   1       5.053  47.994  41.718  0.00  0.00    -0.014 C 
ATOM     26  H6  LA1 d   1       4.674  49.005  41.509  0.00  0.00     0.043 H 
ATOM     27  H7  LA1 d   1       4.439  47.527  42.502  0.00  0.00     0.043 H 
BRANCH  25  28
ATOM     28  C52 LA1 d   1       4.909  47.168  40.453  0.00  0.00    -0.055 A 
ATOM     29  C59 LA1 d   1       4.249  45.914  40.473  0.00  0.00    -0.066 A 
ATOM     30  C58 LA1 d   1       4.088  45.175  39.297  0.00  0.00    -0.025 A 
ATOM     31  H8  LA1 d   1       3.865  45.524  41.409  0.00  0.00     0.085 H 
ATOM     32  C61 LA1 d   1       3.439  43.914  39.293  0.00  0.00    -0.072 A 
ATOM     33  C57 LA1 d   1       4.617  45.664  38.108  0.00  0.00    -0.026 A 
ATOM     34  C63 LA1 d   1       3.316  43.205  38.090  0.00  0.00    -0.082 A 
ATOM     35  H9  LA1 d   1       3.041  43.502  40.213  0.00  0.00     0.084 H 
ATOM     36  C65 LA1 d   1       3.835  43.719  36.890  0.00  0.00    -0.082 A 
ATOM     37  H10 LA1 d   1       2.812  42.245  38.086  0.00  0.00     0.083 H 
ATOM     38  C67 LA1 d   1       4.494  44.951  36.911  0.00  0.00    -0.072 A 
ATOM     39  H11 LA1 d   1       3.726  43.169  35.962  0.00  0.00     0.083 H 
ATOM     40  H12 LA1 d   1       4.912  45.356  35.996  0.00  0.00     0.084 H 
ATOM     41  C55 LA1 d   1       5.272  46.899  38.099  0.00  0.00    -0.072 A 
ATOM     42  C53 LA1 d   1       5.420  47.638  39.268  0.00  0.00    -0.076 A 
ATOM     43  H13 LA1 d   1       5.670  47.286  37.168  0.00  0.00     0.084 H 
ATOM     44  H14 LA1 d   1       5.941  48.589  39.244  0.00  0.00     0.084 H 
ENDBRANCH  25  28
ENDBRANCH  15  25
ENDBRANCH   1  15
BRANCH   7  45
ATOM     45  C14 LA1 d   1       8.326  44.102  41.293  0.00  0.00    -0.035 C 
ATOM     46  H20 LA1 d   1       7.416  43.828  41.848  0.00  0.00     0.037 H 
ATOM     47  H21 LA1 d   1       9.017  43.246  41.277  0.00  0.00     0.037 H 
BRANCH  45  48
ATOM     48  C17 LA1 d   1       7.910  44.389  39.834  0.00  0.00    -0.059 C 
ATOM     49  H22 LA1 d   1       7.234  45.257  39.823  0.00  0.00     0.038 H 
BRANCH  48  50
ATOM     50  C23 LA1 d   1       7.150  43.155  39.266  0.00  0.00    -0.073 C 
ATOM     51  H23 LA1 d   1       6.851  43.355  38.226  0.00  0.00     0.028 H 
ATOM     52  H24 LA1 d   1       6.254  42.964  39.874  0.00  0.00     0.028 H 
ATOM     53  H25 LA1 d   1       7.808  42.274  39.296  0.00  0.00     0.028 H 
ENDBRANCH  48  50
BRANCH  48  54
ATOM     54  C19 LA1 d   1       9.128  44.714  38.973  0.00  0.00    -0.073 C 
ATOM     55  H26 LA1 d   1       9.650  45.587  39.391  0.00  0.00     0.028 H 
ATOM     56  H27 LA1 d   1       8.802  44.938  37.947  0.00  0.00     0.028 H 
ATOM     57  H28 LA1 d   1       9.810  43.851  38.961  0.00  0.00     0.028 H 
ENDBRANCH  48  54
ENDBRANCH  45  48
ENDBRANCH   7  45
BRANCH   6  58
ATOM     58  C27 LA1 d   1      10.578  43.970  43.572  0.00  0.00     0.024 C 
ATOM     59  H29 LA1 d   1      10.853  43.518  42.608  0.00  0.00     0.071 H 
ATOM     60  H30 LA1 d   1      10.425  43.176  44.318  0.00  0.00     0.071 H 
BRANCH  58  61
ATOM     61  C33 LA1 d   1      11.679  44.870  44.028  0.00  0.00    -0.022 A 
ATOM     62  C39 LA1 d   1      11.940  45.023  45.446  0.00  0.00    -0.062 A 
ATOM     63  C38 LA1 d   1      13.071  45.922  45.869  0.00  0.00    -0.007 A 
ATOM     64  H31 LA1 d   1      11.337  44.504  46.182  0.00  0.00     0.085 H 
ATOM     65  C41 LA1 d   1      13.355  46.095  47.230  0.00  0.00    -0.071 A 
ATOM     66  C37 LA1 d   1      13.820  46.575  44.898  0.00  0.00     0.066 A 
ATOM     67  C43 LA1 d   1      14.410  46.939  47.594  0.00  0.00    -0.082 A 
ATOM     68  H32 LA1 d   1      12.769  45.585  47.986  0.00  0.00     0.084 H 
ATOM     69  C45 LA1 d   1      15.166  47.602  46.619  0.00  0.00    -0.081 A 
ATOM     70  H33 LA1 d   1      14.645  47.081  48.643  0.00  0.00     0.083 H 
ATOM     71  C47 LA1 d   1      14.879  47.422  45.263  0.00  0.00    -0.054 A 
ATOM     72  H34 LA1 d   1      15.977  48.257  46.917  0.00  0.00     0.083 H 
ATOM     73  H35 LA1 d   1      15.465  47.928  44.505  0.00  0.00     0.087 H 
ATOM     74  N36 LA1 d   1      13.496  46.368  43.515  0.00  0.00    -0.260 NA
ATOM     75  C34 LA1 d   1      12.406  45.499  43.122  0.00  0.00     0.011 A 
ATOM     76  H36 LA1 d   1      12.184  45.363  42.070  0.00  0.00     0.115 H 
ENDBRANCH  58  61
ENDBRANCH   6  58
TORSDOF 11
