REMARK  6 active torsions:
REMARK  status: ('A' for Active; 'I' for Inactive)
REMARK    1  A    between atoms: C15_8  and  C1_1 
REMARK    2  A    between atoms: C3_3  and  C9_5 
REMARK       I    between atoms: C9_5  and  N10_17 
REMARK    3  A    between atoms: C11_6  and  C12_7 
REMARK    4  A    between atoms: N10_17  and  C11_6 
REMARK       I    between atoms: N16_18  and  C15_8 
REMARK    5  A    between atoms: C17_19  and  N16_18 
REMARK    6  A    between atoms: C18_20  and  C17_19 
ROOT
ATOM      1  C1  PB5 d   1     -11.839  27.362  44.995  0.00  0.00     0.128 A 
ATOM      2  C2  PB5 d   1     -11.264  27.944  46.105  0.00  0.00    -0.016 A 
ATOM      3  C3  PB5 d   1      -9.891  28.002  46.183  0.00  0.00     0.128 A 
ATOM      4  N6  PB5 d   1     -11.040  26.845  43.976  0.00  0.00    -0.236 NA
ATOM      5  N4  PB5 d   1      -9.091  27.484  45.163  0.00  0.00    -0.236 NA
ATOM      6  C5  PB5 d   1      -9.663  26.901  44.046  0.00  0.00     0.088 A 
ATOM      7  H1  PB5 d   1     -11.881  28.348  46.900  0.00  0.00     0.091 H 
ATOM      8  H10 PB5 d   1      -9.047  26.500  43.249  0.00  0.00     0.146 H 
ENDROOT
BRANCH   1   9
ATOM      9  C15 PB5 d   1     -13.298  27.278  44.904  0.00  0.00     0.270 C 
ATOM     10  N16 PB5 d   1     -13.802  26.321  44.037  0.00  0.00    -0.351 N 
ATOM     11  H12 PB5 d   1     -13.164  25.757  43.513  0.00  0.00     0.163 HD
ATOM     12  O41 PB5 d   1     -14.112  27.957  45.540  0.00  0.00    -0.266 OA
BRANCH  10  13
ATOM     13  C17 PB5 d   1     -15.252  26.109  43.864  0.00  0.00     0.021 C 
ATOM     14  H13 PB5 d   1     -15.457  25.941  42.796  0.00  0.00     0.071 H 
ATOM     15  H14 PB5 d   1     -15.781  27.012  44.202  0.00  0.00     0.071 H 
BRANCH  13  16
ATOM     16  C18 PB5 d   1     -15.777  24.915  44.653  0.00  0.00    -0.023 A 
ATOM     17  C21 PB5 d   1     -16.566  23.948  44.013  0.00  0.00     0.009 A 
ATOM     18  N22 PB5 d   1     -17.047  22.844  44.757  0.00  0.00    -0.273 NA
ATOM     19  H4  PB5 d   1     -16.805  24.045  42.960  0.00  0.00     0.115 H 
ATOM     20  C23 PB5 d   1     -16.756  22.686  46.131  0.00  0.00     0.002 A 
ATOM     21  C24 PB5 d   1     -15.967  23.648  46.781  0.00  0.00    -0.065 A 
ATOM     22  H15 PB5 d   1     -17.138  21.831  46.677  0.00  0.00     0.114 H 
ATOM     23  C25 PB5 d   1     -15.486  24.751  46.039  0.00  0.00    -0.072 A 
ATOM     24  H5  PB5 d   1     -15.730  23.547  47.834  0.00  0.00     0.085 H 
ATOM     25  H16 PB5 d   1     -14.877  25.495  46.539  0.00  0.00     0.084 H 
ENDBRANCH  13  16
ENDBRANCH  10  13
ENDBRANCH   1   9
BRANCH   3  26
ATOM     26  C9  PB5 d   1      -9.268  28.598  47.359  0.00  0.00     0.270 C 
ATOM     27  N10 PB5 d   1      -7.945  28.292  47.522  0.00  0.00    -0.351 N 
ATOM     28  H11 PB5 d   1      -7.478  27.716  46.851  0.00  0.00     0.163 HD
ATOM     29  O42 PB5 d   1      -9.800  29.303  48.214  0.00  0.00    -0.266 OA
BRANCH  27  30
ATOM     30  C11 PB5 d   1      -7.204  28.814  48.693  0.00  0.00     0.021 C 
ATOM     31  H2  PB5 d   1      -6.134  28.832  48.439  0.00  0.00     0.071 H 
ATOM     32  H3  PB5 d   1      -7.552  29.839  48.887  0.00  0.00     0.071 H 
BRANCH  30  33
ATOM     33  C12 PB5 d   1      -7.371  28.013  49.966  0.00  0.00    -0.023 A 
ATOM     34  C30 PB5 d   1      -8.199  26.856  49.999  0.00  0.00    -0.072 A 
ATOM     35  C31 PB5 d   1      -8.373  26.102  51.173  0.00  0.00    -0.065 A 
ATOM     36  H6  PB5 d   1      -8.710  26.547  49.094  0.00  0.00     0.084 H 
ATOM     37  C32 PB5 d   1      -7.709  26.502  52.340  0.00  0.00     0.002 A 
ATOM     38  H7  PB5 d   1      -9.011  25.225  51.175  0.00  0.00     0.085 H 
ATOM     39  N33 PB5 d   1      -6.886  27.644  52.310  0.00  0.00    -0.273 NA
ATOM     40  H8  PB5 d   1      -7.828  25.937  53.258  0.00  0.00     0.114 H 
ATOM     41  C34 PB5 d   1      -6.709  28.405  51.140  0.00  0.00     0.009 A 
ATOM     42  H9  PB5 d   1      -6.071  29.281  51.145  0.00  0.00     0.115 H 
ENDBRANCH  30  33
ENDBRANCH  27  30
ENDBRANCH   3  26
TORSDOF 6
