REMARK  21 active torsions:
REMARK  status: ('A' for Active; 'I' for Inactive)
REMARK    1  A    between atoms: C3G_1  and  O3G_7 
REMARK    2  A    between atoms: C4G_2  and  O4G_28 
REMARK    3  A    between atoms: C5G_3  and  C6G_29 
REMARK    4  A    between atoms: C2G_4  and  CZH_23 
REMARK    5  A    between atoms: O3G_7  and  C1A_9 
REMARK    6  A    between atoms: C1A_9  and  C2A_10 
REMARK    7  A    between atoms: C2A_10  and  C3A_11 
REMARK    8  A    between atoms: C3A_11  and  C4A_12 
REMARK    9  A    between atoms: C4A_12  and  C5A_13 
REMARK   10  A    between atoms: C5A_13  and  C6A_14 
REMARK   11  A    between atoms: C6A_14  and  C7A_15 
REMARK   12  A    between atoms: C7A_15  and  C8A_16 
REMARK   13  A    between atoms: C8A_16  and  C9A_17 
REMARK   14  A    between atoms: C9A_17  and  CAA_18 
REMARK   15  A    between atoms: CAA_18  and  CBA_19 
REMARK   16  A    between atoms: CBA_19  and  CCA_20 
REMARK   17  A    between atoms: CCA_20  and  CDA_21 
REMARK   18  A    between atoms: CDA_21  and  CEA_22 
REMARK   19  A    between atoms: CZH_23  and  CYH_24 
REMARK       I    between atoms: CYH_24  and  NXH_26 
REMARK   20  A    between atoms: NXH_26  and  OXH_27 
REMARK   21  A    between atoms: C6G_29  and  O6G_30 
ROOT
ATOM      1  C3A TUX d   1     -10.937   7.464  -2.860  0.00  0.00    -0.057 C 
ATOM      2  H9  TUX d   1      -9.902   7.672  -3.170  0.00  0.00     0.033 H 
ATOM      3  H10 TUX d   1     -10.931   6.901  -1.915  0.00  0.00     0.033 H 
ENDROOT
BRANCH   1   4
ATOM      4  C2A TUX d   1     -11.623   6.629  -3.936  0.00  0.00     0.016 C 
ATOM      5  H7  TUX d   1     -12.608   7.063  -4.164  0.00  0.00     0.048 H 
ATOM      6  H8  TUX d   1     -11.005   6.625  -4.846  0.00  0.00     0.048 H 
BRANCH   4   7
ATOM      7  C1A TUX d   1     -11.801   5.203  -3.439  0.00  0.00     0.259 C 
ATOM      8  O1A TUX d   1     -12.772   4.912  -2.768  0.00  0.00    -0.265 OA
BRANCH   7   9
ATOM      9  O3G TUX d   1     -10.829   4.197  -3.782  0.00  0.00    -0.313 OA
BRANCH   9  10
ATOM     10  C3G TUX d   1     -10.724   3.165  -2.782  0.00  0.00     0.081 C 
ATOM     11  C4G TUX d   1     -11.171   1.833  -3.356  0.00  0.00     0.088 C 
ATOM     12  C5G TUX d   1     -10.963   0.705  -2.352  0.00  0.00     0.086 C 
ATOM     13  H2  TUX d   1     -10.576   1.619  -4.256  0.00  0.00     0.091 H 
ATOM     14  O5G TUX d   1      -9.597   0.665  -1.888  0.00  0.00    -0.381 OA
ATOM     15  H3  TUX d   1     -11.632   0.875  -1.496  0.00  0.00     0.090 H 
ATOM     16  C1G TUX d   1      -9.152   1.905  -1.297  0.00  0.00     0.026 C 
ATOM     17  C2G TUX d   1      -9.298   3.066  -2.275  0.00  0.00     0.003 C 
ATOM     18  H5  TUX d   1      -9.756   2.112  -0.401  0.00  0.00     0.075 H 
ATOM     19  H6  TUX d   1      -8.094   1.807  -1.012  0.00  0.00     0.075 H 
ATOM     20  H4  TUX d   1      -8.637   2.878  -3.134  0.00  0.00     0.048 H 
ATOM     21  H1  TUX d   1     -11.381   3.424  -1.938  0.00  0.00     0.089 H 
BRANCH  11  22
ATOM     22  O4G TUX d   1     -12.544   1.906  -3.715  0.00  0.00    -0.390 OA
ATOM     23  H38 TUX d   1     -12.670   2.610  -4.341  0.00  0.00     0.210 HD
ENDBRANCH  11  22
BRANCH  12  24
ATOM     24  C6G TUX d   1     -11.268  -0.649  -2.960  0.00  0.00     0.043 C 
ATOM     25  H39 TUX d   1     -12.081  -0.539  -3.693  0.00  0.00     0.078 H 
ATOM     26  H40 TUX d   1     -11.585  -1.338  -2.163  0.00  0.00     0.078 H 
BRANCH  24  27
ATOM     27  O6G TUX d   1     -10.126  -1.187  -3.611  0.00  0.00    -0.398 OA
ATOM     28  H41 TUX d   1      -9.422  -1.288  -2.981  0.00  0.00     0.209 HD
ENDBRANCH  24  27
ENDBRANCH  12  24
BRANCH  17  29
ATOM     29  CZH TUX d   1      -8.878   4.381  -1.624  0.00  0.00     0.019 C 
ATOM     30  H34 TUX d   1      -9.221   4.398  -0.579  0.00  0.00     0.048 H 
ATOM     31  H35 TUX d   1      -9.329   5.221  -2.172  0.00  0.00     0.048 H 
BRANCH  29  32
ATOM     32  CYH TUX d   1      -7.363   4.507  -1.662  0.00  0.00     0.241 C 
ATOM     33  OYH TUX d   1      -6.795   4.734  -2.713  0.00  0.00    -0.271 OA
ATOM     34  NXH TUX d   1      -6.704   4.367  -0.546  0.00  0.00    -0.237 N 
ATOM     35  H36 TUX d   1      -7.194   4.163   0.302  0.00  0.00     0.197 HD
BRANCH  34  36
ATOM     36  OXH TUX d   1      -5.273   4.506  -0.534  0.00  0.00    -0.287 OA
ATOM     37  H37 TUX d   1      -4.951   4.375   0.350  0.00  0.00     0.244 HD
ENDBRANCH  34  36
ENDBRANCH  29  32
ENDBRANCH  17  29
ENDBRANCH   9  10
ENDBRANCH   7   9
ENDBRANCH   4   7
ENDBRANCH   1   4
BRANCH   1  38
ATOM     38  C4A TUX d   1     -11.671   8.785  -2.650  0.00  0.00    -0.065 C 
ATOM     39  H11 TUX d   1     -11.264   9.286  -1.759  0.00  0.00     0.033 H 
ATOM     40  H12 TUX d   1     -12.742   8.582  -2.500  0.00  0.00     0.033 H 
BRANCH  38  41
ATOM     41  C5A TUX d   1     -11.500   9.700  -3.861  0.00  0.00    -0.065 C 
ATOM     42  H13 TUX d   1     -11.448   9.085  -4.772  0.00  0.00     0.033 H 
ATOM     43  H14 TUX d   1     -10.567  10.273  -3.751  0.00  0.00     0.033 H 
BRANCH  41  44
ATOM     44  C6A TUX d   1     -12.674  10.674  -3.981  0.00  0.00    -0.065 C 
ATOM     45  H15 TUX d   1     -12.283  11.698  -4.068  0.00  0.00     0.033 H 
ATOM     46  H16 TUX d   1     -13.299  10.595  -3.079  0.00  0.00     0.033 H 
BRANCH  44  47
ATOM     47  C7A TUX d   1     -13.528  10.361  -5.208  0.00  0.00    -0.065 C 
ATOM     48  H17 TUX d   1     -14.582  10.575  -4.978  0.00  0.00     0.033 H 
ATOM     49  H18 TUX d   1     -13.417   9.297  -5.463  0.00  0.00     0.033 H 
BRANCH  47  50
ATOM     50  C8A TUX d   1     -13.092  11.210  -6.400  0.00  0.00    -0.065 C 
ATOM     51  H19 TUX d   1     -12.083  10.904  -6.714  0.00  0.00     0.033 H 
ATOM     52  H20 TUX d   1     -13.079  12.270  -6.105  0.00  0.00     0.033 H 
BRANCH  50  53
ATOM     53  C9A TUX d   1     -14.060  11.024  -7.566  0.00  0.00    -0.065 C 
ATOM     54  H21 TUX d   1     -15.086  11.207  -7.215  0.00  0.00     0.033 H 
ATOM     55  H22 TUX d   1     -13.979   9.993  -7.941  0.00  0.00     0.033 H 
BRANCH  53  56
ATOM     56  CAA TUX d   1     -13.739  11.995  -8.701  0.00  0.00    -0.065 C 
ATOM     57  H23 TUX d   1     -13.209  11.455  -9.499  0.00  0.00     0.033 H 
ATOM     58  H24 TUX d   1     -13.098  12.802  -8.316  0.00  0.00     0.033 H 
BRANCH  56  59
ATOM     59  CBA TUX d   1     -15.021  12.601  -9.271  0.00  0.00    -0.065 C 
ATOM     60  H25 TUX d   1     -14.783  13.144 -10.198  0.00  0.00     0.033 H 
ATOM     61  H26 TUX d   1     -15.449  13.299  -8.536  0.00  0.00     0.033 H 
BRANCH  59  62
ATOM     62  CCA TUX d   1     -16.042  11.508  -9.578  0.00  0.00    -0.065 C 
ATOM     63  H27 TUX d   1     -16.771  11.454  -8.756  0.00  0.00     0.033 H 
ATOM     64  H28 TUX d   1     -15.521  10.543  -9.670  0.00  0.00     0.033 H 
BRANCH  62  65
ATOM     65  CDA TUX d   1     -16.779  11.806 -10.882  0.00  0.00    -0.069 C 
ATOM     66  H29 TUX d   1     -16.051  11.863 -11.705  0.00  0.00     0.032 H 
ATOM     67  H30 TUX d   1     -17.304  12.768 -10.790  0.00  0.00     0.032 H 
BRANCH  65  68
ATOM     68  CEA TUX d   1     -17.795  10.707 -11.185  0.00  0.00    -0.077 C 
ATOM     69  H31 TUX d   1     -18.315  10.938 -12.126  0.00  0.00     0.027 H 
ATOM     70  H32 TUX d   1     -18.527  10.649 -10.366  0.00  0.00     0.027 H 
ATOM     71  H33 TUX d   1     -17.274   9.743 -11.281  0.00  0.00     0.027 H 
ENDBRANCH  65  68
ENDBRANCH  62  65
ENDBRANCH  59  62
ENDBRANCH  56  59
ENDBRANCH  53  56
ENDBRANCH  50  53
ENDBRANCH  47  50
ENDBRANCH  44  47
ENDBRANCH  41  44
ENDBRANCH  38  41
ENDBRANCH   1  38
TORSDOF 21
