REMARK  11 active torsions:
REMARK  status: ('A' for Active; 'I' for Inactive)
REMARK    1  A    between atoms: PG_1  and  S3G_4 
REMARK    2  A    between atoms: O3B_8  and  PG_1 
REMARK    3  A    between atoms: PB_5  and  O3B_8 
REMARK    4  A    between atoms: O3A_12  and  PB_5 
REMARK    5  A    between atoms: PA_9  and  O3A_12 
REMARK    6  A    between atoms: PA_9  and  O5_13 
REMARK    7  A    between atoms: O5_13  and  C5_14 
REMARK    8  A    between atoms: C5_14  and  C4_15 
REMARK    9  A    between atoms: C3_17  and  O3_18 
REMARK   10  A    between atoms: C2_19  and  O2_20 
REMARK   11  A    between atoms: C1_21  and  N9_22 
ROOT
ATOM      1  C4  AGS d   1      55.486  84.079  26.507  0.00  0.00     0.089 C 
ATOM      2  O4  AGS d   1      55.420  83.391  25.205  0.00  0.00    -0.353 OA
ATOM      3  C3  AGS d   1      55.306  85.582  26.160  0.00  0.00     0.091 C 
ATOM      4  C2  AGS d   1      55.768  85.684  24.705  0.00  0.00     0.105 C 
ATOM      5  C1  AGS d   1      55.534  84.335  24.119  0.00  0.00     0.139 C 
ATOM      6  H4  AGS d   1      56.454  83.920  27.004  0.00  0.00     0.090 H 
ATOM      7  H5  AGS d   1      54.236  85.832  26.208  0.00  0.00     0.091 H 
ATOM      8  H7  AGS d   1      55.137  86.422  24.187  0.00  0.00     0.093 H 
ATOM      9  H9  AGS d   1      56.389  84.073  23.478  0.00  0.00     0.122 H 
ENDROOT
BRANCH   1  10
ATOM     10  C5  AGS d   1      54.363  83.488  27.362  0.00  0.00     0.058 C 
ATOM     11  H2  AGS d   1      54.573  82.424  27.549  0.00  0.00     0.079 H 
ATOM     12  H3  AGS d   1      54.316  84.027  28.320  0.00  0.00     0.079 H 
BRANCH  10  13
ATOM     13  O5  AGS d   1      53.078  83.611  26.679  0.00  0.00    -0.287 OA
BRANCH  13  14
ATOM     14  PA  AGS d   1      51.751  83.723  27.606  0.00  0.00     0.417 P 
ATOM     15  O1A AGS d   1      50.793  84.719  27.004  0.00  0.00    -0.624 OA
ATOM     16  O2A AGS d   1      52.041  83.916  29.079  0.00  0.00    -0.624 OA
BRANCH  14  17
ATOM     17  O3A AGS d   1      51.125  82.264  27.353  0.00  0.00    -0.180 OA
BRANCH  17  18
ATOM     18  PB  AGS d   1      49.922  81.470  28.022  0.00  0.00     0.426 P 
ATOM     19  O1B AGS d   1      49.334  82.351  29.088  0.00  0.00    -0.624 OA
ATOM     20  O2B AGS d   1      49.033  80.934  26.929  0.00  0.00    -0.624 OA
BRANCH  18  21
ATOM     21  O3B AGS d   1      50.700  80.286  28.763  0.00  0.00    -0.195 OA
BRANCH  21  22
ATOM     22  PG  AGS d   1      50.588  79.463  30.203  0.00  0.00     0.322 P 
ATOM     23  O1G AGS d   1      50.744  80.404  31.441  0.00  0.00    -0.638 OA
ATOM     24  O2G AGS d   1      51.698  78.463  30.215  0.00  0.00    -0.638 OA
BRANCH  22  25
ATOM     25  S3G AGS d   1      49.031  78.734  30.256  0.00  0.00    -0.054 SA
ATOM     26  H1  AGS d   1      48.324  79.453  30.246  0.00  0.00     0.114 HD
ENDBRANCH  22  25
ENDBRANCH  21  22
ENDBRANCH  18  21
ENDBRANCH  17  18
ENDBRANCH  14  17
ENDBRANCH  13  14
ENDBRANCH  10  13
ENDBRANCH   1  10
BRANCH   3  27
ATOM     27  O3  AGS d   1      55.972  86.460  27.054  0.00  0.00    -0.390 OA
ATOM     28  H6  AGS d   1      56.904  86.277  27.041  0.00  0.00     0.210 HD
ENDBRANCH   3  27
BRANCH   5  29
ATOM     29  N9  AGS d   1      54.251  84.242  23.298  0.00  0.00    -0.294 N 
ATOM     30  C8  AGS d   1      53.253  83.339  23.621  0.00  0.00     0.071 A 
ATOM     31  N7  AGS d   1      52.192  83.349  22.836  0.00  0.00    -0.236 NA
ATOM     32  H10 AGS d   1      53.338  82.662  24.470  0.00  0.00     0.144 H 
ATOM     33  C5  AGS d   1      52.480  84.321  21.918  0.00  0.00     0.149 A 
ATOM     34  C6  AGS d   1      51.753  84.838  20.790  0.00  0.00     0.155 A 
ATOM     35  C4  AGS d   1      53.757  84.898  22.187  0.00  0.00     0.167 A 
ATOM     36  N6  AGS d   1      50.536  84.383  20.419  0.00  0.00    -0.382 N 
ATOM     37  N1  AGS d   1      52.349  85.845  20.057  0.00  0.00    -0.222 NA
ATOM     38  H11 AGS d   1      50.061  84.791  19.601  0.00  0.00     0.157 HD
ATOM     39  H12 AGS d   1      50.083  83.628  20.954  0.00  0.00     0.157 HD
ATOM     40  C2  AGS d   1      53.589  86.315  20.422  0.00  0.00     0.091 A 
ATOM     41  N3  AGS d   1      54.363  85.899  21.469  0.00  0.00    -0.222 NA
ATOM     42  H13 AGS d   1      54.000  87.108  19.808  0.00  0.00     0.146 H 
ENDBRANCH   5  29
BRANCH   4  43
ATOM     43  O2  AGS d   1      57.112  86.081  24.537  0.00  0.00    -0.388 OA
ATOM     44  H8  AGS d   1      57.239  86.938  24.926  0.00  0.00     0.210 HD
ENDBRANCH   4  43
TORSDOF 11
