REMARK  8 active torsions:
REMARK  status: ('A' for Active; 'I' for Inactive)
REMARK    1  A    between atoms: O3A_8  and  PB_1 
REMARK    2  A    between atoms: PA_5  and  O3A_8 
REMARK    3  A    between atoms: PA_5  and  O5_9 
REMARK    4  A    between atoms: O5_9  and  C5_10 
REMARK    5  A    between atoms: C5_10  and  C4_11 
REMARK    6  A    between atoms: C3_13  and  O3_14 
REMARK    7  A    between atoms: C2_15  and  O2_16 
REMARK    8  A    between atoms: C1_17  and  N9_18 
ROOT
ATOM      1  C4  ADP d   1      56.555  84.453  26.316  0.00  0.00     0.089 C 
ATOM      2  O4  ADP d   1      56.417  83.759  25.013  0.00  0.00    -0.353 OA
ATOM      3  C3  ADP d   1      56.303  85.935  25.970  0.00  0.00     0.091 C 
ATOM      4  C2  ADP d   1      56.789  86.032  24.532  0.00  0.00     0.105 C 
ATOM      5  C1  ADP d   1      56.523  84.716  23.940  0.00  0.00     0.139 C 
ATOM      6  H3  ADP d   1      57.563  84.328  26.739  0.00  0.00     0.090 H 
ATOM      7  H4  ADP d   1      55.218  86.117  25.984  0.00  0.00     0.091 H 
ATOM      8  H6  ADP d   1      56.184  86.793  24.016  0.00  0.00     0.093 H 
ATOM      9  H8  ADP d   1      57.360  84.449  23.278  0.00  0.00     0.122 H 
ENDROOT
BRANCH   5  10
ATOM     10  N9  ADP d   1      55.217  84.659  23.138  0.00  0.00    -0.294 N 
ATOM     11  C8  ADP d   1      54.204  83.776  23.453  0.00  0.00     0.071 A 
ATOM     12  N7  ADP d   1      53.140  83.812  22.696  0.00  0.00    -0.236 NA
ATOM     13  H9  ADP d   1      54.288  83.084  24.290  0.00  0.00     0.144 H 
ATOM     14  C5  ADP d   1      53.419  84.781  21.804  0.00  0.00     0.149 A 
ATOM     15  C6  ADP d   1      52.688  85.342  20.670  0.00  0.00     0.155 A 
ATOM     16  C4  ADP d   1      54.726  85.327  22.045  0.00  0.00     0.167 A 
ATOM     17  N6  ADP d   1      51.451  84.945  20.291  0.00  0.00    -0.382 N 
ATOM     18  N1  ADP d   1      53.296  86.354  19.951  0.00  0.00    -0.222 NA
ATOM     19  H10 ADP d   1      50.995  85.386  19.480  0.00  0.00     0.157 HD
ATOM     20  H11 ADP d   1      50.966  84.202  20.814  0.00  0.00     0.157 HD
ATOM     21  C2  ADP d   1      54.562  86.801  20.294  0.00  0.00     0.091 A 
ATOM     22  N3  ADP d   1      55.339  86.346  21.326  0.00  0.00    -0.222 NA
ATOM     23  H12 ADP d   1      54.980  87.592  19.683  0.00  0.00     0.146 H 
ENDBRANCH   5  10
BRANCH   4  24
ATOM     24  O2  ADP d   1      58.157  86.388  24.353  0.00  0.00    -0.388 OA
ATOM     25  H7  ADP d   1      58.315  87.240  24.742  0.00  0.00     0.210 HD
ENDBRANCH   4  24
BRANCH   1  26
ATOM     26  C5  ADP d   1      55.508  83.831  27.277  0.00  0.00     0.058 C 
ATOM     27  H1  ADP d   1      55.884  82.856  27.619  0.00  0.00     0.079 H 
ATOM     28  H2  ADP d   1      55.386  84.501  28.141  0.00  0.00     0.079 H 
BRANCH  26  29
ATOM     29  O5  ADP d   1      54.185  83.630  26.648  0.00  0.00    -0.287 OA
BRANCH  29  30
ATOM     30  PA  ADP d   1      52.853  83.968  27.531  0.00  0.00     0.418 P 
ATOM     31  O1A ADP d   1      52.093  85.097  26.941  0.00  0.00    -0.624 OA
ATOM     32  O2A ADP d   1      53.093  84.157  29.000  0.00  0.00    -0.624 OA
BRANCH  30  33
ATOM     33  O3A ADP d   1      51.967  82.680  27.195  0.00  0.00    -0.173 OA
BRANCH  33  34
ATOM     34  PB  ADP d   1      50.929  81.867  27.952  0.00  0.00     0.431 P 
ATOM     35  O1B ADP d   1      50.261  82.760  28.917  0.00  0.00    -0.616 OA
ATOM     36  O2B ADP d   1      50.062  81.135  26.938  0.00  0.00    -0.616 OA
ATOM     37  O3B ADP d   1      51.777  80.838  28.786  0.00  0.00    -0.616 OA
ENDBRANCH  33  34
ENDBRANCH  30  33
ENDBRANCH  29  30
ENDBRANCH  26  29
ENDBRANCH   1  26
BRANCH   3  38
ATOM     38  O3  ADP d   1      56.861  86.859  26.859  0.00  0.00    -0.390 OA
ATOM     39  H5  ADP d   1      57.804  86.744  26.884  0.00  0.00     0.210 HD
ENDBRANCH   3  38
TORSDOF 8
