REMARK  6 active torsions:
REMARK  status: ('A' for Active; 'I' for Inactive)
REMARK    1  A    between atoms: N1_1  and  C1_9 
REMARK    2  A    between atoms: C2_10  and  O2_11 
REMARK    3  A    between atoms: C3_12  and  O3_14 
REMARK    4  A    between atoms: C4_13  and  C5_16 
REMARK    5  A    between atoms: C5_16  and  O5_17 
REMARK    6  A    between atoms: O5_17  and  P_18 
ROOT
ATOM      1  C1  U5P d   1      20.222  28.847   3.857  0.00  0.00     0.141 C 
ATOM      2  C2  U5P d   1      21.614  28.827   3.174  0.00  0.00     0.105 C 
ATOM      3  C3  U5P d   1      22.254  27.583   3.740  0.00  0.00     0.091 C 
ATOM      4  C4  U5P d   1      21.037  26.632   3.903  0.00  0.00     0.089 C 
ATOM      5  O4  U5P d   1      19.925  27.533   4.231  0.00  0.00    -0.353 OA
ATOM      6  H4  U5P d   1      19.463  29.232   3.160  0.00  0.00     0.123 H 
ATOM      7  H5  U5P d   1      22.189  29.701   3.512  0.00  0.00     0.093 H 
ATOM      8  H7  U5P d   1      22.697  27.791   4.725  0.00  0.00     0.091 H 
ATOM      9  H8  U5P d   1      20.867  26.048   2.986  0.00  0.00     0.090 H 
ENDROOT
BRANCH   1  10
ATOM     10  N1  U5P d   1      20.255  29.718   5.136  0.00  0.00    -0.280 N 
ATOM     11  C2  U5P d   1      20.542  31.114   5.059  0.00  0.00     0.331 A 
ATOM     12  N3  U5P d   1      20.535  31.764   6.292  0.00  0.00    -0.275 N 
ATOM     13  O2  U5P d   1      20.770  31.666   3.997  0.00  0.00    -0.246 OA
ATOM     14  C4  U5P d   1      20.281  31.202   7.579  0.00  0.00     0.250 A 
ATOM     15  H1  U5P d   1      20.732  32.744   6.272  0.00  0.00     0.173 HD
ATOM     16  C5  U5P d   1      20.001  29.797   7.579  0.00  0.00    -0.002 A 
ATOM     17  O4  U5P d   1      20.318  31.936   8.541  0.00  0.00    -0.268 OA
ATOM     18  C6  U5P d   1      19.995  29.133   6.438  0.00  0.00    -0.008 A 
ATOM     19  H2  U5P d   1      19.794  29.280   8.515  0.00  0.00     0.094 H 
ATOM     20  H3  U5P d   1      19.779  28.066   6.477  0.00  0.00     0.112 H 
ENDBRANCH   1  10
BRANCH   2  21
ATOM     21  O2  U5P d   1      21.562  28.905   1.700  0.00  0.00    -0.388 OA
ATOM     22  H6  U5P d   1      22.446  28.888   1.352  0.00  0.00     0.210 HD
ENDBRANCH   2  21
BRANCH   3  23
ATOM     23  O3  U5P d   1      23.316  27.088   2.863  0.00  0.00    -0.390 OA
ATOM     24  H9  U5P d   1      24.016  27.729   2.822  0.00  0.00     0.210 HD
ENDBRANCH   3  23
BRANCH   4  25
ATOM     25  C5  U5P d   1      21.119  25.725   5.126  0.00  0.00     0.059 C 
ATOM     26  H10 U5P d   1      20.807  26.300   6.011  0.00  0.00     0.079 H 
ATOM     27  H11 U5P d   1      22.162  25.397   5.250  0.00  0.00     0.079 H 
BRANCH  25  28
ATOM     28  O5  U5P d   1      20.280  24.558   5.017  0.00  0.00    -0.280 OA
BRANCH  28  29
ATOM     29  P   U5P d   1      19.757  23.755   6.305  0.00  0.00     0.422 P 
ATOM     30  O1P U5P d   1      20.776  23.194   7.243  0.00  0.00    -0.617 OA
ATOM     31  O2P U5P d   1      18.933  22.590   5.896  0.00  0.00    -0.617 OA
ATOM     32  O3P U5P d   1      18.634  24.825   6.918  0.00  0.00    -0.617 OA
ENDBRANCH  28  29
ENDBRANCH  25  28
ENDBRANCH   4  25
TORSDOF 6
