REMARK  7 active torsions:
REMARK  status: ('A' for Active; 'I' for Inactive)
REMARK    1  A    between atoms: C1_1  and  C13_13 
REMARK    2  A    between atoms: O2_21  and  C2_2 
REMARK    3  A    between atoms: C7_7  and  O2_21 
REMARK    4  A    between atoms: C8_8  and  O1_20 
REMARK    5  A    between atoms: C13_13  and  C15_14 
REMARK    6  A    between atoms: C15_14  and  C17_15 
REMARK    7  A    between atoms: C15_14  and  N1_19 
ROOT
ATOM      1  C1   T3 d   1       6.730  20.849  92.931  0.00  0.00    -0.053 A 
ATOM      2  C3   T3 d   1       6.961  20.553  94.278  0.00  0.00    -0.058 A 
ATOM      3  C5   T3 d   1       6.256  19.577  94.900  0.00  0.00     0.042 A 
ATOM      4  C7   T3 d   1       5.222  18.915  94.136  0.00  0.00     0.109 A 
ATOM      5  C9   T3 d   1       4.925  19.260  92.767  0.00  0.00     0.042 A 
ATOM      6  C11  T3 d   1       5.731  20.243  92.217  0.00  0.00    -0.058 A 
ATOM      7  I1   T3 d   1       6.679  18.908  96.898  0.00  0.00    -0.042 I 
ATOM      8  I3   T3 d   1       3.513  18.142  91.644  0.00  0.00    -0.042 I 
ATOM      9  H1   T3 d   1       7.710  21.109  94.829  0.00  0.00     0.086 H 
ATOM     10  H4   T3 d   1       5.566  20.542  91.188  0.00  0.00     0.086 H 
ENDROOT
BRANCH   4  11
ATOM     11  O2   T3 d   1       4.578  17.942  94.711  0.00  0.00    -0.308 OA
BRANCH  11  12
ATOM     12  C2   T3 d   1       3.473  18.218  95.517  0.00  0.00     0.077 A 
ATOM     13  C4   T3 d   1       3.180  17.362  96.519  0.00  0.00    -0.032 A 
ATOM     14  C6   T3 d   1       2.015  17.548  97.270  0.00  0.00     0.042 A 
ATOM     15  H2   T3 d   1       3.845  16.535  96.740  0.00  0.00     0.089 H 
ATOM     16  C8   T3 d   1       1.146  18.672  97.082  0.00  0.00     0.082 A 
ATOM     17  I2   T3 d   1       1.437  16.231  98.851  0.00  0.00    -0.042 I 
ATOM     18  C10  T3 d   1       1.512  19.543  96.129  0.00  0.00    -0.047 A 
ATOM     19  C12  T3 d   1       2.657  19.327  95.346  0.00  0.00    -0.048 A 
ATOM     20  H3   T3 d   1       0.912  20.430  95.961  0.00  0.00     0.087 H 
ATOM     21  H5   T3 d   1       2.912  20.052  94.581  0.00  0.00     0.087 H 
BRANCH  16  22
ATOM     22  O1   T3 d   1       0.096  18.799  97.855  0.00  0.00    -0.359 OA
ATOM     23  H12  T3 d   1      -0.688  18.828  97.320  0.00  0.00     0.217 HD
ENDBRANCH  16  22
ENDBRANCH  11  12
ENDBRANCH   4  11
BRANCH   1  24
ATOM     24  C13  T3 d   1       7.558  21.976  92.301  0.00  0.00    -0.005 C 
ATOM     25  H6   T3 d   1       8.341  22.259  93.019  0.00  0.00     0.044 H 
ATOM     26  H7   T3 d   1       6.888  22.832  92.133  0.00  0.00     0.044 H 
BRANCH  24  27
ATOM     27  C15  T3 d   1       8.225  21.656  91.001  0.00  0.00     0.186 C 
ATOM     28  H8   T3 d   1       7.457  21.694  90.214  0.00  0.00     0.101 H 
BRANCH  27  29
ATOM     29  C17  T3 d   1       9.203  22.760  90.715  0.00  0.00     0.204 C 
ATOM     30  O3   T3 d   1      10.292  22.452  90.049  0.00  0.00    -0.646 OA
ATOM     31  O4   T3 d   1       8.988  23.960  91.020  0.00  0.00    -0.646 OA
ENDBRANCH  27  29
BRANCH  27  32
ATOM     32  N1   T3 d   1       8.762  20.320  90.967  0.00  0.00    -0.065 N 
ATOM     33  H9   T3 d   1       9.199  20.156  90.073  0.00  0.00     0.275 HD
ATOM     34  H10  T3 d   1       8.017  19.655  91.104  0.00  0.00     0.275 HD
ATOM     35  H11  T3 d   1       9.446  20.214  91.700  0.00  0.00     0.275 HD
ENDBRANCH  27  32
ENDBRANCH  24  27
ENDBRANCH   1  24
TORSDOF 7
