REMARK  7 active torsions:
REMARK  status: ('A' for Active; 'I' for Inactive)
REMARK    1  A    between atoms: C1_1  and  C7_7 
REMARK    2  A    between atoms: O4_17  and  C4_4 
REMARK    3  A    between atoms: C7_7  and  C8_8 
REMARK    4  A    between atoms: C8_8  and  C9_9 
REMARK    5  A    between atoms: C8_8  and  N8_16 
REMARK    6  A    between atoms: C1'_10  and  O4_17 
REMARK    7  A    between atoms: C4'_13  and  O4'_18 
ROOT
ATOM      1  C1  T44 d   1      27.714  38.695  92.687  0.00  0.00    -0.053 A 
ATOM      2  C2  T44 d   1      28.750  39.301  91.984  0.00  0.00    -0.058 A 
ATOM      3  C3  T44 d   1      29.562  40.288  92.530  0.00  0.00     0.042 A 
ATOM      4  C4  T44 d   1      29.288  40.745  93.878  0.00  0.00     0.109 A 
ATOM      5  C5  T44 d   1      28.204  40.094  94.635  0.00  0.00     0.042 A 
ATOM      6  C6  T44 d   1      27.494  39.085  94.011  0.00  0.00    -0.058 A 
ATOM      7  I3  T44 d   1      31.005  41.266  91.400  0.00  0.00    -0.042 I 
ATOM      8  I5  T44 d   1      27.730  40.643  96.595  0.00  0.00    -0.042 I 
ATOM      9  H1  T44 d   1      28.933  38.989  90.962  0.00  0.00     0.086 H 
ATOM     10  H2  T44 d   1      26.727  38.570  94.578  0.00  0.00     0.086 H 
ENDROOT
BRANCH   4  11
ATOM     11  O4  T44 d   1      30.046  41.712  94.422  0.00  0.00    -0.308 OA
BRANCH  11  12
ATOM     12  C1' T44 d   1      31.061  41.296  95.234  0.00  0.00     0.078 A 
ATOM     13  C2' T44 d   1      31.483  42.213  96.132  0.00  0.00    -0.032 A 
ATOM     14  C3' T44 d   1      32.513  41.948  97.004  0.00  0.00     0.043 A 
ATOM     15  H6  T44 d   1      30.998  43.182  96.166  0.00  0.00     0.089 H 
ATOM     16  C4' T44 d   1      33.222  40.734  97.079  0.00  0.00     0.098 A 
ATOM     17  I3' T44 d   1      33.081  43.376  98.336  0.00  0.00    -0.042 I 
ATOM     18  C5' T44 d   1      32.739  39.750  96.111  0.00  0.00     0.043 A 
ATOM     19  C6' T44 d   1      31.684  40.056  95.231  0.00  0.00    -0.032 A 
ATOM     20  I5' T44 d   1      33.501  37.830  95.851  0.00  0.00    -0.042 I 
ATOM     21  H7  T44 d   1      31.348  39.300  94.530  0.00  0.00     0.089 H 
BRANCH  16  22
ATOM     22  O4' T44 d   1      34.134  40.758  98.032  0.00  0.00    -0.358 OA
ATOM     23  H11 T44 d   1      34.989  40.583  97.656  0.00  0.00     0.217 HD
ENDBRANCH  16  22
ENDBRANCH  11  12
ENDBRANCH   4  11
BRANCH   1  24
ATOM     24  C7  T44 d   1      26.831  37.558  92.112  0.00  0.00    -0.005 C 
ATOM     25  H3  T44 d   1      26.019  37.388  92.834  0.00  0.00     0.044 H 
ATOM     26  H4  T44 d   1      27.464  36.660  92.053  0.00  0.00     0.044 H 
BRANCH  24  27
ATOM     27  C8  T44 d   1      26.169  37.734  90.723  0.00  0.00     0.186 C 
ATOM     28  H5  T44 d   1      26.969  37.608  89.979  0.00  0.00     0.101 H 
BRANCH  27  29
ATOM     29  C9  T44 d   1      25.159  36.651  90.488  0.00  0.00     0.204 C 
ATOM     30  O9  T44 d   1      25.384  35.432  90.789  0.00  0.00    -0.646 OA
ATOM     31  O10 T44 d   1      24.144  37.030  89.877  0.00  0.00    -0.646 OA
ENDBRANCH  27  29
BRANCH  27  32
ATOM     32  N8  T44 d   1      25.575  39.035  90.471  0.00  0.00    -0.065 N 
ATOM     33  H8  T44 d   1      25.173  39.048  89.546  0.00  0.00     0.275 HD
ATOM     34  H9  T44 d   1      26.285  39.747  90.539  0.00  0.00     0.275 HD
ATOM     35  H10 T44 d   1      24.854  39.213  91.153  0.00  0.00     0.275 HD
ENDBRANCH  27  32
ENDBRANCH  24  27
ENDBRANCH   1  24
TORSDOF 7
