REMARK WARNING: 32 MAX_TORS EXCEEDED!!!
REMARK  46 active torsions:
REMARK  status: ('A' for Active; 'I' for Inactive)
REMARK    1  A    between atoms: CA_2  and  N_1 
REMARK    2  A    between atoms: CA_2  and  CB_5 
REMARK    3  A    between atoms: C_3  and  CA_2 
REMARK       I    between atoms: N_7  and  C_3 
REMARK    4  A    between atoms: CB_5  and  OG_6 
REMARK    5  A    between atoms: CA_8  and  N_7 
REMARK    6  A    between atoms: CA_8  and  CB_11 
REMARK    7  A    between atoms: C_9  and  CA_8 
REMARK       I    between atoms: N_21  and  C_9 
REMARK    8  A    between atoms: CB_11  and  CG_12 
REMARK    9  A    between atoms: CA_22  and  N_21 
REMARK   10  A    between atoms: CA_22  and  CB_25 
REMARK   11  A    between atoms: C_23  and  CA_22 
REMARK       I    between atoms: N_28  and  C_23 
REMARK   12  A    between atoms: CB_25  and  CG2_27 
REMARK   13  A    between atoms: CB_25  and  CG1_26 
REMARK   14  A    between atoms: CA_29  and  N_28 
REMARK   15  A    between atoms: CA_29  and  CB_32 
REMARK   16  A    between atoms: C_30  and  CA_29 
REMARK       I    between atoms: N_40  and  C_30 
REMARK   17  A    between atoms: CB_32  and  CG_33 
REMARK   18  A    between atoms: CZ_38  and  OH_39 
REMARK   19  A    between atoms: CA_41  and  N_40 
REMARK   20  A    between atoms: CA_41  and  CB_44 
REMARK   21  A    between atoms: C_42  and  CA_41 
REMARK       I    between atoms: N_46  and  C_42 
REMARK   22  A    between atoms: CB_44  and  OG_45 
REMARK   23  A    between atoms: C_48  and  CA_47 
REMARK       I    between atoms: N_53  and  C_48 
REMARK   24  A    between atoms: CA_54  and  N_53 
REMARK   25  A    between atoms: CA_54  and  CB_57 
REMARK   26  A    between atoms: C_55  and  CA_54 
REMARK       I    between atoms: N_61  and  C_55 
REMARK   27  A    between atoms: CB_57  and  CG_58 
REMARK   28  A    between atoms: CG_58  and  CD1_59 
REMARK   29  A    between atoms: CG_58  and  CD2_60 
REMARK   30  A    between atoms: CA_62  and  N_61 
REMARK   31  A    between atoms: CA_62  and  CB_65 
REMARK   32  A    between atoms: C_63  and  CA_62 
REMARK       I    between atoms: N_71  and  C_63 
REMARK   33  A    between atoms: CB_65  and  CG_66 
REMARK   34  A    between atoms: CA_72  and  N_71 
REMARK   35  A    between atoms: CA_72  and  CB_75 
REMARK   36  A    between atoms: C_73  and  CA_72 
REMARK       I    between atoms: N_83  and  C_73 
REMARK   37  A    between atoms: CB_75  and  CG_76 
REMARK   38  A    between atoms: CZ_81  and  OH_82 
REMARK   39  A    between atoms: CA_84  and  N_83 
REMARK   40  A    between atoms: CA_84  and  CB_87 
REMARK   41  A    between atoms: C_85  and  CA_84 
REMARK       I    between atoms: C_85  and  N_89 
REMARK   42  A    between atoms: CB_87  and  OG_88 
REMARK   43  A    between atoms: N_89  and  CA_90 
REMARK   44  A    between atoms: CA_90  and  CB_93 
REMARK   45  A    between atoms: CA_90  and  C_91 
REMARK   46  A    between atoms: C_91  and  O1_94 
ROOT
ATOM      1  C   SER d   1       8.270  21.487  19.058  0.00  0.00     0.245 C 
ATOM      2  O   SER d   1       7.249  21.943  18.547  0.00  0.00    -0.271 OA
ATOM      3  N   PRO d   1       8.897  20.414  18.564  0.00  0.00    -0.337 N 
ATOM      4  CA  PRO d   1       8.394  19.691  17.396  0.00  0.00     0.091 C 
ATOM      5  CB  PRO d   1       9.421  18.581  17.227  0.00  0.00    -0.036 C 
ATOM      6  CG  PRO d   1      10.687  19.268  17.638  0.00  0.00    -0.048 C 
ATOM      7  CD  PRO d   1      10.258  19.967  18.904  0.00  0.00    -0.001 C 
ATOM      8  H41 PRO d   1       8.384  20.344  16.511  0.00  0.00     0.087 H 
ATOM      9  H42 PRO d   1       9.472  18.239  16.183  0.00  0.00     0.036 H 
ATOM     10  H43 PRO d   1       9.198  17.726  17.883  0.00  0.00     0.036 H 
ATOM     11  H44 PRO d   1      11.491  18.543  17.833  0.00  0.00     0.035 H 
ATOM     12  H45 PRO d   1      11.019  19.988  16.875  0.00  0.00     0.035 H 
ATOM     13  H46 PRO d   1      10.249  19.275  19.759  0.00  0.00     0.064 H 
ATOM     14  H47 PRO d   1      10.914  20.821  19.130  0.00  0.00     0.064 H 
ENDROOT
BRANCH   4  15
ATOM     15  C   PRO d   1       6.979  19.156  17.624  0.00  0.00     0.241 C 
ATOM     16  O   PRO d   1       6.193  19.037  16.685  0.00  0.00    -0.271 OA
ATOM     17  N   LEU d   1       6.671  18.841  18.880  0.00  0.00    -0.346 N 
ATOM     18  H48 LEU d   1       7.363  18.967  19.591  0.00  0.00     0.163 HD
BRANCH  17  19
ATOM     19  CA  LEU d   1       5.362  18.319  19.259  0.00  0.00     0.089 C 
ATOM     20  H49 LEU d   1       5.213  17.375  18.715  0.00  0.00     0.087 H 
BRANCH  19  21
ATOM     21  CB  LEU d   1       5.325  18.018  20.761  0.00  0.00    -0.035 C 
ATOM     22  H50 LEU d   1       4.299  18.208  21.108  0.00  0.00     0.037 H 
ATOM     23  H51 LEU d   1       6.014  18.720  21.253  0.00  0.00     0.037 H 
BRANCH  21  24
ATOM     24  CG  LEU d   1       5.708  16.604  21.220  0.00  0.00    -0.059 C 
ATOM     25  H52 LEU d   1       4.914  15.905  20.919  0.00  0.00     0.038 H 
BRANCH  24  26
ATOM     26  CD1 LEU d   1       7.015  16.160  20.578  0.00  0.00    -0.073 C 
ATOM     27  H53 LEU d   1       7.267  15.146  20.922  0.00  0.00     0.028 H 
ATOM     28  H54 LEU d   1       7.819  16.854  20.864  0.00  0.00     0.028 H 
ATOM     29  H55 LEU d   1       6.904  16.159  19.484  0.00  0.00     0.028 H 
ENDBRANCH  24  26
BRANCH  24  30
ATOM     30  CD2 LEU d   1       5.830  16.589  22.728  0.00  0.00    -0.073 C 
ATOM     31  H56 LEU d   1       4.879  16.912  23.176  0.00  0.00     0.028 H 
ATOM     32  H57 LEU d   1       6.633  17.275  23.038  0.00  0.00     0.028 H 
ATOM     33  H58 LEU d   1       6.067  15.570  23.067  0.00  0.00     0.028 H 
ENDBRANCH  24  30
ENDBRANCH  21  24
ENDBRANCH  19  21
BRANCH  19  34
ATOM     34  C   LEU d   1       4.209  19.247  18.895  0.00  0.00     0.241 C 
ATOM     35  O   LEU d   1       3.059  18.817  18.848  0.00  0.00    -0.271 OA
ATOM     36  N   HIS d   1       4.507  20.516  18.640  0.00  0.00    -0.346 N 
ATOM     37  H59 HIS d   1       5.456  20.825  18.704  0.00  0.00     0.163 HD
BRANCH  36  38
ATOM     38  CA  HIS d   1       3.465  21.460  18.268  0.00  0.00     0.094 C 
ATOM     39  H60 HIS d   1       2.503  20.959  18.452  0.00  0.00     0.088 H 
BRANCH  38  40
ATOM     40  CB  HIS d   1       3.515  22.705  19.159  0.00  0.00     0.002 C 
ATOM     41  H61 HIS d   1       3.037  23.537  18.621  0.00  0.00     0.046 H 
ATOM     42  H62 HIS d   1       4.569  22.951  19.354  0.00  0.00     0.046 H 
BRANCH  40  43
ATOM     43  CG  HIS d   1       2.819  22.529  20.474  0.00  0.00     0.030 A 
ATOM     44  ND1 HIS d   1       2.170  23.562  21.116  0.00  0.00    -0.353 N 
ATOM     45  CE1 HIS d   1       1.646  23.117  22.244  0.00  0.00     0.063 A 
ATOM     46  H63 HIS d   1       2.104  24.530  20.770  0.00  0.00     0.166 HD
ATOM     47  NE2 HIS d   1       1.933  21.833  22.360  0.00  0.00    -0.254 NA
ATOM     48  H65 HIS d   1       1.074  23.709  22.957  0.00  0.00     0.143 H 
ATOM     49  CD2 HIS d   1       2.666  21.440  21.266  0.00  0.00     0.025 A 
ATOM     50  H64 HIS d   1       3.052  20.440  21.072  0.00  0.00     0.117 H 
ENDBRANCH  40  43
ENDBRANCH  38  40
BRANCH  38  51
ATOM     51  C   HIS d   1       3.478  21.865  16.795  0.00  0.00     0.241 C 
ATOM     52  O   HIS d   1       2.747  22.768  16.390  0.00  0.00    -0.271 OA
ATOM     53  N   TYR d   1       4.318  21.207  16.000  0.00  0.00    -0.346 N 
ATOM     54  H66 TYR d   1       4.927  20.521  16.398  0.00  0.00     0.163 HD
BRANCH  53  55
ATOM     55  CA  TYR d   1       4.375  21.459  14.563  0.00  0.00     0.093 C 
ATOM     56  H67 TYR d   1       4.397  22.540  14.359  0.00  0.00     0.088 H 
BRANCH  55  57
ATOM     57  CB  TYR d   1       5.613  20.788  13.944  0.00  0.00    -0.014 C 
ATOM     58  H68 TYR d   1       5.451  20.706  12.859  0.00  0.00     0.043 H 
ATOM     59  H69 TYR d   1       5.709  19.782  14.378  0.00  0.00     0.043 H 
BRANCH  57  60
ATOM     60  CG  TYR d   1       6.920  21.527  14.171  0.00  0.00    -0.056 A 
ATOM     61  CD1 TYR d   1       8.147  20.920  13.894  0.00  0.00    -0.074 A 
ATOM     62  CE1 TYR d   1       9.346  21.610  14.067  0.00  0.00    -0.051 A 
ATOM     63  H70 TYR d   1       8.167  19.896  13.539  0.00  0.00     0.084 H 
ATOM     64  CZ  TYR d   1       9.324  22.926  14.522  0.00  0.00     0.065 A 
ATOM     65  H72 TYR d   1      10.290  21.125  13.848  0.00  0.00     0.087 H 
ATOM     66  CE2 TYR d   1       8.118  23.542  14.804  0.00  0.00    -0.051 A 
ATOM     67  CD2 TYR d   1       6.929  22.843  14.629  0.00  0.00    -0.074 A 
ATOM     68  H73 TYR d   1       8.100  24.566  15.160  0.00  0.00     0.087 H 
ATOM     69  H71 TYR d   1       5.988  23.332  14.854  0.00  0.00     0.084 H 
BRANCH  64  70
ATOM     70  OH  TYR d   1      10.500  23.635  14.685  0.00  0.00    -0.361 OA
ATOM     71  H74 TYR d   1      11.237  23.082  14.454  0.00  0.00     0.217 HD
ENDBRANCH  64  70
ENDBRANCH  57  60
ENDBRANCH  55  57
BRANCH  55  72
ATOM     72  C   TYR d   1       3.101  20.824  13.998  0.00  0.00     0.241 C 
ATOM     73  O   TYR d   1       2.532  19.926  14.622  0.00  0.00    -0.271 OA
ATOM     74  N   SER d   1       2.644  21.287  12.839  0.00  0.00    -0.344 N 
ATOM     75  H75 SER d   1       3.130  22.027  12.374  0.00  0.00     0.163 HD
BRANCH  74  76
ATOM     76  CA  SER d   1       1.442  20.725  12.242  0.00  0.00     0.109 C 
ATOM     77  H76 SER d   1       0.580  20.896  12.904  0.00  0.00     0.090 H 
BRANCH  76  78
ATOM     78  CB  SER d   1       1.171  21.359  10.883  0.00  0.00     0.044 C 
ATOM     79  H77 SER d   1       1.135  22.453  10.994  0.00  0.00     0.077 H 
ATOM     80  H78 SER d   1       0.205  20.997  10.500  0.00  0.00     0.077 H 
BRANCH  78  81
ATOM     81  OG  SER d   1       2.194  21.017   9.966  0.00  0.00    -0.398 OA
ATOM     82  H79 SER d   1       2.226  20.073   9.867  0.00  0.00     0.209 HD
ENDBRANCH  78  81
ENDBRANCH  76  78
BRANCH  76  83
ATOM     83  C   SER d   1       1.681  19.237  12.070  0.00  0.00     0.243 C 
ATOM     84  O   SER d   1       2.825  18.806  11.919  0.00  0.00    -0.271 OA
ATOM     85  N   ALA d   1       0.607  18.454  12.092  0.00  0.00    -0.345 N 
ATOM     86  H80 ALA d   1      -0.296  18.868  12.209  0.00  0.00     0.163 HD
BRANCH  85  87
ATOM     87  CA  ALA d   1       0.713  17.001  11.949  0.00  0.00     0.090 C 
ATOM     88  H81 ALA d   1       1.259  16.619  12.824  0.00  0.00     0.088 H 
BRANCH  87  89
ATOM     89  CB  ALA d   1      -0.667  16.379  11.942  0.00  0.00    -0.048 C 
ATOM     90  H82 ALA d   1      -0.577  15.288  11.834  0.00  0.00     0.030 H 
ATOM     91  H83 ALA d   1      -1.247  16.784  11.100  0.00  0.00     0.030 H 
ATOM     92  H84 ALA d   1      -1.179  16.613  12.887  0.00  0.00     0.030 H 
ENDBRANCH  87  89
BRANCH  87  93
ATOM     93  C   ALA d   1       1.483  16.574  10.702  0.00  0.00     0.163 C 
ATOM     94  O   ALA d   1       2.312  15.666  10.754  0.00  0.00    -0.648 OA
BRANCH  93  95
ATOM     95  O1  ALA d   1       1.255  17.191   9.546  0.00  0.00    -0.775 OA
ATOM     96  H85 ALA d   1       2.060  17.591   9.238  0.00  0.00     0.167 HD
ENDBRANCH  93  95
ENDBRANCH  87  93
ENDBRANCH  85  87
ENDBRANCH  76  83
ENDBRANCH  74  76
ENDBRANCH  55  72
ENDBRANCH  53  55
ENDBRANCH  38  51
ENDBRANCH  36  38
ENDBRANCH  19  34
ENDBRANCH  17  19
ENDBRANCH   4  15
BRANCH   1  97
ATOM     97  CA  SER d   1       8.884  22.150  20.277  0.00  0.00     0.109 C 
ATOM     98  H37 SER d   1       9.884  21.733  20.467  0.00  0.00     0.090 H 
BRANCH  97  99
ATOM     99  N   SER d   1       8.994  23.574  20.016  0.00  0.00    -0.344 N 
ATOM    100  C   TYR d   1      10.015  24.086  19.343  0.00  0.00     0.241 C 
ATOM    101  O   TYR d   1      10.950  23.416  18.918  0.00  0.00    -0.271 OA
ATOM    102  H36 SER d   1       8.279  24.186  20.354  0.00  0.00     0.163 HD
BRANCH 100 103
ATOM    103  CA  TYR d   1       9.961  25.583  19.140  0.00  0.00     0.093 C 
ATOM    104  H28 TYR d   1       9.352  25.988  19.962  0.00  0.00     0.088 H 
BRANCH 103 105
ATOM    105  N   TYR d   1      11.233  26.288  19.182  0.00  0.00    -0.346 N 
ATOM    106  C   VAL d   1      11.742  26.722  20.327  0.00  0.00     0.241 C 
ATOM    107  O   VAL d   1      11.199  26.531  21.413  0.00  0.00    -0.271 OA
ATOM    108  H27 TYR d   1      11.733  26.448  18.331  0.00  0.00     0.163 HD
BRANCH 106 109
ATOM    109  CA  VAL d   1      13.051  27.495  20.238  0.00  0.00     0.092 C 
ATOM    110  H19 VAL d   1      13.387  27.581  19.194  0.00  0.00     0.088 H 
BRANCH 109 111
ATOM    111  N   VAL d   1      12.735  28.808  20.780  0.00  0.00    -0.346 N 
ATOM    112  C   TRP d   1      13.076  29.945  20.183  0.00  0.00     0.241 C 
ATOM    113  O   TRP d   1      13.707  29.994  19.129  0.00  0.00    -0.271 OA
ATOM    114  H18 VAL d   1      12.236  28.857  21.645  0.00  0.00     0.163 HD
BRANCH 112 115
ATOM    115  CA  TRP d   1      12.606  31.212  20.896  0.00  0.00     0.093 C 
ATOM    116  H9  TRP d   1      12.431  30.925  21.943  0.00  0.00     0.088 H 
BRANCH 115 117
ATOM    117  N   TRP d   1      13.505  32.360  20.943  0.00  0.00    -0.346 N 
ATOM    118  C   SER d   1      14.775  32.262  21.319  0.00  0.00     0.251 C 
ATOM    119  O   SER d   1      15.303  31.189  21.611  0.00  0.00    -0.271 OA
ATOM    120  H8  TRP d   1      13.150  33.258  20.681  0.00  0.00     0.163 HD
BRANCH 118 121
ATOM    121  CA  SER d   1      15.572  33.572  21.357  0.00  0.00     0.195 C 
ATOM    122  H4  SER d   1      15.417  34.038  22.341  0.00  0.00     0.102 H 
BRANCH 121 123
ATOM    123  N   SER d   1      17.032  33.344  21.177  0.00  0.00    -0.064 N 
ATOM    124  H1  SER d   1      17.516  34.227  21.208  0.00  0.00     0.275 HD
ATOM    125  H2  SER d   1      17.196  32.903  20.286  0.00  0.00     0.275 HD
ATOM    126  H3  SER d   1      17.372  32.748  21.915  0.00  0.00     0.275 HD
ENDBRANCH 121 123
BRANCH 121 127
ATOM    127  CB  SER d   1      15.057  34.530  20.279  0.00  0.00     0.051 C 
ATOM    128  H5  SER d   1      15.108  34.029  19.301  0.00  0.00     0.077 H 
ATOM    129  H6  SER d   1      15.693  35.427  20.264  0.00  0.00     0.077 H 
BRANCH 127 130
ATOM    130  OG  SER d   1      13.716  34.920  20.528  0.00  0.00    -0.398 OA
ATOM    131  H7  SER d   1      13.666  35.358  21.369  0.00  0.00     0.209 HD
ENDBRANCH 127 130
ENDBRANCH 121 127
ENDBRANCH 118 121
ENDBRANCH 115 117
BRANCH 115 132
ATOM    132  CB  TRP d   1      11.263  31.631  20.292  0.00  0.00    -0.012 C 
ATOM    133  H10 TRP d   1      10.657  30.726  20.137  0.00  0.00     0.044 H 
ATOM    134  H11 TRP d   1      11.456  32.113  19.322  0.00  0.00     0.044 H 
BRANCH 132 135
ATOM    135  CG  TRP d   1      10.482  32.578  21.138  0.00  0.00    -0.028 A 
ATOM    136  CD1 TRP d   1      10.090  33.837  20.803  0.00  0.00    -0.015 A 
ATOM    137  NE1 TRP d   1       9.371  34.400  21.830  0.00  0.00    -0.365 N 
ATOM    138  H12 TRP d   1      10.314  34.328  19.857  0.00  0.00     0.112 H 
ATOM    139  CE2 TRP d   1       9.288  33.501  22.860  0.00  0.00     0.042 A 
ATOM    140  H13 TRP d   1       8.961  35.345  21.826  0.00  0.00     0.165 HD
ATOM    141  CD2 TRP d   1       9.977  32.336  22.458  0.00  0.00    -0.002 A 
ATOM    142  CZ2 TRP d   1       8.662  33.610  24.110  0.00  0.00    -0.056 A 
ATOM    143  CE3 TRP d   1      10.044  31.249  23.341  0.00  0.00    -0.070 A 
ATOM    144  CZ3 TRP d   1       9.422  31.358  24.583  0.00  0.00    -0.082 A 
ATOM    145  H14 TRP d   1      10.569  30.342  23.063  0.00  0.00     0.084 H 
ATOM    146  CH2 TRP d   1       8.743  32.532  24.955  0.00  0.00    -0.081 A 
ATOM    147  H16 TRP d   1       9.462  30.524  25.274  0.00  0.00     0.083 H 
ATOM    148  H17 TRP d   1       8.273  32.587  25.930  0.00  0.00     0.083 H 
ATOM    149  H15 TRP d   1       8.134  34.512  24.398  0.00  0.00     0.086 H 
ENDBRANCH 132 135
ENDBRANCH 115 132
ENDBRANCH 112 115
ENDBRANCH 109 111
BRANCH 109 150
ATOM    150  CB  VAL d   1      14.130  26.778  21.066  0.00  0.00    -0.033 C 
ATOM    151  H20 VAL d   1      13.766  26.654  22.096  0.00  0.00     0.042 H 
BRANCH 150 152
ATOM    152  CG2 VAL d   1      15.394  27.618  21.092  0.00  0.00    -0.071 C 
ATOM    153  H24 VAL d   1      15.169  28.606  21.520  0.00  0.00     0.028 H 
ATOM    154  H25 VAL d   1      15.774  27.740  20.067  0.00  0.00     0.028 H 
ATOM    155  H26 VAL d   1      16.155  27.117  21.708  0.00  0.00     0.028 H 
ENDBRANCH 150 152
BRANCH 150 156
ATOM    156  CG1 VAL d   1      14.410  25.396  20.476  0.00  0.00    -0.071 C 
ATOM    157  H21 VAL d   1      15.183  24.891  21.075  0.00  0.00     0.028 H 
ATOM    158  H22 VAL d   1      14.762  25.504  19.439  0.00  0.00     0.028 H 
ATOM    159  H23 VAL d   1      13.487  24.798  20.489  0.00  0.00     0.028 H 
ENDBRANCH 150 156
ENDBRANCH 109 150
ENDBRANCH 106 109
ENDBRANCH 103 105
BRANCH 103 160
ATOM    160  CB  TYR d   1       9.244  25.896  17.827  0.00  0.00    -0.014 C 
ATOM    161  H29 TYR d   1       8.316  25.307  17.783  0.00  0.00     0.043 H 
ATOM    162  H30 TYR d   1       9.899  25.611  16.991  0.00  0.00     0.043 H 
BRANCH 160 163
ATOM    163  CG  TYR d   1       8.897  27.357  17.694  0.00  0.00    -0.056 A 
ATOM    164  CD1 TYR d   1       9.898  28.325  17.577  0.00  0.00    -0.074 A 
ATOM    165  CE1 TYR d   1       9.587  29.678  17.510  0.00  0.00    -0.051 A 
ATOM    166  H31 TYR d   1      10.936  28.015  17.538  0.00  0.00     0.084 H 
ATOM    167  CZ  TYR d   1       8.258  30.076  17.560  0.00  0.00     0.065 A 
ATOM    168  H33 TYR d   1      10.376  30.416  17.419  0.00  0.00     0.087 H 
ATOM    169  CE2 TYR d   1       7.246  29.136  17.673  0.00  0.00    -0.051 A 
ATOM    170  CD2 TYR d   1       7.570  27.782  17.738  0.00  0.00    -0.074 A 
ATOM    171  H34 TYR d   1       6.210  29.452  17.711  0.00  0.00     0.087 H 
ATOM    172  H32 TYR d   1       6.777  27.047  17.824  0.00  0.00     0.084 H 
BRANCH 167 173
ATOM    173  OH  TYR d   1       7.937  31.412  17.501  0.00  0.00    -0.361 OA
ATOM    174  H35 TYR d   1       8.733  31.925  17.425  0.00  0.00     0.217 HD
ENDBRANCH 167 173
ENDBRANCH 160 163
ENDBRANCH 103 160
ENDBRANCH 100 103
ENDBRANCH  97  99
BRANCH  97 175
ATOM    175  CB  SER d   1       7.984  21.886  21.486  0.00  0.00     0.044 C 
ATOM    176  H38 SER d   1       7.053  22.460  21.376  0.00  0.00     0.077 H 
ATOM    177  H39 SER d   1       8.505  22.204  22.401  0.00  0.00     0.077 H 
BRANCH 175 178
ATOM    178  OG  SER d   1       7.672  20.506  21.583  0.00  0.00    -0.398 OA
ATOM    179  H40 SER d   1       7.114  20.361  22.338  0.00  0.00     0.209 HD
ENDBRANCH 175 178
ENDBRANCH  97 175
ENDBRANCH   1  97
TORSDOF 46
