REMARK WARNING: 32 MAX_TORS EXCEEDED!!!
REMARK  47 active torsions:
REMARK  status: ('A' for Active; 'I' for Inactive)
REMARK    1  A    between atoms: N_1  and  CA_2 
REMARK    2  A    between atoms: CA_2  and  C_3 
REMARK       I    between atoms: C_3  and  N_5 
REMARK    3  A    between atoms: N_5  and  CA_6 
REMARK    4  A    between atoms: CA_6  and  C_7 
REMARK    5  A    between atoms: CA_6  and  CB_9 
REMARK       I    between atoms: C_7  and  N_14 
REMARK    6  A    between atoms: CB_9  and  CG_10 
REMARK    7  A    between atoms: CG_10  and  CD_11 
REMARK    8  A    between atoms: CD_11  and  CE_12 
REMARK    9  A    between atoms: CE_12  and  NZ_13 
REMARK   10  A    between atoms: N_14  and  CA_15 
REMARK   11  A    between atoms: CA_15  and  C_16 
REMARK   12  A    between atoms: CA_15  and  CB_18 
REMARK       I    between atoms: C_16  and  N_22 
REMARK   13  A    between atoms: CB_18  and  CG1_19 
REMARK   14  A    between atoms: CB_18  and  CG2_20 
REMARK   15  A    between atoms: CG1_19  and  CD1_21 
REMARK   16  A    between atoms: N_22  and  CA_23 
REMARK   17  A    between atoms: CA_23  and  C_24 
REMARK   18  A    between atoms: CA_23  and  CB_26 
REMARK       I    between atoms: C_24  and  N_28 
REMARK   19  A    between atoms: CB_26  and  OG_27 
REMARK   20  A    between atoms: N_28  and  CA_29 
REMARK   21  A    between atoms: CA_29  and  C_30 
REMARK   22  A    between atoms: CA_29  and  CB_32 
REMARK       I    between atoms: C_30  and  N_37 
REMARK   23  A    between atoms: CB_32  and  CG_33 
REMARK   24  A    between atoms: CG_33  and  CD_34 
REMARK   25  A    between atoms: CD_34  and  CE_35 
REMARK   26  A    between atoms: CE_35  and  NZ_36 
REMARK   27  A    between atoms: N_37  and  CA_38 
REMARK   28  A    between atoms: CA_38  and  C_39 
REMARK   29  A    between atoms: CA_38  and  CB_41 
REMARK       I    between atoms: C_39  and  N_47 
REMARK   30  A    between atoms: CB_41  and  CG_42 
REMARK   31  A    between atoms: N_47  and  CA_48 
REMARK   32  A    between atoms: CA_48  and  C_49 
REMARK   33  A    between atoms: CA_48  and  CB_51 
REMARK       I    between atoms: C_49  and  N_61 
REMARK   34  A    between atoms: CB_51  and  CG_52 
REMARK   35  A    between atoms: N_61  and  CA_62 
REMARK   36  A    between atoms: CA_62  and  C_63 
REMARK   37  A    between atoms: CA_62  and  CB_65 
REMARK       I    between atoms: C_63  and  N_68 
REMARK   38  A    between atoms: CB_65  and  OG1_66 
REMARK   39  A    between atoms: CB_65  and  CG2_67 
REMARK   40  A    between atoms: N_68  and  CA_69 
REMARK   41  A    between atoms: CA_69  and  C_70 
REMARK       I    between atoms: C_70  and  N_72 
REMARK   42  A    between atoms: N_72  and  CA_73 
REMARK   43  A    between atoms: CA_73  and  C_74 
REMARK   44  A    between atoms: CA_73  and  CB_76 
REMARK   45  A    between atoms: CB_76  and  CG1_77 
REMARK   46  A    between atoms: CB_76  and  CG2_78 
REMARK   47  A    between atoms: CG1_77  and  CD1_79 
ROOT
ATOM      1  C   LYS d   1      73.841  91.851  60.701  0.00  0.00     0.241 C 
ATOM      2  O   LYS d   1      74.713  92.679  60.407  0.00  0.00    -0.271 OA
ATOM      3  N   HIS d   1      72.584  92.209  60.975  0.00  0.00    -0.346 N 
ATOM      4  H48 HIS d   1      71.903  91.507  61.184  0.00  0.00     0.163 HD
ENDROOT
BRANCH   1   5
ATOM      5  CA  LYS d   1      74.181  90.344  60.759  0.00  0.00     0.089 C 
ATOM      6  H36 LYS d   1      73.283  89.763  60.501  0.00  0.00     0.087 H 
BRANCH   5   7
ATOM      7  N   LYS d   1      75.253  90.015  59.820  0.00  0.00    -0.346 N 
ATOM      8  C   SER d   1      75.087  89.288  58.718  0.00  0.00     0.243 C 
ATOM      9  O   SER d   1      74.006  88.819  58.355  0.00  0.00    -0.271 OA
ATOM     10  H35 LYS d   1      76.171  90.359  60.019  0.00  0.00     0.163 HD
BRANCH   8  11
ATOM     11  CA  SER d   1      76.345  89.067  57.892  0.00  0.00     0.109 C 
ATOM     12  H31 SER d   1      77.195  88.892  58.569  0.00  0.00     0.090 H 
BRANCH  11  13
ATOM     13  N   SER d   1      76.169  87.898  57.040  0.00  0.00    -0.344 N 
ATOM     14  C   ILE d   1      76.751  86.744  57.343  0.00  0.00     0.241 C 
ATOM     15  O   ILE d   1      77.474  86.598  58.327  0.00  0.00    -0.271 OA
ATOM     16  H30 SER d   1      75.604  87.966  56.218  0.00  0.00     0.163 HD
BRANCH  14  17
ATOM     17  CA  ILE d   1      76.479  85.586  56.394  0.00  0.00     0.092 C 
ATOM     18  H20 ILE d   1      76.069  85.984  55.454  0.00  0.00     0.088 H 
BRANCH  17  19
ATOM     19  N   ILE d   1      77.712  84.867  56.079  0.00  0.00    -0.346 N 
ATOM     20  C   LYS d   1      77.880  84.279  54.901  0.00  0.00     0.241 C 
ATOM     21  O   LYS d   1      77.008  84.266  54.038  0.00  0.00    -0.271 OA
ATOM     22  H19 ILE d   1      78.441  84.817  56.762  0.00  0.00     0.163 HD
BRANCH  20  23
ATOM     23  CA  LYS d   1      79.209  83.567  54.664  0.00  0.00     0.089 C 
ATOM     24  H7  LYS d   1      79.585  83.171  55.619  0.00  0.00     0.087 H 
BRANCH  23  25
ATOM     25  N   LYS d   1      78.989  82.463  53.737  0.00  0.00    -0.346 N 
ATOM     26  C   GLY d   1      79.476  81.253  53.971  0.00  0.00     0.243 C 
ATOM     27  O   GLY d   1      80.148  80.990  54.963  0.00  0.00    -0.272 OA
ATOM     28  H6  LYS d   1      78.458  82.623  52.905  0.00  0.00     0.163 HD
BRANCH  26  29
ATOM     29  CA  GLY d   1      79.160  80.191  52.937  0.00  0.00     0.152 C 
ATOM     30  H4  GLY d   1      79.370  80.590  51.934  0.00  0.00     0.090 H 
ATOM     31  H5  GLY d   1      79.791  79.309  53.120  0.00  0.00     0.090 H 
BRANCH  29  32
ATOM     32  N   GLY d   1      77.714  79.789  53.016  0.00  0.00    -0.071 N 
ATOM     33  H1  GLY d   1      77.523  79.083  52.322  0.00  0.00     0.274 HD
ATOM     34  H2  GLY d   1      77.132  80.594  52.846  0.00  0.00     0.274 HD
ATOM     35  H3  GLY d   1      77.517  79.420  53.933  0.00  0.00     0.274 HD
ENDBRANCH  29  32
ENDBRANCH  26  29
ENDBRANCH  23  25
BRANCH  23  36
ATOM     36  CB  LYS d   1      80.240  84.544  54.089  0.00  0.00    -0.038 C 
ATOM     37  H8  LYS d   1      80.268  85.436  54.733  0.00  0.00     0.036 H 
ATOM     38  H9  LYS d   1      79.917  84.832  53.078  0.00  0.00     0.036 H 
BRANCH  36  39
ATOM     39  CG  LYS d   1      81.656  83.974  53.997  0.00  0.00    -0.061 C 
ATOM     40  H10 LYS d   1      81.630  83.046  53.407  0.00  0.00     0.033 H 
ATOM     41  H11 LYS d   1      82.019  83.754  55.012  0.00  0.00     0.033 H 
BRANCH  39  42
ATOM     42  CD  LYS d   1      82.610  84.956  53.332  0.00  0.00    -0.043 C 
ATOM     43  H12 LYS d   1      82.670  85.869  53.943  0.00  0.00     0.035 H 
ATOM     44  H13 LYS d   1      82.228  85.208  52.332  0.00  0.00     0.035 H 
BRANCH  42  45
ATOM     45  CE  LYS d   1      84.005  84.353  53.196  0.00  0.00     0.080 C 
ATOM     46  H14 LYS d   1      83.916  83.365  52.722  0.00  0.00     0.075 H 
ATOM     47  H15 LYS d   1      84.439  84.240  54.200  0.00  0.00     0.075 H 
BRANCH  45  48
ATOM     48  NZ  LYS d   1      84.920  85.198  52.372  0.00  0.00    -0.079 N 
ATOM     49  H16 LYS d   1      85.824  84.756  52.314  0.00  0.00     0.274 HD
ATOM     50  H17 LYS d   1      85.016  86.105  52.800  0.00  0.00     0.274 HD
ATOM     51  H18 LYS d   1      84.537  85.303  51.445  0.00  0.00     0.274 HD
ENDBRANCH  45  48
ENDBRANCH  42  45
ENDBRANCH  39  42
ENDBRANCH  36  39
ENDBRANCH  23  36
ENDBRANCH  20  23
ENDBRANCH  17  19
BRANCH  17  52
ATOM     52  CB  ILE d   1      75.403  84.669  57.056  0.00  0.00    -0.030 C 
ATOM     53  H21 ILE d   1      74.530  85.286  57.314  0.00  0.00     0.043 H 
BRANCH  52  54
ATOM     54  CG1 ILE d   1      75.951  84.054  58.341  0.00  0.00    -0.063 C 
ATOM     55  H22 ILE d   1      76.408  84.854  58.942  0.00  0.00     0.033 H 
ATOM     56  H23 ILE d   1      76.719  83.313  58.072  0.00  0.00     0.033 H 
BRANCH  54  57
ATOM     57  CD1 ILE d   1      74.893  83.364  59.185  0.00  0.00    -0.076 C 
ATOM     58  H27 ILE d   1      75.360  82.947  60.090  0.00  0.00     0.027 H 
ATOM     59  H28 ILE d   1      74.432  82.552  58.603  0.00  0.00     0.027 H 
ATOM     60  H29 ILE d   1      74.121  84.093  59.473  0.00  0.00     0.027 H 
ENDBRANCH  54  57
ENDBRANCH  52  54
BRANCH  52  61
ATOM     61  CG2 ILE d   1      74.955  83.592  56.075  0.00  0.00    -0.071 C 
ATOM     62  H24 ILE d   1      74.566  84.067  55.162  0.00  0.00     0.028 H 
ATOM     63  H25 ILE d   1      74.164  82.982  56.536  0.00  0.00     0.028 H 
ATOM     64  H26 ILE d   1      75.811  82.950  55.819  0.00  0.00     0.028 H 
ENDBRANCH  52  61
ENDBRANCH  17  52
ENDBRANCH  14  17
ENDBRANCH  11  13
BRANCH  11  65
ATOM     65  CB  SER d   1      76.631  90.306  57.047  0.00  0.00     0.044 C 
ATOM     66  H32 SER d   1      77.629  90.212  56.593  0.00  0.00     0.077 H 
ATOM     67  H33 SER d   1      76.603  91.198  57.691  0.00  0.00     0.077 H 
BRANCH  65  68
ATOM     68  OG  SER d   1      75.665  90.441  56.023  0.00  0.00    -0.398 OA
ATOM     69  H34 SER d   1      75.858  91.216  55.508  0.00  0.00     0.209 HD
ENDBRANCH  65  68
ENDBRANCH  11  65
ENDBRANCH   8  11
ENDBRANCH   5   7
BRANCH   5  70
ATOM     70  CB  LYS d   1      74.642  89.973  62.179  0.00  0.00    -0.038 C 
ATOM     71  H37 LYS d   1      75.593  90.490  62.377  0.00  0.00     0.036 H 
ATOM     72  H38 LYS d   1      74.802  88.885  62.214  0.00  0.00     0.036 H 
BRANCH  70  73
ATOM     73  CG  LYS d   1      73.665  90.343  63.280  0.00  0.00    -0.061 C 
ATOM     74  H39 LYS d   1      72.839  89.617  63.284  0.00  0.00     0.033 H 
ATOM     75  H40 LYS d   1      73.268  91.349  63.082  0.00  0.00     0.033 H 
BRANCH  73  76
ATOM     76  CD  LYS d   1      74.337  90.336  64.647  0.00  0.00    -0.043 C 
ATOM     77  H41 LYS d   1      75.077  91.148  64.691  0.00  0.00     0.035 H 
ATOM     78  H42 LYS d   1      74.843  89.371  64.797  0.00  0.00     0.035 H 
BRANCH  76  79
ATOM     79  CE  LYS d   1      73.311  90.537  65.745  0.00  0.00     0.080 C 
ATOM     80  H43 LYS d   1      72.590  89.707  65.697  0.00  0.00     0.075 H 
ATOM     81  H44 LYS d   1      72.790  91.487  65.558  0.00  0.00     0.075 H 
BRANCH  79  82
ATOM     82  NZ  LYS d   1      73.873  90.581  67.111  0.00  0.00    -0.079 N 
ATOM     83  H45 LYS d   1      73.128  90.717  67.776  0.00  0.00     0.274 HD
ATOM     84  H46 LYS d   1      74.528  91.344  67.180  0.00  0.00     0.274 HD
ATOM     85  H47 LYS d   1      74.346  89.713  67.308  0.00  0.00     0.274 HD
ENDBRANCH  79  82
ENDBRANCH  76  79
ENDBRANCH  73  76
ENDBRANCH  70  73
ENDBRANCH   5  70
ENDBRANCH   1   5
BRANCH   3  86
ATOM     86  CA  HIS d   1      72.192  93.627  60.972  0.00  0.00     0.094 C 
ATOM     87  H49 HIS d   1      72.966  94.144  61.558  0.00  0.00     0.088 H 
BRANCH  86  88
ATOM     88  C   HIS d   1      70.852  94.025  61.612  0.00  0.00     0.241 C 
ATOM     89  O   HIS d   1      69.778  93.761  61.065  0.00  0.00    -0.271 OA
ATOM     90  N   TRP d   1      70.939  94.676  62.773  0.00  0.00    -0.346 N 
ATOM     91  H55 TRP d   1      71.848  94.838  63.157  0.00  0.00     0.163 HD
BRANCH  90  92
ATOM     92  CA  TRP d   1      69.776  95.167  63.518  0.00  0.00     0.093 C 
ATOM     93  H56 TRP d   1      69.204  95.833  62.855  0.00  0.00     0.088 H 
BRANCH  92  94
ATOM     94  C   TRP d   1      70.238  95.981  64.723  0.00  0.00     0.241 C 
ATOM     95  O   TRP d   1      71.167  96.794  64.588  0.00  0.00    -0.271 OA
ATOM     96  N   THR d   1      69.604  95.779  65.882  0.00  0.00    -0.344 N 
ATOM     97  H65 THR d   1      68.857  95.115  65.908  0.00  0.00     0.163 HD
BRANCH  96  98
ATOM     98  CA  THR d   1      69.958  96.495  67.129  0.00  0.00     0.113 C 
ATOM     99  H66 THR d   1      69.101  96.409  67.814  0.00  0.00     0.091 H 
BRANCH  98 100
ATOM    100  C   THR d   1      70.242  97.992  66.903  0.00  0.00     0.243 C 
ATOM    101  O   THR d   1      69.900  98.556  65.852  0.00  0.00    -0.271 OA
ATOM    102  N   GLY d   1      70.857  98.636  67.894  0.00  0.00    -0.350 N 
ATOM    103  H72 GLY d   1      71.100  98.146  68.731  0.00  0.00     0.163 HD
BRANCH 102 104
ATOM    104  CA  GLY d   1      71.177 100.048  67.763  0.00  0.00     0.069 C 
ATOM    105  H73 GLY d   1      70.674 100.441  66.868  0.00  0.00     0.078 H 
ATOM    106  H74 GLY d   1      72.266 100.153  67.647  0.00  0.00     0.078 H 
BRANCH 104 107
ATOM    107  C   GLY d   1      70.737 100.860  68.962  0.00  0.00     0.236 C 
ATOM    108  O   GLY d   1      69.530 101.105  69.141  0.00  0.00    -0.272 OA
ATOM    109  N   ILE d   1      71.698 101.268  69.792  0.00  0.00    -0.345 N 
ATOM    110  H75 ILE d   1      72.648 101.020  69.603  0.00  0.00     0.163 HD
BRANCH 109 111
ATOM    111  CA  ILE d   1      71.386 102.071  70.973  0.00  0.00     0.099 C 
ATOM    112  H76 ILE d   1      70.332 102.380  70.907  0.00  0.00     0.090 H 
BRANCH 111 113
ATOM    113  C   ILE d   1      72.262 103.340  71.033  0.00  0.00     0.197 C 
ATOM    114  O   ILE d   1      71.903 104.333  70.343  0.00  0.00    -0.646 OA
ATOM    115  OXT ILE d   1      73.298 103.332  71.746  0.00  0.00    -0.646 OA
ENDBRANCH 111 113
BRANCH 111 116
ATOM    116  CB  ILE d   1      71.575 101.248  72.276  0.00  0.00    -0.029 C 
ATOM    117  H77 ILE d   1      72.648 101.069  72.436  0.00  0.00     0.043 H 
BRANCH 116 118
ATOM    118  CG1 ILE d   1      70.851  99.897  72.155  0.00  0.00    -0.063 C 
ATOM    119  H78 ILE d   1      71.138  99.436  71.198  0.00  0.00     0.033 H 
ATOM    120  H79 ILE d   1      69.767 100.084  72.162  0.00  0.00     0.033 H 
BRANCH 118 121
ATOM    121  CD1 ILE d   1      71.178  98.901  73.290  0.00  0.00    -0.076 C 
ATOM    122  H83 ILE d   1      70.622  97.966  73.129  0.00  0.00     0.027 H 
ATOM    123  H84 ILE d   1      70.887  99.338  74.257  0.00  0.00     0.027 H 
ATOM    124  H85 ILE d   1      72.258  98.690  73.293  0.00  0.00     0.027 H 
ENDBRANCH 118 121
ENDBRANCH 116 118
BRANCH 116 125
ATOM    125  CG2 ILE d   1      71.008 102.032  73.475  0.00  0.00    -0.070 C 
ATOM    126  H80 ILE d   1      71.527 102.998  73.560  0.00  0.00     0.028 H 
ATOM    127  H81 ILE d   1      71.160 101.452  74.397  0.00  0.00     0.028 H 
ATOM    128  H82 ILE d   1      69.932 102.206  73.324  0.00  0.00     0.028 H 
ENDBRANCH 116 125
ENDBRANCH 111 116
ENDBRANCH 109 111
ENDBRANCH 104 107
ENDBRANCH 102 104
ENDBRANCH  98 100
BRANCH  98 129
ATOM    129  CB  THR d   1      71.212  95.856  67.822  0.00  0.00     0.060 C 
ATOM    130  H67 THR d   1      72.117  96.169  67.281  0.00  0.00     0.086 H 
BRANCH 129 131
ATOM    131  OG1 THR d   1      71.106  94.429  67.791  0.00  0.00    -0.393 OA
ATOM    132  H68 THR d   1      71.867  94.047  68.212  0.00  0.00     0.210 HD
ENDBRANCH 129 131
BRANCH 129 133
ATOM    133  CG2 THR d   1      71.322  96.296  69.289  0.00  0.00    -0.050 C 
ATOM    134  H69 THR d   1      72.209  95.832  69.745  0.00  0.00     0.031 H 
ATOM    135  H70 THR d   1      70.421  95.980  69.835  0.00  0.00     0.031 H 
ATOM    136  H71 THR d   1      71.415  97.391  69.337  0.00  0.00     0.031 H 
ENDBRANCH 129 133
ENDBRANCH  98 129
ENDBRANCH  96  98
ENDBRANCH  92  94
BRANCH  92 137
ATOM    137  CB  TRP d   1      68.841  94.009  63.943  0.00  0.00    -0.012 C 
ATOM    138  H57 TRP d   1      68.385  93.606  63.026  0.00  0.00     0.044 H 
ATOM    139  H58 TRP d   1      68.058  94.442  64.583  0.00  0.00     0.044 H 
BRANCH 137 140
ATOM    140  CG  TRP d   1      69.438  92.840  64.696  0.00  0.00    -0.028 A 
ATOM    141  CD1 TRP d   1      69.692  92.765  66.040  0.00  0.00    -0.015 A 
ATOM    142  NE1 TRP d   1      70.141  91.496  66.372  0.00  0.00    -0.365 N 
ATOM    143  H59 TRP d   1      69.560  93.584  66.746  0.00  0.00     0.112 H 
ATOM    144  CE2 TRP d   1      70.189  90.730  65.234  0.00  0.00     0.042 A 
ATOM    145  H60 TRP d   1      70.397  91.180  67.318  0.00  0.00     0.165 HD
ATOM    146  CD2 TRP d   1      69.757  91.542  64.155  0.00  0.00    -0.002 A 
ATOM    147  CZ2 TRP d   1      70.576  89.386  65.060  0.00  0.00    -0.056 A 
ATOM    148  CE3 TRP d   1      69.714  90.986  62.864  0.00  0.00    -0.070 A 
ATOM    149  CZ3 TRP d   1      70.103  89.640  62.691  0.00  0.00    -0.082 A 
ATOM    150  H61 TRP d   1      69.388  91.580  62.018  0.00  0.00     0.084 H 
ATOM    151  CH2 TRP d   1      70.526  88.864  63.788  0.00  0.00    -0.081 A 
ATOM    152  H63 TRP d   1      70.076  89.198  61.702  0.00  0.00     0.083 H 
ATOM    153  H64 TRP d   1      70.819  87.833  63.626  0.00  0.00     0.083 H 
ATOM    154  H62 TRP d   1      70.902  88.784  65.900  0.00  0.00     0.086 H 
ENDBRANCH 137 140
ENDBRANCH  92 137
ENDBRANCH  90  92
ENDBRANCH  86  88
BRANCH  86 155
ATOM    155  CB  HIS d   1      72.241  94.195  59.551  0.00  0.00     0.004 C 
ATOM    156  H50 HIS d   1      73.276  94.501  59.336  0.00  0.00     0.046 H 
ATOM    157  H51 HIS d   1      71.582  95.075  59.507  0.00  0.00     0.046 H 
BRANCH 155 158
ATOM    158  CG  HIS d   1      71.807  93.230  58.495  0.00  0.00     0.053 A 
ATOM    159  ND1 HIS d   1      70.796  92.312  58.695  0.00  0.00    -0.247 NA
ATOM    160  CE1 HIS d   1      70.611  91.620  57.583  0.00  0.00     0.064 A 
ATOM    161  NE2 HIS d   1      71.463  92.056  56.669  0.00  0.00    -0.359 N 
ATOM    162  H53 HIS d   1      69.880  90.825  57.443  0.00  0.00     0.143 H 
ATOM    163  CD2 HIS d   1      72.225  93.062  57.215  0.00  0.00     0.002 A 
ATOM    164  H54 HIS d   1      71.542  91.700  55.706  0.00  0.00     0.166 HD
ATOM    165  H52 HIS d   1      73.015  93.619  56.714  0.00  0.00     0.114 H 
ENDBRANCH 155 158
ENDBRANCH  86 155
ENDBRANCH   3  86
TORSDOF 47
