REMARK  6 active torsions:
REMARK  status: ('A' for Active; 'I' for Inactive)
REMARK    1  A    between atoms: C6_2  and  O8_3 
REMARK    2  A    between atoms: C6_2  and  C1_6 
REMARK    3  A    between atoms: O8_3  and  C11_4 
REMARK    4  A    between atoms: C11_4  and  C12_5 
REMARK    5  A    between atoms: C4_7  and  C9_8 
REMARK    6  A    between atoms: C5_9  and  C10_10 
ROOT
ATOM      1  C1  DEE d   1      14.404  45.622  11.543  0.00  0.00     0.089 A 
ATOM      2  C4  DEE d   1      13.249  45.781  12.309  0.00  0.00     0.042 A 
ATOM      3  C5  DEE d   1      15.436  45.479  12.517  0.00  0.00     0.069 A 
ATOM      4  N2  DEE d   1      14.968  45.539  13.770  0.00  0.00    -0.179 NA
ATOM      5  N3  DEE d   1      13.652  45.725  13.614  0.00  0.00    -0.281 N 
ATOM      6  H12 DEE d   1      13.001  45.818  14.407  0.00  0.00     0.189 HD
ENDROOT
BRANCH   1   7
ATOM      7  C6  DEE d   1      14.574  45.603  10.089  0.00  0.00     0.297 C 
ATOM      8  O7  DEE d   1      15.670  45.762   9.557  0.00  0.00    -0.259 OA
BRANCH   7   9
ATOM      9  O8  DEE d   1      13.385  45.621   9.405  0.00  0.00    -0.318 OA
BRANCH   9  10
ATOM     10  C11 DEE d   1      13.451  45.673   7.968  0.00  0.00     0.026 C 
ATOM     11  H1  DEE d   1      13.933  44.761   7.587  0.00  0.00     0.074 H 
ATOM     12  H2  DEE d   1      14.033  46.553   7.657  0.00  0.00     0.074 H 
BRANCH  10  13
ATOM     13  C12 DEE d   1      12.046  45.773   7.416  0.00  0.00    -0.056 C 
ATOM     14  H3  DEE d   1      12.086  45.813   6.317  0.00  0.00     0.030 H 
ATOM     15  H4  DEE d   1      11.566  46.685   7.799  0.00  0.00     0.030 H 
ATOM     16  H5  DEE d   1      11.465  44.893   7.730  0.00  0.00     0.030 H 
ENDBRANCH  10  13
ENDBRANCH   9  10
ENDBRANCH   7   9
ENDBRANCH   1   7
BRANCH   2  17
ATOM     17  C9  DEE d   1      11.820  45.984  11.968  0.00  0.00    -0.035 C 
ATOM     18  H6  DEE d   1      11.230  46.063  12.893  0.00  0.00     0.035 H 
ATOM     19  H7  DEE d   1      11.460  45.131  11.375  0.00  0.00     0.035 H 
ATOM     20  H8  DEE d   1      11.710  46.909  11.383  0.00  0.00     0.035 H 
ENDBRANCH   2  17
BRANCH   3  21
ATOM     21  C10 DEE d   1      16.887  45.274  12.281  0.00  0.00    -0.033 C 
ATOM     22  H9  DEE d   1      17.409  45.203  13.247  0.00  0.00     0.035 H 
ATOM     23  H10 DEE d   1      17.289  46.123  11.709  0.00  0.00     0.035 H 
ATOM     24  H11 DEE d   1      17.038  44.344  11.713  0.00  0.00     0.035 H 
ENDBRANCH   3  21
TORSDOF 6
