REMARK  7 active torsions:
REMARK  status: ('A' for Active; 'I' for Inactive)
REMARK    1  A    between atoms: C14_1  and  C10_5 
REMARK    2  A    between atoms: C14_1  and  O15_2 
REMARK    3  A    between atoms: O15_2  and  C16_3 
REMARK    4  A    between atoms: C16_3  and  C17_4 
REMARK    5  A    between atoms: C11_6  and  C12_8 
REMARK    6  A    between atoms: C8_9  and  C9_10 
REMARK    7  A    between atoms: N1_11  and  C2_12 
ROOT
ATOM      1  C10 3DE d   1      14.590   6.116  11.435  0.00  0.00     0.089 A 
ATOM      2  C11 3DE d   1      15.776   6.035  12.311  0.00  0.00     0.069 A 
ATOM      3  N13 3DE d   1      15.312   5.825  13.515  0.00  0.00    -0.171 NA
ATOM      4  C8  3DE d   1      13.489   6.091  12.226  0.00  0.00     0.051 A 
ATOM      5  N1  3DE d   1      13.887   5.929  13.525  0.00  0.00    -0.237 N 
ENDROOT
BRANCH   5   6
ATOM      6  C2  3DE d   1      13.104   5.814  14.689  0.00  0.00     0.058 A 
ATOM      7  C7  3DE d   1      12.275   4.698  14.845  0.00  0.00    -0.055 A 
ATOM      8  C6  3DE d   1      11.505   4.550  16.008  0.00  0.00    -0.081 A 
ATOM      9  H16 3DE d   1      12.228   3.946  14.066  0.00  0.00     0.087 H 
ATOM     10  C5  3DE d   1      11.579   5.517  17.015  0.00  0.00    -0.083 A 
ATOM     11  H15 3DE d   1      10.856   3.690  16.125  0.00  0.00     0.083 H 
ATOM     12  C4  3DE d   1      12.424   6.630  16.864  0.00  0.00    -0.081 A 
ATOM     13  H14 3DE d   1      10.983   5.408  17.914  0.00  0.00     0.083 H 
ATOM     14  C3  3DE d   1      13.199   6.777  15.703  0.00  0.00    -0.055 A 
ATOM     15  H13 3DE d   1      12.477   7.378  17.647  0.00  0.00     0.083 H 
ATOM     16  H12 3DE d   1      13.864   7.626  15.592  0.00  0.00     0.087 H 
ENDBRANCH   5   6
BRANCH   4  17
ATOM     17  C9  3DE d   1      12.049   6.222  11.799  0.00  0.00    -0.034 C 
ATOM     18  H9  3DE d   1      12.000   6.341  10.707  0.00  0.00     0.035 H 
ATOM     19  H10 3DE d   1      11.601   7.102  12.284  0.00  0.00     0.035 H 
ATOM     20  H11 3DE d   1      11.495   5.319  12.094  0.00  0.00     0.035 H 
ENDBRANCH   4  17
BRANCH   2  21
ATOM     21  C12 3DE d   1      17.228   5.923  11.928  0.00  0.00    -0.033 C 
ATOM     22  H6  3DE d   1      17.845   5.885  12.838  0.00  0.00     0.035 H 
ATOM     23  H7  3DE d   1      17.517   6.797  11.325  0.00  0.00     0.035 H 
ATOM     24  H8  3DE d   1      17.383   5.006  11.341  0.00  0.00     0.035 H 
ENDBRANCH   2  21
BRANCH   1  25
ATOM     25  C14 3DE d   1      14.649   6.299   9.973  0.00  0.00     0.297 C 
ATOM     26  O1  3DE d   1      15.721   6.319   9.434  0.00  0.00    -0.259 OA
BRANCH  25  27
ATOM     27  O15 3DE d   1      13.522   6.087   9.270  0.00  0.00    -0.318 OA
BRANCH  27  28
ATOM     28  C16 3DE d   1      13.532   6.143   7.833  0.00  0.00     0.026 C 
ATOM     29  H1  3DE d   1      13.917   5.196   7.428  0.00  0.00     0.074 H 
ATOM     30  H2  3DE d   1      14.173   6.972   7.499  0.00  0.00     0.074 H 
BRANCH  28  31
ATOM     31  C17 3DE d   1      12.114   6.367   7.345  0.00  0.00    -0.056 C 
ATOM     32  H3  3DE d   1      12.107   6.412   6.246  0.00  0.00     0.030 H 
ATOM     33  H4  3DE d   1      11.731   7.314   7.753  0.00  0.00     0.030 H 
ATOM     34  H5  3DE d   1      11.475   5.537   7.682  0.00  0.00     0.030 H 
ENDBRANCH  28  31
ENDBRANCH  27  28
ENDBRANCH  25  27
ENDBRANCH   1  25
TORSDOF 7
