REMARK  9 active torsions:
REMARK  status: ('A' for Active; 'I' for Inactive)
REMARK    1  A    between atoms: C2_2  and  O4_3 
REMARK    2  A    between atoms: C2_2  and  C1_6 
REMARK    3  A    between atoms: O4_3  and  C5_4 
REMARK    4  A    between atoms: C5_4  and  C6_5 
REMARK    5  A    between atoms: C7_7  and  C8_8 
REMARK    6  A    between atoms: N10_10  and  C11_13 
REMARK    7  A    between atoms: C12_11  and  C13_12 
REMARK    8  A    between atoms: C16_16  and  O17_19 
REMARK    9  A    between atoms: O17_19  and  C18_20 
ROOT
ATOM      1  C1  4DE d   1      14.835  45.564  11.392  0.00  0.00     0.089 A 
ATOM      2  C7  4DE d   1      13.749  45.542  12.318  0.00  0.00     0.069 A 
ATOM      3  N9  4DE d   1      14.213  45.397  13.557  0.00  0.00    -0.171 NA
ATOM      4  N10 4DE d   1      15.566  45.309  13.520  0.00  0.00    -0.237 N 
ATOM      5  C12 4DE d   1      15.980  45.402  12.191  0.00  0.00     0.051 A 
ENDROOT
BRANCH   4   6
ATOM      6  C11 4DE d   1      16.287  45.137  14.754  0.00  0.00     0.058 A 
ATOM      7  C14 4DE d   1      16.353  43.837  15.294  0.00  0.00    -0.052 A 
ATOM      8  C15 4DE d   1      17.031  43.588  16.490  0.00  0.00    -0.049 A 
ATOM      9  H12 4DE d   1      15.870  43.018  14.774  0.00  0.00     0.087 H 
ATOM     10  C16 4DE d   1      17.657  44.633  17.177  0.00  0.00     0.068 A 
ATOM     11  H13 4DE d   1      17.072  42.580  16.887  0.00  0.00     0.087 H 
ATOM     12  C19 4DE d   1      17.600  45.928  16.652  0.00  0.00    -0.049 A 
ATOM     13  C20 4DE d   1      16.921  46.181  15.448  0.00  0.00    -0.052 A 
ATOM     14  H14 4DE d   1      18.084  46.743  17.178  0.00  0.00     0.087 H 
ATOM     15  H15 4DE d   1      16.886  47.189  15.052  0.00  0.00     0.087 H 
BRANCH  10  16
ATOM     16  O17 4DE d   1      18.346  44.499  18.374  0.00  0.00    -0.356 OA
BRANCH  16  17
ATOM     17  C18 4DE d   1      17.575  44.645  19.574  0.00  0.00     0.010 C 
ATOM     18  H16 4DE d   1      18.230  44.518  20.448  0.00  0.00     0.066 H 
ATOM     19  H17 4DE d   1      16.782  43.882  19.596  0.00  0.00     0.066 H 
ATOM     20  H18 4DE d   1      17.121  45.647  19.599  0.00  0.00     0.066 H 
ENDBRANCH  16  17
ENDBRANCH  10  16
ENDBRANCH   4   6
BRANCH   5  21
ATOM     21  C13 4DE d   1      17.400  45.352  11.748  0.00  0.00    -0.034 C 
ATOM     22  H9  4DE d   1      17.446  45.447  10.653  0.00  0.00     0.035 H 
ATOM     23  H10 4DE d   1      17.845  44.393  12.052  0.00  0.00     0.035 H 
ATOM     24  H11 4DE d   1      17.958  46.179  12.212  0.00  0.00     0.035 H 
ENDBRANCH   5  21
BRANCH   2  25
ATOM     25  C8  4DE d   1      12.281  45.669  12.122  0.00  0.00    -0.033 C 
ATOM     26  H6  4DE d   1      11.774  45.600  13.096  0.00  0.00     0.035 H 
ATOM     27  H7  4DE d   1      11.927  44.860  11.466  0.00  0.00     0.035 H 
ATOM     28  H8  4DE d   1      12.056  46.641  11.659  0.00  0.00     0.035 H 
ENDBRANCH   2  25
BRANCH   1  29
ATOM     29  C2  4DE d   1      14.848  45.695   9.932  0.00  0.00     0.297 C 
ATOM     30  O3  4DE d   1      15.772  46.214   9.315  0.00  0.00    -0.259 OA
BRANCH  29  31
ATOM     31  O4  4DE d   1      13.757  45.100   9.340  0.00  0.00    -0.318 OA
BRANCH  31  32
ATOM     32  C5  4DE d   1      12.674  45.841   8.761  0.00  0.00     0.026 C 
ATOM     33  H1  4DE d   1      12.618  46.832   9.236  0.00  0.00     0.074 H 
ATOM     34  H2  4DE d   1      11.732  45.299   8.932  0.00  0.00     0.074 H 
BRANCH  32  35
ATOM     35  C6  4DE d   1      12.887  46.013   7.271  0.00  0.00    -0.056 C 
ATOM     36  H3  4DE d   1      12.048  46.583   6.844  0.00  0.00     0.030 H 
ATOM     37  H4  4DE d   1      12.941  45.024   6.792  0.00  0.00     0.030 H 
ATOM     38  H5  4DE d   1      13.827  46.557   7.095  0.00  0.00     0.030 H 
ENDBRANCH  32  35
ENDBRANCH  31  32
ENDBRANCH  29  31
ENDBRANCH   1  29
TORSDOF 9
