REMARK  8 active torsions:
REMARK  status: ('A' for Active; 'I' for Inactive)
REMARK    1  A    between atoms: C15_2  and  O16_3 
REMARK    2  A    between atoms: C15_2  and  C7_6 
REMARK    3  A    between atoms: O16_3  and  C17_4 
REMARK    4  A    between atoms: C17_4  and  C18_5 
REMARK    5  A    between atoms: C8_7  and  C9_9 
REMARK    6  A    between atoms: C5_10  and  C6_11 
REMARK    7  A    between atoms: N4_12  and  C3_13 
REMARK    8  A    between atoms: C13_18  and  N14_19 
ROOT
ATOM      1  C7  5DE d   1      14.765   6.015  11.324  0.00  0.00     0.089 A 
ATOM      2  C8  5DE d   1      15.868   5.875  12.169  0.00  0.00     0.069 A 
ATOM      3  N10 5DE d   1      15.438   5.721  13.426  0.00  0.00    -0.171 NA
ATOM      4  C5  5DE d   1      13.656   5.923  12.167  0.00  0.00     0.051 A 
ATOM      5  N4  5DE d   1      14.112   5.755  13.415  0.00  0.00    -0.237 N 
ENDROOT
BRANCH   5   6
ATOM      6  C3  5DE d   1      13.359   5.587  14.512  0.00  0.00     0.058 A 
ATOM      7  C2  5DE d   1      13.051   6.630  15.406  0.00  0.00    -0.053 A 
ATOM      8  C1  5DE d   1      12.266   6.354  16.537  0.00  0.00    -0.056 A 
ATOM      9  H12 5DE d   1      13.416   7.634  15.223  0.00  0.00     0.087 H 
ATOM     10  C13 5DE d   1      11.779   5.040  16.758  0.00  0.00     0.025 A 
ATOM     11  H13 5DE d   1      12.032   7.144  17.241  0.00  0.00     0.087 H 
ATOM     12  C12 5DE d   1      12.093   4.019  15.865  0.00  0.00    -0.056 A 
ATOM     13  C11 5DE d   1      12.885   4.285  14.751  0.00  0.00    -0.053 A 
ATOM     14  H15 5DE d   1      11.720   3.016  16.037  0.00  0.00     0.087 H 
ATOM     15  H14 5DE d   1      13.137   3.485  14.065  0.00  0.00     0.087 H 
BRANCH  10  16
ATOM     16  N14 5DE d   1      11.015   4.743  17.825  0.00  0.00    -0.399 N 
ATOM     17  H16 5DE d   1      10.767   5.479  18.502  0.00  0.00     0.156 HD
ATOM     18  H17 5DE d   1      10.678   3.780  17.965  0.00  0.00     0.156 HD
ENDBRANCH  10  16
ENDBRANCH   5   6
BRANCH   4  19
ATOM     19  C6  5DE d   1      12.189   6.015  11.769  0.00  0.00    -0.034 C 
ATOM     20  H9  5DE d   1      12.112   6.152  10.680  0.00  0.00     0.035 H 
ATOM     21  H10 5DE d   1      11.723   6.871  12.280  0.00  0.00     0.035 H 
ATOM     22  H11 5DE d   1      11.672   5.089  12.059  0.00  0.00     0.035 H 
ENDBRANCH   4  19
BRANCH   2  23
ATOM     23  C9  5DE d   1      17.354   5.890  11.843  0.00  0.00    -0.033 C 
ATOM     24  H6  5DE d   1      17.934   5.750  12.767  0.00  0.00     0.035 H 
ATOM     25  H7  5DE d   1      17.620   6.855  11.387  0.00  0.00     0.035 H 
ATOM     26  H8  5DE d   1      17.583   5.076  11.139  0.00  0.00     0.035 H 
ENDBRANCH   2  23
BRANCH   1  27
ATOM     27  C15 5DE d   1      14.757   6.188   9.833  0.00  0.00     0.297 C 
ATOM     28  O19 5DE d   1      15.803   6.283   9.235  0.00  0.00    -0.259 OA
BRANCH  27  29
ATOM     29  O16 5DE d   1      13.573   6.171   9.221  0.00  0.00    -0.318 OA
BRANCH  29  30
ATOM     30  C17 5DE d   1      13.566   6.192   7.779  0.00  0.00     0.026 C 
ATOM     31  H1  5DE d   1      14.093   5.304   7.400  0.00  0.00     0.074 H 
ATOM     32  H2  5DE d   1      14.077   7.100   7.426  0.00  0.00     0.074 H 
BRANCH  30  33
ATOM     33  C18 5DE d   1      12.120   6.187   7.256  0.00  0.00    -0.056 C 
ATOM     34  H3  5DE d   1      12.128   6.203   6.156  0.00  0.00     0.030 H 
ATOM     35  H4  5DE d   1      11.591   7.075   7.632  0.00  0.00     0.030 H 
ATOM     36  H5  5DE d   1      11.607   5.279   7.606  0.00  0.00     0.030 H 
ENDBRANCH  30  33
ENDBRANCH  29  30
ENDBRANCH  27  29
ENDBRANCH   1  27
TORSDOF 8
