REMARK  7 active torsions:
REMARK  status: ('A' for Active; 'I' for Inactive)
REMARK    1  A    between atoms: C13_2  and  O15_3 
REMARK    2  A    between atoms: C13_2  and  C12_6 
REMARK    3  A    between atoms: O15_3  and  C16_4 
REMARK    4  A    between atoms: C16_4  and  C17_5 
REMARK    5  A    between atoms: C18_7  and  C19_8 
REMARK    6  A    between atoms: C10_9  and  C11_10 
REMARK    7  A    between atoms: N1_12  and  C2_13 
ROOT
ATOM      1  C12 6DE d   1       1.410  48.399 -11.148  0.00  0.00     0.089 A 
ATOM      2  C18 6DE d   1       1.840  49.019  -9.970  0.00  0.00     0.051 A 
ATOM      3  C10 6DE d   1       2.547  47.978 -11.856  0.00  0.00     0.069 A 
ATOM      4  N9  6DE d   1       3.717  48.269 -11.245  0.00  0.00    -0.171 NA
ATOM      5  N1  6DE d   1       3.312  48.969  -9.996  0.00  0.00    -0.235 N 
ENDROOT
BRANCH   5   6
ATOM      6  C2  6DE d   1       4.189  49.437  -9.074  0.00  0.00     0.080 A 
ATOM      7  C3  6DE d   1       4.558  48.619  -8.020  0.00  0.00     0.062 A 
ATOM      8 CL4  6DE d   1       3.845  47.038  -7.954  0.00  0.00    -0.082 Cl
ATOM      9  C5  6DE d   1       5.464  49.040  -7.046  0.00  0.00    -0.060 A 
ATOM     10  C6  6DE d   1       6.015  50.314  -7.138  0.00  0.00    -0.081 A 
ATOM     11  H12 6DE d   1       5.735  48.383  -6.228  0.00  0.00     0.086 H 
ATOM     12  C7  6DE d   1       5.656  51.156  -8.197  0.00  0.00    -0.081 A 
ATOM     13  H13 6DE d   1       6.722  50.654  -6.390  0.00  0.00     0.083 H 
ATOM     14  C8  6DE d   1       4.745  50.718  -9.166  0.00  0.00    -0.053 A 
ATOM     15  H14 6DE d   1       6.084  52.149  -8.267  0.00  0.00     0.083 H 
ATOM     16  H15 6DE d   1       4.471  51.371  -9.987  0.00  0.00     0.087 H 
ENDBRANCH   5   6
BRANCH   2  17
ATOM     17  C19 6DE d   1       0.991  49.649  -8.862  0.00  0.00    -0.034 C 
ATOM     18  H6  6DE d   1      -0.075  49.539  -9.110  0.00  0.00     0.035 H 
ATOM     19  H7  6DE d   1       1.238  50.717  -8.773  0.00  0.00     0.035 H 
ATOM     20  H8  6DE d   1       1.200  49.144  -7.908  0.00  0.00     0.035 H 
ENDBRANCH   2  17
BRANCH   1  21
ATOM     21  C13 6DE d   1      -0.031  48.220 -11.567  0.00  0.00     0.297 C 
ATOM     22  O14 6DE d   1      -0.281  48.013 -12.747  0.00  0.00    -0.259 OA
BRANCH  21  23
ATOM     23  O15 6DE d   1      -0.972  48.291 -10.604  0.00  0.00    -0.318 OA
BRANCH  23  24
ATOM     24  C16 6DE d   1      -2.347  48.544 -10.971  0.00  0.00     0.026 C 
ATOM     25  H1  6DE d   1      -2.890  47.591 -11.054  0.00  0.00     0.074 H 
ATOM     26  H2  6DE d   1      -2.383  49.072 -11.935  0.00  0.00     0.074 H 
BRANCH  24  27
ATOM     27  C17 6DE d   1      -2.993  49.419  -9.873  0.00  0.00    -0.056 C 
ATOM     28  H3  6DE d   1      -4.042  49.622 -10.136  0.00  0.00     0.030 H 
ATOM     29  H4  6DE d   1      -2.445  50.369  -9.791  0.00  0.00     0.030 H 
ATOM     30  H5  6DE d   1      -2.953  48.889  -8.910  0.00  0.00     0.030 H 
ENDBRANCH  24  27
ENDBRANCH  23  24
ENDBRANCH  21  23
ENDBRANCH   1  21
BRANCH   3  31
ATOM     31  C11 6DE d   1       2.535  47.253 -13.201  0.00  0.00    -0.033 C 
ATOM     32  H9  6DE d   1       3.569  47.047 -13.516  0.00  0.00     0.035 H 
ATOM     33  H10 6DE d   1       2.041  47.885 -13.954  0.00  0.00     0.035 H 
ATOM     34  H11 6DE d   1       1.987  46.305 -13.101  0.00  0.00     0.035 H 
ENDBRANCH   3  31
TORSDOF 7
