REMARK  8 active torsions:
REMARK  status: ('A' for Active; 'I' for Inactive)
REMARK    1  A    between atoms: N19_2  and  C12_4 
REMARK    2  A    between atoms: C3_7  and  N4_10 
REMARK    3  A    between atoms: C5_11  and  C6_12 
REMARK    4  A    between atoms: C7_13  and  C14_17 
REMARK    5  A    between atoms: C8_14  and  C9_16 
REMARK    6  A    between atoms: C14_17  and  O15_19 
REMARK    7  A    between atoms: O15_19  and  C16_20 
REMARK    8  A    between atoms: C16_20  and  C17_21 
ROOT
ATOM      1  N4  7DE d   1      41.421   1.608  63.129  0.00  0.00    -0.237 N 
ATOM      2  C5  7DE d   1      42.715   1.797  63.296  0.00  0.00     0.051 A 
ATOM      3  C7  7DE d   1      43.061   1.283  64.492  0.00  0.00     0.089 A 
ATOM      4  C8  7DE d   1      41.813   0.751  65.061  0.00  0.00     0.069 A 
ATOM      5  N10 7DE d   1      40.901   0.990  64.209  0.00  0.00    -0.171 NA
ENDROOT
BRANCH   1   6
ATOM      6  C3  7DE d   1      40.619   2.007  62.112  0.00  0.00     0.061 A 
ATOM      7  C11 7DE d   1      40.523   1.415  60.871  0.00  0.00    -0.023 A 
ATOM      8  C12 7DE d   1      39.581   1.941  59.960  0.00  0.00     0.105 A 
ATOM      9  H2  7DE d   1      41.151   0.573  60.603  0.00  0.00     0.090 H 
ATOM     10  C13 7DE d   1      38.771   3.040  60.314  0.00  0.00    -0.051 A 
ATOM     11  C1  7DE d   1      38.903   3.628  61.547  0.00  0.00    -0.078 A 
ATOM     12  H1  7DE d   1      38.041   3.422  59.609  0.00  0.00     0.087 H 
ATOM     13  C2  7DE d   1      39.807   3.093  62.433  0.00  0.00    -0.055 A 
ATOM     14  H4  7DE d   1      38.308   4.494  61.816  0.00  0.00     0.083 H 
ATOM     15  H3  7DE d   1      39.892   3.533  63.420  0.00  0.00     0.087 H 
BRANCH   8  16
ATOM     16  N19 7DE d   1      39.469   1.435  58.687  0.00  0.00    -0.116 N 
ATOM     17  O21 7DE d   1      40.510   1.573  58.017  0.00  0.00    -0.532 OA
ATOM     18  O20 7DE d   1      38.331   1.529  58.213  0.00  0.00    -0.532 OA
ENDBRANCH   8  16
ENDBRANCH   1   6
BRANCH   2  19
ATOM     19  C6  7DE d   1      43.657   2.476  62.290  0.00  0.00    -0.034 C 
ATOM     20  H5  7DE d   1      44.678   2.493  62.698  0.00  0.00     0.035 H 
ATOM     21  H6  7DE d   1      43.318   3.506  62.108  0.00  0.00     0.035 H 
ATOM     22  H7  7DE d   1      43.649   1.915  61.344  0.00  0.00     0.035 H 
ENDBRANCH   2  19
BRANCH   3  23
ATOM     23  C14 7DE d   1      44.398   1.246  65.092  0.00  0.00     0.297 C 
ATOM     24  O18 7DE d   1      44.490   0.822  66.233  0.00  0.00    -0.259 OA
BRANCH  23  25
ATOM     25  O15 7DE d   1      45.447   1.268  64.247  0.00  0.00    -0.318 OA
BRANCH  25  26
ATOM     26  C16 7DE d   1      46.772   1.296  64.809  0.00  0.00     0.026 C 
ATOM     27  H11 7DE d   1      47.053   0.283  65.133  0.00  0.00     0.074 H 
ATOM     28  H12 7DE d   1      46.788   1.975  65.674  0.00  0.00     0.074 H 
BRANCH  26  29
ATOM     29  C17 7DE d   1      47.782   1.795  63.744  0.00  0.00    -0.056 C 
ATOM     30  H13 7DE d   1      48.793   1.815  64.178  0.00  0.00     0.030 H 
ATOM     31  H14 7DE d   1      47.502   2.808  63.420  0.00  0.00     0.030 H 
ATOM     32  H15 7DE d   1      47.768   1.116  62.879  0.00  0.00     0.030 H 
ENDBRANCH  26  29
ENDBRANCH  25  26
ENDBRANCH  23  25
ENDBRANCH   3  23
BRANCH   4  33
ATOM     33  C9  7DE d   1      41.533   0.057  66.361  0.00  0.00    -0.033 C 
ATOM     34  H8  7DE d   1      40.463  -0.190  66.422  0.00  0.00     0.035 H 
ATOM     35  H9  7DE d   1      41.804   0.719  67.196  0.00  0.00     0.035 H 
ATOM     36  H10 7DE d   1      42.126  -0.868  66.418  0.00  0.00     0.035 H 
ENDBRANCH   4  33
TORSDOF 8
