REMARK  8 active torsions:
REMARK  status: ('A' for Active; 'I' for Inactive)
REMARK    1  A    between atoms: N19_2  and  C12_4 
REMARK    2  A    between atoms: C3_7  and  N4_10 
REMARK    3  A    between atoms: C5_11  and  C6_12 
REMARK    4  A    between atoms: C7_13  and  C14_17 
REMARK    5  A    between atoms: C8_14  and  C9_16 
REMARK    6  A    between atoms: C14_17  and  O15_19 
REMARK    7  A    between atoms: O15_19  and  C16_20 
REMARK    8  A    between atoms: C16_20  and  C17_21 
ROOT
ATOM      1  N4  7DE d   1      13.973  45.327  13.619  0.00  0.00    -0.237 N 
ATOM      2  C5  7DE d   1      13.523  45.458  12.386  0.00  0.00     0.051 A 
ATOM      3  C7  7DE d   1      14.574  45.443  11.529  0.00  0.00     0.089 A 
ATOM      4  C8  7DE d   1      15.749  45.282  12.403  0.00  0.00     0.069 A 
ATOM      5  N10 7DE d   1      15.314  45.223  13.589  0.00  0.00    -0.171 NA
ENDROOT
BRANCH   1   6
ATOM      6  C3  7DE d   1      13.269  45.287  14.780  0.00  0.00     0.061 A 
ATOM      7  C2  7DE d   1      13.410  46.337  15.693  0.00  0.00    -0.055 A 
ATOM      8  C1  7DE d   1      12.702  46.304  16.897  0.00  0.00    -0.078 A 
ATOM      9  H3  7DE d   1      14.065  47.171  15.468  0.00  0.00     0.087 H 
ATOM     10  C13 7DE d   1      11.862  45.227  17.194  0.00  0.00    -0.051 A 
ATOM     11  H4  7DE d   1      12.805  47.118  17.605  0.00  0.00     0.083 H 
ATOM     12  C12 7DE d   1      11.710  44.159  16.292  0.00  0.00     0.105 A 
ATOM     13  H1  7DE d   1      11.320  45.215  18.133  0.00  0.00     0.087 H 
ATOM     14  C11 7DE d   1      12.435  44.205  15.081  0.00  0.00    -0.023 A 
ATOM     15  H2  7DE d   1      12.344  43.389  14.373  0.00  0.00     0.090 H 
BRANCH  12  16
ATOM     16  N19 7DE d   1      10.891  43.108  16.591  0.00  0.00    -0.116 N 
ATOM     17  O21 7DE d   1      10.684  42.267  15.739  0.00  0.00    -0.532 OA
ATOM     18  O20 7DE d   1      10.561  42.954  17.752  0.00  0.00    -0.532 OA
ENDBRANCH  12  16
ENDBRANCH   1   6
BRANCH   2  19
ATOM     19  C6  7DE d   1      12.053  45.607  12.042  0.00  0.00    -0.034 C 
ATOM     20  H5  7DE d   1      11.939  45.699  10.952  0.00  0.00     0.035 H 
ATOM     21  H6  7DE d   1      11.652  46.508  12.530  0.00  0.00     0.035 H 
ATOM     22  H7  7DE d   1      11.502  44.722  12.395  0.00  0.00     0.035 H 
ENDBRANCH   2  19
BRANCH   4  23
ATOM     23  C9  7DE d   1      17.214  45.191  12.071  0.00  0.00    -0.033 C 
ATOM     24  H8  7DE d   1      17.794  45.073  12.998  0.00  0.00     0.035 H 
ATOM     25  H9  7DE d   1      17.531  46.109  11.555  0.00  0.00     0.035 H 
ATOM     26  H10 7DE d   1      17.389  44.324  11.417  0.00  0.00     0.035 H 
ENDBRANCH   4  23
BRANCH   3  27
ATOM     27  C14 7DE d   1      14.610  45.557  10.053  0.00  0.00     0.297 C 
ATOM     28  O18 7DE d   1      15.690  45.688   9.481  0.00  0.00    -0.259 OA
BRANCH  27  29
ATOM     29  O15 7DE d   1      13.452  45.460   9.394  0.00  0.00    -0.318 OA
BRANCH  29  30
ATOM     30  C16 7DE d   1      13.466  45.529   7.948  0.00  0.00     0.026 C 
ATOM     31  H11 7DE d   1      13.934  44.619   7.544  0.00  0.00     0.074 H 
ATOM     32  H12 7DE d   1      14.042  46.410   7.630  0.00  0.00     0.074 H 
BRANCH  30  33
ATOM     33  C17 7DE d   1      12.021  45.642   7.414  0.00  0.00    -0.056 C 
ATOM     34  H13 7DE d   1      12.039  45.694   6.315  0.00  0.00     0.030 H 
ATOM     35  H14 7DE d   1      11.552  46.552   7.816  0.00  0.00     0.030 H 
ATOM     36  H15 7DE d   1      11.443  44.761   7.730  0.00  0.00     0.030 H 
ENDBRANCH  30  33
ENDBRANCH  29  30
ENDBRANCH  27  29
ENDBRANCH   3  27
TORSDOF 8
