REMARK WARNING: 32 MAX_TORS EXCEEDED!!!
REMARK  58 active torsions:
REMARK  status: ('A' for Active; 'I' for Inactive)
REMARK    1  A    between atoms: N_1  and  CA_2 
REMARK    2  A    between atoms: CA_2  and  C_3 
REMARK    3  A    between atoms: CA_2  and  CB_5 
REMARK       I    between atoms: C_3  and  N_7 
REMARK    4  A    between atoms: CB_5  and  OG_6 
REMARK    5  A    between atoms: N_7  and  CA_8 
REMARK    6  A    between atoms: CA_8  and  C_9 
REMARK    7  A    between atoms: CA_8  and  CB_11 
REMARK       I    between atoms: C_9  and  N_18 
REMARK    8  A    between atoms: CB_11  and  CG_12 
REMARK    9  A    between atoms: CG_12  and  CD_13 
REMARK   10  A    between atoms: CD_13  and  NE_14 
REMARK       I    between atoms: NE_14  and  CZ_15 
REMARK       I    between atoms: CZ_15  and  NH1_16 
REMARK   11  A    between atoms: N_18  and  CA_19 
REMARK   12  A    between atoms: CA_19  and  C_20 
REMARK   13  A    between atoms: CA_19  and  CB_22 
REMARK       I    between atoms: C_20  and  N_25 
REMARK   14  A    between atoms: CB_22  and  CG1_23 
REMARK   15  A    between atoms: CB_22  and  CG2_24 
REMARK   16  A    between atoms: N_25  and  CA_26 
REMARK   17  A    between atoms: CA_26  and  C_27 
REMARK   18  A    between atoms: CA_26  and  CB_29 
REMARK       I    between atoms: C_27  and  N_32 
REMARK   19  A    between atoms: CB_29  and  OG1_30 
REMARK   20  A    between atoms: CB_29  and  CG2_31 
REMARK   21  A    between atoms: N_32  and  CA_33 
REMARK   22  A    between atoms: CA_33  and  C_34 
REMARK   23  A    between atoms: CA_33  and  CB_36 
REMARK       I    between atoms: C_34  and  N_46 
REMARK   24  A    between atoms: CB_36  and  CG_37 
REMARK   25  A    between atoms: N_46  and  CA_47 
REMARK   26  A    between atoms: CA_47  and  C_48 
REMARK   27  A    between atoms: CA_47  and  CB_50 
REMARK       I    between atoms: C_48  and  N_58 
REMARK   28  A    between atoms: CB_50  and  CG_51 
REMARK   29  A    between atoms: CZ_56  and  OH_57 
REMARK   30  A    between atoms: N_58  and  CA_59 
REMARK   31  A    between atoms: CA_59  and  C_60 
REMARK   32  A    between atoms: CA_59  and  CB_62 
REMARK       I    between atoms: C_60  and  N_66 
REMARK   33  A    between atoms: CB_62  and  CG_63 
REMARK   34  A    between atoms: N_66  and  CA_67 
REMARK   35  A    between atoms: CA_67  and  C_68 
REMARK   36  A    between atoms: CA_67  and  CB_70 
REMARK       I    between atoms: C_68  and  N_77 
REMARK   37  A    between atoms: CB_70  and  CG_71 
REMARK   38  A    between atoms: N_77  and  CA_78 
REMARK   39  A    between atoms: CA_78  and  C_79 
REMARK   40  A    between atoms: CA_78  and  CB_81 
REMARK       I    between atoms: C_79  and  N_85 
REMARK   41  A    between atoms: CB_81  and  CG_82 
REMARK   42  A    between atoms: CG_82  and  CD1_83 
REMARK   43  A    between atoms: CG_82  and  CD2_84 
REMARK   44  A    between atoms: N_85  and  CA_86 
REMARK   45  A    between atoms: CA_86  and  C_87 
REMARK   46  A    between atoms: CA_86  and  CB_89 
REMARK       I    between atoms: C_87  and  N_93 
REMARK   47  A    between atoms: CB_89  and  CG_90 
REMARK   48  A    between atoms: CG_90  and  SD_91 
REMARK   49  A    between atoms: SD_91  and  CE_92 
REMARK   50  A    between atoms: N_93  and  CA_94 
REMARK   51  A    between atoms: CA_94  and  C_95 
REMARK   52  A    between atoms: CA_94  and  CB_97 
REMARK       I    between atoms: C_95  and  N_102 
REMARK   53  A    between atoms: CB_97  and  CG_98 
REMARK   54  A    between atoms: CG_98  and  CD_99 
REMARK   55  A    between atoms: N_102  and  CA_103 
REMARK   56  A    between atoms: CA_103  and  C_104 
REMARK   57  A    between atoms: CA_103  and  CB_106 
REMARK   58  A    between atoms: CB_106  and  CG_107 
ROOT
ATOM      1  CA  TYR d   1      21.864 -14.632  -3.689  0.00  0.00     0.093 C 
ATOM      2  H48 TYR d   1      20.946 -15.182  -3.437  0.00  0.00     0.088 H 
ENDROOT
BRANCH   1   3
ATOM      3  N   TYR d   1      22.487 -14.191  -2.454  0.00  0.00    -0.346 N 
ATOM      4  C   TRP d   1      22.724 -15.043  -1.461  0.00  0.00     0.241 C 
ATOM      5  O   TRP d   1      22.435 -16.232  -1.521  0.00  0.00    -0.271 OA
ATOM      6  H47 TYR d   1      22.742 -13.230  -2.348  0.00  0.00     0.163 HD
BRANCH   4   7
ATOM      7  CA  TRP d   1      23.393 -14.473  -0.221  0.00  0.00     0.093 C 
ATOM      8  H38 TRP d   1      24.110 -15.217   0.156  0.00  0.00     0.088 H 
BRANCH   7   9
ATOM      9  N   TRP d   1      24.134 -13.266  -0.560  0.00  0.00    -0.346 N 
ATOM     10  C   THR d   1      25.330 -13.375  -1.133  0.00  0.00     0.243 C 
ATOM     11  O   THR d   1      25.852 -14.462  -1.377  0.00  0.00    -0.271 OA
ATOM     12  H37 TRP d   1      23.748 -12.364  -0.364  0.00  0.00     0.163 HD
BRANCH  10  13
ATOM     13  CA  THR d   1      26.059 -12.091  -1.489  0.00  0.00     0.113 C 
ATOM     14  H31 THR d   1      26.152 -11.438  -0.609  0.00  0.00     0.091 H 
BRANCH  13  15
ATOM     15  N   THR d   1      27.386 -12.479  -1.963  0.00  0.00    -0.344 N 
ATOM     16  C   VAL d   1      28.322 -12.943  -1.137  0.00  0.00     0.241 C 
ATOM     17  O   VAL d   1      28.151 -13.044   0.076  0.00  0.00    -0.271 OA
ATOM     18  H30 THR d   1      27.597 -12.393  -2.937  0.00  0.00     0.163 HD
BRANCH  16  19
ATOM     19  CA  VAL d   1      29.654 -13.348  -1.780  0.00  0.00     0.092 C 
ATOM     20  H22 VAL d   1      29.942 -12.568  -2.500  0.00  0.00     0.088 H 
BRANCH  19  21
ATOM     21  N   VAL d   1      30.739 -13.486  -0.814  0.00  0.00    -0.346 N 
ATOM     22  C   ARG d   1      31.997 -13.234  -1.164  0.00  0.00     0.241 C 
ATOM     23  O   ARG d   1      32.311 -12.858  -2.294  0.00  0.00    -0.271 OA
ATOM     24  H21 VAL d   1      30.534 -13.773   0.122  0.00  0.00     0.163 HD
BRANCH  22  25
ATOM     25  CA  ARG d   1      33.060 -13.431  -0.088  0.00  0.00     0.089 C 
ATOM     26  H9  ARG d   1      32.702 -14.167   0.647  0.00  0.00     0.087 H 
BRANCH  25  27
ATOM     27  N   ARG d   1      34.281 -13.940  -0.711  0.00  0.00    -0.346 N 
ATOM     28  C   SER d   1      34.734 -15.169  -0.470  0.00  0.00     0.251 C 
ATOM     29  O   SER d   1      34.192 -15.944   0.321  0.00  0.00    -0.271 OA
ATOM     30  H8  ARG d   1      34.791 -13.348  -1.336  0.00  0.00     0.163 HD
BRANCH  28  31
ATOM     31  CA  SER d   1      36.000 -15.587  -1.215  0.00  0.00     0.195 C 
ATOM     32  H4  SER d   1      35.799 -16.529  -1.746  0.00  0.00     0.102 H 
BRANCH  31  33
ATOM     33  N   SER d   1      36.394 -14.556  -2.217  0.00  0.00    -0.064 N 
ATOM     34  H1  SER d   1      37.230 -14.854  -2.695  0.00  0.00     0.275 HD
ATOM     35  H2  SER d   1      36.569 -13.681  -1.748  0.00  0.00     0.275 HD
ATOM     36  H3  SER d   1      35.650 -14.436  -2.886  0.00  0.00     0.275 HD
ENDBRANCH  31  33
BRANCH  31  37
ATOM     37  CB  SER d   1      37.136 -15.820  -0.215  0.00  0.00     0.051 C 
ATOM     38  H5  SER d   1      37.301 -14.898   0.361  0.00  0.00     0.077 H 
ATOM     39  H6  SER d   1      38.052 -16.077  -0.767  0.00  0.00     0.077 H 
BRANCH  37  40
ATOM     40  OG  SER d   1      36.825 -16.876   0.682  0.00  0.00    -0.398 OA
ATOM     41  H7  SER d   1      36.036 -16.658   1.165  0.00  0.00     0.209 HD
ENDBRANCH  37  40
ENDBRANCH  31  37
ENDBRANCH  28  31
ENDBRANCH  25  27
BRANCH  25  42
ATOM     42  CB  ARG d   1      33.308 -12.103   0.624  0.00  0.00    -0.036 C 
ATOM     43  H10 ARG d   1      32.333 -11.681   0.908  0.00  0.00     0.036 H 
ATOM     44  H11 ARG d   1      33.809 -11.425  -0.083  0.00  0.00     0.036 H 
BRANCH  42  45
ATOM     45  CG  ARG d   1      34.163 -12.195   1.874  0.00  0.00    -0.048 C 
ATOM     46  H12 ARG d   1      35.223 -12.248   1.586  0.00  0.00     0.035 H 
ATOM     47  H13 ARG d   1      33.890 -13.101   2.435  0.00  0.00     0.035 H 
BRANCH  45  48
ATOM     48  CD  ARG d   1      33.942 -10.974   2.753  0.00  0.00     0.009 C 
ATOM     49  H14 ARG d   1      34.805 -10.854   3.424  0.00  0.00     0.064 H 
ATOM     50  H15 ARG d   1      33.031 -11.123   3.351  0.00  0.00     0.064 H 
BRANCH  48  51
ATOM     51  NE  ARG d   1      33.792  -9.763   1.949  0.00  0.00    -0.227 N 
ATOM     52  CZ  ARG d   1      33.387  -8.586   2.422  0.00  0.00     0.665 C 
ATOM     53  NH1 ARG d   1      33.087  -8.448   3.710  0.00  0.00    -0.235 N 
ATOM     54  NH2 ARG d   1      33.268  -7.547   1.601  0.00  0.00    -0.235 N 
ATOM     55  H17 ARG d   1      32.774  -7.535   4.071  0.00  0.00     0.174 HD
ATOM     56  H18 ARG d   1      33.167  -9.254   4.347  0.00  0.00     0.174 HD
ATOM     57  H19 ARG d   1      33.499  -7.650   0.603  0.00  0.00     0.174 HD
ATOM     58  H20 ARG d   1      32.944  -6.639   1.963  0.00  0.00     0.174 HD
ATOM     59  H16 ARG d   1      34.015  -9.824   0.945  0.00  0.00     0.177 HD
ENDBRANCH  48  51
ENDBRANCH  45  48
ENDBRANCH  42  45
ENDBRANCH  25  42
ENDBRANCH  22  25
ENDBRANCH  19  21
BRANCH  19  60
ATOM     60  CB  VAL d   1      29.433 -14.679  -2.546  0.00  0.00    -0.033 C 
ATOM     61  H23 VAL d   1      28.927 -15.392  -1.878  0.00  0.00     0.042 H 
BRANCH  60  62
ATOM     62  CG1 VAL d   1      28.558 -14.435  -3.751  0.00  0.00    -0.071 C 
ATOM     63  H24 VAL d   1      28.404 -15.381  -4.290  0.00  0.00     0.028 H 
ATOM     64  H25 VAL d   1      29.046 -13.708  -4.417  0.00  0.00     0.028 H 
ATOM     65  H26 VAL d   1      27.586 -14.038  -3.424  0.00  0.00     0.028 H 
ENDBRANCH  60  62
BRANCH  60  66
ATOM     66  CG2 VAL d   1      30.762 -15.276  -2.977  0.00  0.00    -0.071 C 
ATOM     67  H27 VAL d   1      31.391 -15.449  -2.091  0.00  0.00     0.028 H 
ATOM     68  H28 VAL d   1      31.273 -14.580  -3.659  0.00  0.00     0.028 H 
ATOM     69  H29 VAL d   1      30.585 -16.231  -3.493  0.00  0.00     0.028 H 
ENDBRANCH  60  66
ENDBRANCH  19  60
ENDBRANCH  16  19
ENDBRANCH  13  15
BRANCH  13  70
ATOM     70  CB  THR d   1      25.244 -11.376  -2.582  0.00  0.00     0.060 C 
ATOM     71  H32 THR d   1      24.220 -11.213  -2.214  0.00  0.00     0.086 H 
BRANCH  70  72
ATOM     72  OG1 THR d   1      25.196 -12.194  -3.758  0.00  0.00    -0.393 OA
ATOM     73  H33 THR d   1      26.079 -12.348  -4.072  0.00  0.00     0.210 HD
ENDBRANCH  70  72
BRANCH  70  74
ATOM     74  CG2 THR d   1      25.861 -10.039  -2.919  0.00  0.00    -0.050 C 
ATOM     75  H34 THR d   1      25.264  -9.546  -3.700  0.00  0.00     0.031 H 
ATOM     76  H35 THR d   1      26.888 -10.190  -3.283  0.00  0.00     0.031 H 
ATOM     77  H36 THR d   1      25.880  -9.407  -2.019  0.00  0.00     0.031 H 
ENDBRANCH  70  74
ENDBRANCH  13  70
ENDBRANCH  10  13
ENDBRANCH   7   9
BRANCH   7  78
ATOM     78  CB  TRP d   1      22.352 -14.217   0.885  0.00  0.00    -0.012 C 
ATOM     79  H39 TRP d   1      22.891 -13.839   1.766  0.00  0.00     0.044 H 
ATOM     80  H40 TRP d   1      21.883 -15.182   1.128  0.00  0.00     0.044 H 
BRANCH  78  81
ATOM     81  CG  TRP d   1      21.246 -13.239   0.574  0.00  0.00    -0.028 A 
ATOM     82  CD1 TRP d   1      21.069 -12.003   1.127  0.00  0.00    -0.015 A 
ATOM     83  NE1 TRP d   1      19.920 -11.428   0.651  0.00  0.00    -0.365 N 
ATOM     84  H41 TRP d   1      21.745 -11.540   1.844  0.00  0.00     0.112 H 
ATOM     85  CE2 TRP d   1      19.327 -12.290  -0.232  0.00  0.00     0.042 A 
ATOM     86  H42 TRP d   1      19.561 -10.499   0.914  0.00  0.00     0.165 HD
ATOM     87  CD2 TRP d   1      20.137 -13.443  -0.307  0.00  0.00    -0.002 A 
ATOM     88  CZ2 TRP d   1      18.151 -12.153  -0.972  0.00  0.00    -0.056 A 
ATOM     89  CE3 TRP d   1      19.748 -14.488  -1.154  0.00  0.00    -0.070 A 
ATOM     90  CZ3 TRP d   1      18.583 -14.352  -1.890  0.00  0.00    -0.082 A 
ATOM     91  H43 TRP d   1      20.348 -15.387  -1.232  0.00  0.00     0.084 H 
ATOM     92  CH2 TRP d   1      17.798 -13.192  -1.795  0.00  0.00    -0.081 A 
ATOM     93  H45 TRP d   1      18.272 -15.154  -2.550  0.00  0.00     0.083 H 
ATOM     94  H46 TRP d   1      16.892 -13.116  -2.385  0.00  0.00     0.083 H 
ATOM     95  H44 TRP d   1      17.541 -11.260  -0.899  0.00  0.00     0.086 H 
ENDBRANCH  78  81
ENDBRANCH   7  78
ENDBRANCH   4   7
ENDBRANCH   1   3
BRANCH   1  96
ATOM     96  C   TYR d   1      22.792 -15.550  -4.461  0.00  0.00     0.241 C 
ATOM     97  O   TYR d   1      22.382 -16.625  -4.879  0.00  0.00    -0.271 OA
ATOM     98  N   ASP d   1      24.038 -15.128  -4.665  0.00  0.00    -0.345 N 
ATOM     99  H56 ASP d   1      24.325 -14.238  -4.309  0.00  0.00     0.163 HD
BRANCH  98 100
ATOM    100  CA  ASP d   1      24.991 -15.955  -5.405  0.00  0.00     0.098 C 
ATOM    101  H57 ASP d   1      24.531 -16.237  -6.364  0.00  0.00     0.088 H 
BRANCH 100 102
ATOM    102  C   ASP d   1      25.312 -17.227  -4.629  0.00  0.00     0.241 C 
ATOM    103  O   ASP d   1      25.635 -18.254  -5.214  0.00  0.00    -0.271 OA
ATOM    104  N   PHE d   1      25.214 -17.145  -3.307  0.00  0.00    -0.346 N 
ATOM    105  H60 PHE d   1      24.959 -16.269  -2.898  0.00  0.00     0.163 HD
BRANCH 104 106
ATOM    106  CA  PHE d   1      25.463 -18.282  -2.429  0.00  0.00     0.093 C 
ATOM    107  H61 PHE d   1      26.469 -18.675  -2.637  0.00  0.00     0.088 H 
BRANCH 106 108
ATOM    108  C   PHE d   1      24.444 -19.397  -2.662  0.00  0.00     0.241 C 
ATOM    109  O   PHE d   1      24.793 -20.575  -2.647  0.00  0.00    -0.271 OA
ATOM    110  N   LEU d   1      23.185 -19.018  -2.867  0.00  0.00    -0.346 N 
ATOM    111  H69 LEU d   1      22.965 -18.043  -2.856  0.00  0.00     0.163 HD
BRANCH 110 112
ATOM    112  CA  LEU d   1      22.114 -19.983  -3.108  0.00  0.00     0.089 C 
ATOM    113  H70 LEU d   1      22.279 -20.860  -2.465  0.00  0.00     0.087 H 
BRANCH 112 114
ATOM    114  C   LEU d   1      22.110 -20.433  -4.572  0.00  0.00     0.241 C 
ATOM    115  O   LEU d   1      21.782 -21.576  -4.882  0.00  0.00    -0.271 OA
ATOM    116  N   MET d   1      22.477 -19.521  -5.465  0.00  0.00    -0.346 N 
ATOM    117  H80 MET d   1      22.738 -18.611  -5.143  0.00  0.00     0.163 HD
BRANCH 116 118
ATOM    118  CA  MET d   1      22.514 -19.794  -6.897  0.00  0.00     0.090 C 
ATOM    119  H81 MET d   1      21.569 -20.280  -7.181  0.00  0.00     0.087 H 
BRANCH 118 120
ATOM    120  C   MET d   1      23.665 -20.722  -7.279  0.00  0.00     0.241 C 
ATOM    121  O   MET d   1      23.859 -21.030  -8.455  0.00  0.00    -0.271 OA
ATOM    122  N   GLU d   1      24.427 -21.163  -6.283  0.00  0.00    -0.346 N 
ATOM    123  H89 GLU d   1      24.219 -20.877  -5.348  0.00  0.00     0.163 HD
BRANCH 122 124
ATOM    124  CA  GLU d   1      25.559 -22.053  -6.519  0.00  0.00     0.090 C 
ATOM    125  H90 GLU d   1      26.112 -21.663  -7.386  0.00  0.00     0.087 H 
BRANCH 124 126
ATOM    126  C   GLU d   1      25.147 -23.484  -6.835  0.00  0.00     0.241 C 
ATOM    127  O   GLU d   1      24.273 -24.061  -6.179  0.00  0.00    -0.271 OA
ATOM    128  N   ASP d   1      25.802 -24.058  -7.838  0.00  0.00    -0.344 N 
ATOM    129  H95 ASP d   1      26.513 -23.541  -8.314  0.00  0.00     0.163 HD
BRANCH 128 130
ATOM    130  CA  ASP d   1      25.513 -25.418  -8.262  0.00  0.00     0.105 C 
ATOM    131  H96 ASP d   1      24.571 -25.745  -7.798  0.00  0.00     0.090 H 
BRANCH 130 132
ATOM    132  C   ASP d   1      26.632 -26.360  -7.820  0.00  0.00     0.197 C 
ATOM    133  O   ASP d   1      26.481 -27.113  -6.855  0.00  0.00    -0.646 OA
ATOM    134  OXT ASP d   1      27.710 -26.387  -8.419  0.00  0.00    -0.646 OA
ENDBRANCH 130 132
BRANCH 130 135
ATOM    135  CB  ASP d   1      25.356 -25.454  -9.785  0.00  0.00     0.044 C 
ATOM    136  H97 ASP d   1      26.344 -25.300 -10.244  0.00  0.00     0.053 H 
ATOM    137  H98 ASP d   1      24.680 -24.641 -10.088  0.00  0.00     0.053 H 
BRANCH 135 138
ATOM    138  CG  ASP d   1      24.789 -26.767 -10.283  0.00  0.00     0.175 C 
ATOM    139  OD1 ASP d   1      25.405 -27.823 -10.018  0.00  0.00    -0.648 OA
ATOM    140  OD2 ASP d   1      23.727 -26.741 -10.943  0.00  0.00    -0.648 OA
ENDBRANCH 135 138
ENDBRANCH 130 135
ENDBRANCH 128 130
ENDBRANCH 124 126
BRANCH 124 141
ATOM    141  CB  GLU d   1      26.493 -22.056  -5.314  0.00  0.00    -0.029 C 
ATOM    142  H91 GLU d   1      27.267 -22.821  -5.475  0.00  0.00     0.037 H 
ATOM    143  H92 GLU d   1      25.907 -22.311  -4.419  0.00  0.00     0.037 H 
BRANCH 141 144
ATOM    144  CG  GLU d   1      27.171 -20.733  -5.079  0.00  0.00     0.018 C 
ATOM    145  H93 GLU d   1      26.425 -20.012  -4.714  0.00  0.00     0.049 H 
ATOM    146  H94 GLU d   1      27.591 -20.376  -6.031  0.00  0.00     0.049 H 
BRANCH 144 147
ATOM    147  CD  GLU d   1      28.281 -20.836  -4.068  0.00  0.00     0.172 C 
ATOM    148  OE1 GLU d   1      28.007 -21.266  -2.925  0.00  0.00    -0.648 OA
ATOM    149  OE2 GLU d   1      29.427 -20.489  -4.424  0.00  0.00    -0.648 OA
ENDBRANCH 144 147
ENDBRANCH 141 144
ENDBRANCH 124 141
ENDBRANCH 122 124
ENDBRANCH 118 120
BRANCH 118 150
ATOM    150  CB  MET d   1      22.645 -18.476  -7.667  0.00  0.00    -0.030 C 
ATOM    151  H82 MET d   1      23.613 -18.477  -8.189  0.00  0.00     0.037 H 
ATOM    152  H83 MET d   1      22.621 -17.649  -6.941  0.00  0.00     0.037 H 
BRANCH 150 153
ATOM    153  CG  MET d   1      21.554 -18.240  -8.691  0.00  0.00    -0.021 C 
ATOM    154  H84 MET d   1      21.669 -18.970  -9.505  0.00  0.00     0.049 H 
ATOM    155  H85 MET d   1      21.661 -17.222  -9.094  0.00  0.00     0.049 H 
BRANCH 153 156
ATOM    156  SD  MET d   1      19.904 -18.414  -7.985  0.00  0.00    -0.173 SA
BRANCH 156 157
ATOM    157  CE  MET d   1      19.331 -19.888  -8.818  0.00  0.00    -0.035 C 
ATOM    158  H86 MET d   1      18.311 -20.126  -8.482  0.00  0.00     0.041 H 
ATOM    159  H87 MET d   1      20.001 -20.727  -8.581  0.00  0.00     0.041 H 
ATOM    160  H88 MET d   1      19.328 -19.717  -9.905  0.00  0.00     0.041 H 
ENDBRANCH 156 157
ENDBRANCH 153 156
ENDBRANCH 150 153
ENDBRANCH 118 150
ENDBRANCH 116 118
ENDBRANCH 112 114
BRANCH 112 161
ATOM    161  CB  LEU d   1      20.750 -19.366  -2.773  0.00  0.00    -0.035 C 
ATOM    162  H71 LEU d   1      20.004 -20.165  -2.899  0.00  0.00     0.037 H 
ATOM    163  H72 LEU d   1      20.571 -18.576  -3.517  0.00  0.00     0.037 H 
BRANCH 161 164
ATOM    164  CG  LEU d   1      20.493 -18.739  -1.398  0.00  0.00    -0.059 C 
ATOM    165  H73 LEU d   1      21.234 -17.945  -1.223  0.00  0.00     0.038 H 
BRANCH 164 166
ATOM    166  CD1 LEU d   1      19.101 -18.132  -1.390  0.00  0.00    -0.073 C 
ATOM    167  H74 LEU d   1      18.904 -17.678  -0.407  0.00  0.00     0.028 H 
ATOM    168  H75 LEU d   1      18.357 -18.918  -1.586  0.00  0.00     0.028 H 
ATOM    169  H76 LEU d   1      19.033 -17.360  -2.171  0.00  0.00     0.028 H 
ENDBRANCH 164 166
BRANCH 164 170
ATOM    170  CD2 LEU d   1      20.619 -19.773  -0.296  0.00  0.00    -0.073 C 
ATOM    171  H77 LEU d   1      21.631 -20.205  -0.312  0.00  0.00     0.028 H 
ATOM    172  H78 LEU d   1      19.878 -20.570  -0.454  0.00  0.00     0.028 H 
ATOM    173  H79 LEU d   1      20.440 -19.294   0.678  0.00  0.00     0.028 H 
ENDBRANCH 164 170
ENDBRANCH 161 164
ENDBRANCH 112 161
ENDBRANCH 110 112
ENDBRANCH 106 108
BRANCH 106 174
ATOM    174  CB  PHE d   1      25.397 -17.827  -0.973  0.00  0.00    -0.014 C 
ATOM    175  H62 PHE d   1      24.519 -17.175  -0.854  0.00  0.00     0.043 H 
ATOM    176  H63 PHE d   1      26.310 -17.257  -0.747  0.00  0.00     0.043 H 
BRANCH 174 177
ATOM    177  CG  PHE d   1      25.287 -18.948   0.010  0.00  0.00    -0.056 A 
ATOM    178  CD1 PHE d   1      26.317 -19.868   0.156  0.00  0.00    -0.077 A 
ATOM    179  CE1 PHE d   1      26.219 -20.904   1.077  0.00  0.00    -0.082 A 
ATOM    180  H64 PHE d   1      27.207 -19.777  -0.455  0.00  0.00     0.084 H 
ATOM    181  CZ  PHE d   1      25.078 -21.022   1.859  0.00  0.00    -0.083 A 
ATOM    182  H66 PHE d   1      27.029 -21.616   1.184  0.00  0.00     0.083 H 
ATOM    183  CE2 PHE d   1      24.045 -20.107   1.716  0.00  0.00    -0.082 A 
ATOM    184  H68 PHE d   1      24.994 -21.827   2.580  0.00  0.00     0.083 H 
ATOM    185  CD2 PHE d   1      24.154 -19.080   0.797  0.00  0.00    -0.077 A 
ATOM    186  H67 PHE d   1      23.153 -20.197   2.325  0.00  0.00     0.083 H 
ATOM    187  H65 PHE d   1      23.343 -18.369   0.691  0.00  0.00     0.084 H 
ENDBRANCH 174 177
ENDBRANCH 106 174
ENDBRANCH 104 106
ENDBRANCH 100 102
BRANCH 100 188
ATOM    188  CB  ASP d   1      26.282 -15.183  -5.697  0.00  0.00     0.043 C 
ATOM    189  H58 ASP d   1      27.007 -15.872  -6.155  0.00  0.00     0.052 H 
ATOM    190  H59 ASP d   1      26.687 -14.804  -4.747  0.00  0.00     0.052 H 
BRANCH 188 191
ATOM    191  CG  ASP d   1      26.069 -14.007  -6.637  0.00  0.00     0.175 C 
ATOM    192  OD1 ASP d   1      25.471 -14.200  -7.723  0.00  0.00    -0.648 OA
ATOM    193  OD2 ASP d   1      26.513 -12.890  -6.289  0.00  0.00    -0.648 OA
ENDBRANCH 188 191
ENDBRANCH 100 188
ENDBRANCH  98 100
ENDBRANCH   1  96
BRANCH   1 194
ATOM    194  CB  TYR d   1      21.500 -13.451  -4.583  0.00  0.00    -0.014 C 
ATOM    195  H49 TYR d   1      22.404 -12.847  -4.753  0.00  0.00     0.043 H 
ATOM    196  H50 TYR d   1      20.743 -12.841  -4.069  0.00  0.00     0.043 H 
BRANCH 194 197
ATOM    197  CG  TYR d   1      20.944 -13.883  -5.928  0.00  0.00    -0.056 A 
ATOM    198  CD1 TYR d   1      19.630 -14.333  -6.048  0.00  0.00    -0.074 A 
ATOM    199  CE1 TYR d   1      19.129 -14.780  -7.267  0.00  0.00    -0.051 A 
ATOM    200  H51 TYR d   1      18.987 -14.335  -5.176  0.00  0.00     0.084 H 
ATOM    201  CZ  TYR d   1      19.946 -14.780  -8.387  0.00  0.00     0.065 A 
ATOM    202  H53 TYR d   1      18.105 -15.127  -7.340  0.00  0.00     0.087 H 
ATOM    203  CE2 TYR d   1      21.258 -14.334  -8.294  0.00  0.00    -0.051 A 
ATOM    204  CD2 TYR d   1      21.748 -13.889  -7.070  0.00  0.00    -0.074 A 
ATOM    205  H54 TYR d   1      21.897 -14.333  -9.170  0.00  0.00     0.087 H 
ATOM    206  H52 TYR d   1      22.772 -13.541  -7.002  0.00  0.00     0.084 H 
BRANCH 201 207
ATOM    207  OH  TYR d   1      19.452 -15.241  -9.592  0.00  0.00    -0.361 OA
ATOM    208  H55 TYR d   1      18.546 -15.505  -9.481  0.00  0.00     0.217 HD
ENDBRANCH 201 207
ENDBRANCH 194 197
ENDBRANCH   1 194
TORSDOF 58
