REMARK  20 active torsions:
REMARK  status: ('A' for Active; 'I' for Inactive)
REMARK    1  A    between atoms: C_1  and  CA_3 
REMARK       I    between atoms: C_1  and  N_11 
REMARK    2  A    between atoms: CA_3  and  CB_4 
REMARK    3  A    between atoms: CB_4  and  CG_5 
REMARK    4  A    between atoms: N_11  and  CA_12 
REMARK    5  A    between atoms: CA_12  and  SI_13 
REMARK    6  A    between atoms: SI_13  and  O1_14 
REMARK    7  A    between atoms: SI_13  and  O2_15 
REMARK    8  A    between atoms: SI_13  and  CH2_16 
REMARK    9  A    between atoms: CH2_16  and  CE_17 
REMARK   10  A    between atoms: CE_17  and  C_18 
REMARK   11  A    between atoms: CE_17  and  CB_20 
REMARK       I    between atoms: C_18  and  N_24 
REMARK   12  A    between atoms: CB_20  and  CG_21 
REMARK   13  A    between atoms: CG_21  and  CD1_22 
REMARK   14  A    between atoms: CG_21  and  CD2_23 
REMARK   15  A    between atoms: N_24  and  CA_25 
REMARK   16  A    between atoms: CA_25  and  C_26 
REMARK   17  A    between atoms: CA_25  and  CB_28 
REMARK   18  A    between atoms: CB_28  and  CG_29 
REMARK   19  A    between atoms: CG_29  and  CD1_30 
REMARK   20  A    between atoms: CG_29  and  CD2_31 
ROOT
ATOM      1  H15 3PL d   1      36.605  42.961  -3.721  0.00  0.00     0.054 H 
ATOM      2  CE  AMM d   1      36.424  41.917  -3.425  0.00  0.00     0.024 C 
ENDROOT
BRANCH   2   3
ATOM      3  CH2 AMM d   1      35.147  41.507  -4.198  0.00  0.00    -0.053 C 
ATOM      4  H13 3PL d   1      35.004  40.426  -4.054  0.00  0.00     0.034 H 
ATOM      5  H14 3PL d   1      34.300  42.051  -3.754  0.00  0.00     0.034 H 
BRANCH   3   6
ATOM      6 SI   AMM d   1      35.132  41.837  -6.021  0.00  0.00     0.000 Si
BRANCH   6   7
ATOM      7  CA  AMM d   1      34.969  40.303  -7.027  0.00  0.00     0.010 C 
ATOM      8  H11 3PL d   1      34.872  40.593  -8.084  0.00  0.00     0.066 H 
ATOM      9  H12 3PL d   1      35.883  39.705  -6.894  0.00  0.00     0.066 H 
BRANCH   7  10
ATOM     10  N   AMM d   1      33.831  39.476  -6.677  0.00  0.00    -0.360 N 
ATOM     11  C   3PL d   1      33.574  38.339  -7.314  0.00  0.00     0.217 C 
ATOM     12  O   3PL d   1      34.278  37.918  -8.226  0.00  0.00    -0.274 OA
ATOM     13  H10 3PL d   1      33.224  39.769  -5.938  0.00  0.00     0.162 HD
BRANCH  11  14
ATOM     14  CA  3PL d   1      32.332  37.579  -6.851  0.00  0.00     0.013 C 
ATOM     15  H1  3PL d   1      31.551  38.312  -6.599  0.00  0.00     0.047 H 
ATOM     16  H2  3PL d   1      32.595  36.999  -5.954  0.00  0.00     0.047 H 
BRANCH  14  17
ATOM     17  CB  3PL d   1      31.767  36.613  -7.903  0.00  0.00    -0.033 C 
ATOM     18  H3  3PL d   1      30.923  36.068  -7.456  0.00  0.00     0.040 H 
ATOM     19  H4  3PL d   1      32.558  35.901  -8.180  0.00  0.00     0.040 H 
BRANCH  17  20
ATOM     20  CG  3PL d   1      31.279  37.299  -9.163  0.00  0.00    -0.058 A 
ATOM     21  CD1 3PL d   1      29.978  37.727  -9.274  0.00  0.00    -0.077 A 
ATOM     22  CE1 3PL d   1      29.540  38.358 -10.450  0.00  0.00    -0.082 A 
ATOM     23  H5  3PL d   1      29.288  37.577  -8.452  0.00  0.00     0.084 H 
ATOM     24  CZ  3PL d   1      30.394  38.566 -11.481  0.00  0.00    -0.083 A 
ATOM     25  H6  3PL d   1      28.509  38.682 -10.534  0.00  0.00     0.083 H 
ATOM     26  CE2 3PL d   1      31.677  38.140 -11.387  0.00  0.00    -0.082 A 
ATOM     27  H7  3PL d   1      30.052  39.071 -12.377  0.00  0.00     0.083 H 
ATOM     28  CD2 3PL d   1      32.133  37.503 -10.223  0.00  0.00    -0.077 A 
ATOM     29  H8  3PL d   1      32.356  38.293 -12.218  0.00  0.00     0.083 H 
ATOM     30  H9  3PL d   1      33.163  37.170 -10.158  0.00  0.00     0.084 H 
ENDBRANCH  17  20
ENDBRANCH  14  17
ENDBRANCH  11  14
ENDBRANCH   7  10
ENDBRANCH   6   7
BRANCH   6  31
ATOM     31  O1  AMM d   1      36.559  42.511  -6.457  0.00  0.00    -0.253 OA
ATOM     32  H36 3PL d   1      37.266  41.907  -6.262  0.00  0.00     0.253 HD
ENDBRANCH   6  31
BRANCH   6  33
ATOM     33  O2  AMM d   1      33.902  42.865  -6.351  0.00  0.00    -0.253 OA
ATOM     34  H37 3PL d   1      34.027  43.673  -5.867  0.00  0.00     0.253 HD
ENDBRANCH   6  33
ENDBRANCH   3   6
ENDBRANCH   2   3
BRANCH   2  35
ATOM     35  C   AMM d   1      37.730  41.195  -3.745  0.00  0.00     0.222 C 
ATOM     36  O   AMM d   1      38.814  41.794  -3.777  0.00  0.00    -0.273 OA
ATOM     37  N   LEU d   1      37.619  39.889  -3.952  0.00  0.00    -0.346 N 
ATOM     38  H25 3PL d   1      36.717  39.462  -3.898  0.00  0.00     0.163 HD
BRANCH  37  39
ATOM     39  CA  LEU d   1      38.776  39.065  -4.255  0.00  0.00     0.096 C 
ATOM     40  H26 3PL d   1      39.516  39.719  -4.739  0.00  0.00     0.089 H 
BRANCH  39  41
ATOM     41  C   LEU d   1      38.439  37.967  -5.242  0.00  0.00     0.196 C 
ATOM     42  O   LEU d   1      37.224  37.770  -5.512  0.00  0.00    -0.646 OA
ATOM     43  OXT LEU d   1      39.395  37.357  -5.770  0.00  0.00    -0.646 OA
ENDBRANCH  39  41
BRANCH  39  44
ATOM     44  CB  LEU d   1      39.443  38.492  -2.985  0.00  0.00    -0.034 C 
ATOM     45  H27 3PL d   1      39.672  39.327  -2.306  0.00  0.00     0.037 H 
ATOM     46  H28 3PL d   1      40.378  37.992  -3.279  0.00  0.00     0.037 H 
BRANCH  44  47
ATOM     47  CG  LEU d   1      38.576  37.489  -2.238  0.00  0.00    -0.059 C 
ATOM     48  H29 3PL d   1      38.074  36.830  -2.962  0.00  0.00     0.038 H 
BRANCH  47  49
ATOM     49  CD1 LEU d   1      37.535  38.224  -1.417  0.00  0.00    -0.073 C 
ATOM     50  H30 3PL d   1      36.911  37.495  -0.879  0.00  0.00     0.028 H 
ATOM     51  H31 3PL d   1      36.902  38.828  -2.083  0.00  0.00     0.028 H 
ATOM     52  H32 3PL d   1      38.037  38.882  -0.693  0.00  0.00     0.028 H 
ENDBRANCH  47  49
BRANCH  47  53
ATOM     53  CD2 LEU d   1      39.443  36.657  -1.311  0.00  0.00    -0.073 C 
ATOM     54  H33 3PL d   1      40.201  36.121  -1.901  0.00  0.00     0.028 H 
ATOM     55  H34 3PL d   1      38.815  35.931  -0.775  0.00  0.00     0.028 H 
ATOM     56  H35 3PL d   1      39.942  37.316  -0.586  0.00  0.00     0.028 H 
ENDBRANCH  47  53
ENDBRANCH  44  47
ENDBRANCH  39  44
ENDBRANCH  37  39
ENDBRANCH   2  35
BRANCH   2  57
ATOM     57  CB  AMM d   1      36.168  41.943  -1.926  0.00  0.00    -0.051 C 
ATOM     58  H16 3PL d   1      35.971  40.916  -1.585  0.00  0.00     0.034 H 
ATOM     59  H17 3PL d   1      35.285  42.569  -1.731  0.00  0.00     0.034 H 
BRANCH  57  60
ATOM     60  CG  AMM d   1      37.345  42.501  -1.134  0.00  0.00    -0.060 C 
ATOM     61  H18 3PL d   1      38.278  42.056  -1.510  0.00  0.00     0.038 H 
BRANCH  60  62
ATOM     62  CD1 AMM d   1      37.416  44.023  -1.298  0.00  0.00    -0.073 C 
ATOM     63  H19 3PL d   1      38.268  44.414  -0.723  0.00  0.00     0.028 H 
ATOM     64  H20 3PL d   1      36.484  44.476  -0.927  0.00  0.00     0.028 H 
ATOM     65  H21 3PL d   1      37.547  44.272  -2.362  0.00  0.00     0.028 H 
ENDBRANCH  60  62
BRANCH  60  66
ATOM     66  CD2 AMM d   1      37.176  42.143   0.335  0.00  0.00    -0.073 C 
ATOM     67  H22 3PL d   1      37.126  41.049   0.443  0.00  0.00     0.028 H 
ATOM     68  H23 3PL d   1      36.247  42.592   0.717  0.00  0.00     0.028 H 
ATOM     69  H24 3PL d   1      38.032  42.529   0.907  0.00  0.00     0.028 H 
ENDBRANCH  60  66
ENDBRANCH  57  60
ENDBRANCH   2  57
TORSDOF 20
