REMARK  7 active torsions:
REMARK  status: ('A' for Active; 'I' for Inactive)
REMARK    1  A    between atoms: C3_2  and  N2_3 
REMARK    2  A    between atoms: C3_2  and  C4_4 
REMARK    3  A    between atoms: C7_7  and  C10_10 
REMARK    4  A    between atoms: C17_17  and  C18_32 
REMARK    5  A    between atoms: N19_18  and  C23_22 
REMARK    6  A    between atoms: C23_22  and  C24_23 
REMARK    7  A    between atoms: C18_32  and  C42_33 
ROOT
ATOM      1  C10 UIP d   1      -1.297   4.466  21.528  0.00  0.00     0.141 C 
ATOM      2  N11 UIP d   1      -2.150   3.238  21.431  0.00  0.00    -0.057 N 
ATOM      3  C12 UIP d   1      -2.334   2.721  20.038  0.00  0.00     0.085 C 
ATOM      4  C13 UIP d   1      -1.457   1.449  19.932  0.00  0.00    -0.040 C 
ATOM      5  C14 UIP d   1      -0.498   1.518  21.094  0.00  0.00    -0.036 C 
ATOM      6  C15 UIP d   1      -1.353   2.193  22.192  0.00  0.00     0.111 C 
ATOM      7  C16 UIP d   1      -0.377   2.947  23.142  0.00  0.00     0.007 C 
ATOM      8  C17 UIP d   1      -0.713   2.706  24.649  0.00  0.00     0.021 C 
ATOM      9  N19 UIP d   1      -1.693   3.727  24.945  0.00  0.00    -0.342 N 
ATOM     10  C20 UIP d   1      -1.672   4.781  24.069  0.00  0.00     0.227 C 
ATOM     11  O21 UIP d   1      -2.555   5.686  24.029  0.00  0.00    -0.273 OA
ATOM     12  C22 UIP d   1      -0.688   4.448  22.932  0.00  0.00     0.062 C 
ATOM     13  H9  UIP d   1      -0.450   4.326  20.840  0.00  0.00     0.093 H 
ATOM     14  H10 UIP d   1      -3.051   3.403  21.852  0.00  0.00     0.281 HD
ATOM     15  H11 UIP d   1      -2.006   3.473  19.305  0.00  0.00     0.076 H 
ATOM     16  H12 UIP d   1      -3.390   2.472  19.860  0.00  0.00     0.076 H 
ATOM     17  H13 UIP d   1      -0.906   1.441  18.980  0.00  0.00     0.035 H 
ATOM     18  H14 UIP d   1      -2.081   0.546  20.003  0.00  0.00     0.035 H 
ATOM     19  H15 UIP d   1       0.384   2.127  20.846  0.00  0.00     0.036 H 
ATOM     20  H16 UIP d   1      -0.175   0.513  21.403  0.00  0.00     0.036 H 
ATOM     21  H17 UIP d   1      -1.992   1.481  22.735  0.00  0.00     0.085 H 
ATOM     22  H18 UIP d   1       0.669   2.692  22.919  0.00  0.00     0.047 H 
ATOM     23  H19 UIP d   1      -1.180   1.716  24.759  0.00  0.00     0.073 H 
ATOM     24  H20 UIP d   1       0.203   5.091  22.985  0.00  0.00     0.059 H 
ENDROOT
BRANCH   1  25
ATOM     25  C7  UIP d   1      -1.990   5.693  21.014  0.00  0.00    -0.027 A 
ATOM     26  C8  UIP d   1      -3.371   5.871  21.098  0.00  0.00    -0.074 A 
ATOM     27  C9  UIP d   1      -3.983   7.063  20.681  0.00  0.00    -0.069 A 
ATOM     28  H6  UIP d   1      -3.985   5.071  21.494  0.00  0.00     0.084 H 
ATOM     29  C4  UIP d   1      -3.217   8.087  20.119  0.00  0.00     0.007 A 
ATOM     30  H5  UIP d   1      -5.053   7.189  20.795  0.00  0.00     0.085 H 
ATOM     31  C5  UIP d   1      -1.826   7.897  20.030  0.00  0.00    -0.069 A 
ATOM     32  C6  UIP d   1      -1.215   6.727  20.449  0.00  0.00    -0.074 A 
ATOM     33  H8  UIP d   1      -1.213   8.692  19.620  0.00  0.00     0.085 H 
ATOM     34  H7  UIP d   1      -0.143   6.606  20.343  0.00  0.00     0.084 H 
BRANCH  29  35
ATOM     35  C3  UIP d   1      -3.802   9.308  19.666  0.00  0.00     0.102 C 
ATOM     36  N1  UIP d   1      -5.116   9.530  19.720  0.00  0.00    -0.385 N 
ATOM     37  H1  UIP d   1      -5.745   8.808  20.100  0.00  0.00     0.157 HD
ATOM     38  H2  UIP d   1      -5.502  10.423  19.382  0.00  0.00     0.157 HD
BRANCH  35  39
ATOM     39  N2  UIP d   1      -3.046  10.326  19.145  0.00  0.00    -0.385 N 
ATOM     40  H3  UIP d   1      -2.024  10.223  19.073  0.00  0.00     0.157 HD
ATOM     41  H4  UIP d   1      -3.500  11.193  18.826  0.00  0.00     0.157 HD
ENDBRANCH  35  39
ENDBRANCH  29  35
ENDBRANCH   1  25
BRANCH   8  42
ATOM     42  C18 UIP d   1       0.520   2.732  25.585  0.00  0.00    -0.049 C 
ATOM     43  H28 UIP d   1       0.173   2.920  26.612  0.00  0.00     0.035 H 
ATOM     44  H29 UIP d   1       1.182   3.550  25.266  0.00  0.00     0.035 H 
BRANCH  42  45
ATOM     45  C42 UIP d   1       1.318   1.436  25.576  0.00  0.00    -0.075 C 
ATOM     46  H30 UIP d   1       2.174   1.528  26.261  0.00  0.00     0.027 H 
ATOM     47  H31 UIP d   1       1.683   1.237  24.558  0.00  0.00     0.027 H 
ATOM     48  H32 UIP d   1       0.674   0.607  25.904  0.00  0.00     0.027 H 
ENDBRANCH  42  45
ENDBRANCH   8  42
BRANCH   9  49
ATOM     49  C23 UIP d   1      -2.635   3.860  26.100  0.00  0.00     0.022 C 
ATOM     50  H21 UIP d   1      -2.982   2.853  26.374  0.00  0.00     0.071 H 
ATOM     51  H22 UIP d   1      -3.492   4.466  25.772  0.00  0.00     0.071 H 
BRANCH  49  52
ATOM     52  C24 UIP d   1      -2.047   4.511  27.346  0.00  0.00    -0.037 A 
ATOM     53  C32 UIP d   1      -1.170   3.783  28.216  0.00  0.00    -0.072 A 
ATOM     54  C31 UIP d   1      -0.673   4.337  29.416  0.00  0.00    -0.047 A 
ATOM     55  H23 UIP d   1      -0.879   2.775  27.944  0.00  0.00     0.084 H 
ATOM     56  C30 UIP d   1      -1.083   5.650  29.700  0.00  0.00     0.105 A 
ATOM     57  H24 UIP d   1      -0.016   3.783  30.077  0.00  0.00     0.087 H 
ATOM     58  O29 UIP d   1      -0.744   6.424  30.787  0.00  0.00    -0.323 OA
ATOM     59  C26 UIP d   1      -1.943   6.381  28.858  0.00  0.00     0.105 A 
ATOM     60  C28 UIP d   1      -1.444   7.697  30.594  0.00  0.00     0.115 A 
ATOM     61  O27 UIP d   1      -2.209   7.660  29.362  0.00  0.00    -0.323 OA
ATOM     62  H25 UIP d   1      -0.708   8.513  30.542  0.00  0.00     0.118 H 
ATOM     63  H26 UIP d   1      -2.125   7.871  31.441  0.00  0.00     0.118 H 
ATOM     64  C25 UIP d   1      -2.442   5.823  27.664  0.00  0.00    -0.040 A 
ATOM     65  H27 UIP d   1      -3.105   6.384  27.015  0.00  0.00     0.088 H 
ENDBRANCH  49  52
ENDBRANCH   9  49
TORSDOF 7
