REMARK  4 active torsions:
REMARK  status: ('A' for Active; 'I' for Inactive)
REMARK    1  A    between atoms: N1_1  and  C3_2 
REMARK    2  A    between atoms: C3_2  and  C4_3 
REMARK    3  A    between atoms: C7_6  and  C10_7 
REMARK    4  A    between atoms: N19_15  and  C23_19 
ROOT
ATOM      1  C10 UIR d   1      43.765  22.444  50.399  0.00  0.00     0.141 C 
ATOM      2  N11 UIR d   1      44.735  23.584  50.197  0.00  0.00    -0.057 N 
ATOM      3  C12 UIR d   1      45.827  23.235  49.234  0.00  0.00     0.085 C 
ATOM      4  C13 UIR d   1      45.304  23.612  47.834  0.00  0.00    -0.040 C 
ATOM      5  C14 UIR d   1      43.987  24.306  48.008  0.00  0.00    -0.036 C 
ATOM      6  C15 UIR d   1      43.867  24.620  49.510  0.00  0.00     0.110 C 
ATOM      7  C16 UIR d   1      42.391  24.343  49.937  0.00  0.00     0.003 C 
ATOM      8  C17 UIR d   1      41.825  25.468  50.864  0.00  0.00     0.003 C 
ATOM      9  N19 UIR d   1      42.356  25.129  52.174  0.00  0.00    -0.356 N 
ATOM     10  C20 UIR d   1      42.681  23.797  52.279  0.00  0.00     0.226 C 
ATOM     11  O21 UIR d   1      43.149  23.269  53.322  0.00  0.00    -0.273 OA
ATOM     12  C22 UIR d   1      42.479  23.134  50.900  0.00  0.00     0.062 C 
ATOM     13  H5  UIR d   1      43.552  21.959  49.435  0.00  0.00     0.093 H 
ATOM     14  H6  UIR d   1      45.117  23.909  51.071  0.00  0.00     0.281 HD
ATOM     15  H7  UIR d   1      46.047  22.158  49.281  0.00  0.00     0.076 H 
ATOM     16  H8  UIR d   1      46.738  23.806  49.467  0.00  0.00     0.076 H 
ATOM     17  H9  UIR d   1      45.171  22.704  47.227  0.00  0.00     0.035 H 
ATOM     18  H10 UIR d   1      46.018  24.284  47.336  0.00  0.00     0.035 H 
ATOM     19  H11 UIR d   1      43.164  23.650  47.688  0.00  0.00     0.036 H 
ATOM     20  H12 UIR d   1      43.964  25.236  47.420  0.00  0.00     0.036 H 
ATOM     21  H13 UIR d   1      44.175  25.649  49.747  0.00  0.00     0.085 H 
ATOM     22  H14 UIR d   1      41.745  24.164  49.065  0.00  0.00     0.047 H 
ATOM     23  H15 UIR d   1      40.725  25.456  50.871  0.00  0.00     0.065 H 
ATOM     24  H16 UIR d   1      42.178  26.458  50.541  0.00  0.00     0.065 H 
ATOM     25  H17 UIR d   1      41.604  22.468  50.880  0.00  0.00     0.059 H 
ENDROOT
BRANCH   1  26
ATOM     26  C7  UIR d   1      44.360  21.399  51.307  0.00  0.00    -0.027 A 
ATOM     27  C8  UIR d   1      45.267  21.753  52.308  0.00  0.00    -0.074 A 
ATOM     28  C9  UIR d   1      45.800  20.775  53.163  0.00  0.00    -0.069 A 
ATOM     29  H4  UIR d   1      45.562  22.790  52.426  0.00  0.00     0.084 H 
ATOM     30  C4  UIR d   1      45.414  19.445  53.008  0.00  0.00     0.007 A 
ATOM     31  H3  UIR d   1      46.506  21.052  53.937  0.00  0.00     0.085 H 
ATOM     32  C5  UIR d   1      44.507  19.090  51.983  0.00  0.00    -0.069 A 
ATOM     33  C6  UIR d   1      43.976  20.056  51.152  0.00  0.00    -0.074 A 
ATOM     34  H22 UIR d   1      44.227  18.052  51.849  0.00  0.00     0.085 H 
ATOM     35  H21 UIR d   1      43.265  19.779  50.382  0.00  0.00     0.084 H 
BRANCH  30  36
ATOM     36  C3  UIR d   1      45.917  18.389  53.816  0.00  0.00     0.102 C 
ATOM     37  N2  UIR d   1      45.485  17.124  53.591  0.00  0.00    -0.385 N 
ATOM     38  H23 UIR d   1      44.808  16.937  52.837  0.00  0.00     0.157 HD
ATOM     39  H24 UIR d   1      45.834  16.349  54.174  0.00  0.00     0.157 HD
BRANCH  36  40
ATOM     40  N1  UIR d   1      46.782  18.521  54.803  0.00  0.00    -0.385 N 
ATOM     41  H1  UIR d   1      47.088  17.693  55.333  0.00  0.00     0.157 HD
ATOM     42  H2  UIR d   1      47.151  19.452  55.043  0.00  0.00     0.157 HD
ENDBRANCH  36  40
ENDBRANCH  30  36
ENDBRANCH   1  26
BRANCH   9  43
ATOM     43  C23 UIR d   1      41.867  25.870  53.393  0.00  0.00    -0.016 C 
ATOM     44  H18 UIR d   1      42.376  25.481  54.287  0.00  0.00     0.056 H 
ATOM     45  H19 UIR d   1      40.781  25.727  53.498  0.00  0.00     0.056 H 
ATOM     46  H20 UIR d   1      42.087  26.942  53.283  0.00  0.00     0.056 H 
ENDBRANCH   9  43
TORSDOF 4
