REMARK  1 active torsions:
REMARK  status: ('A' for Active; 'I' for Inactive)
REMARK    1  A    between atoms: O1_1  and  C1_2 
ROOT
ATOM      1  C1  PCI d   1    -150.607   5.388 -10.223  0.00  0.00     0.112 A 
ATOM      2  C2  PCI d   1    -151.213   5.543  -8.918  0.00  0.00     0.092 A 
ATOM      3 CL1  PCI d   1    -150.772   4.660  -7.871  0.00  0.00    -0.079 Cl
ATOM      4  C3  PCI d   1    -152.248   6.598  -8.716  0.00  0.00     0.082 A 
ATOM      5 CL2  PCI d   1    -152.858   6.772  -7.424  0.00  0.00    -0.081 Cl
ATOM      6  C4  PCI d   1    -152.640   7.472  -9.879  0.00  0.00     0.081 A 
ATOM      7 CL3  PCI d   1    -153.631   8.494  -9.700  0.00  0.00    -0.081 Cl
ATOM      8  C5  PCI d   1    -151.999   7.282 -11.224  0.00  0.00     0.082 A 
ATOM      9 CL4  PCI d   1    -152.367   8.109 -12.350  0.00  0.00    -0.081 Cl
ATOM     10  C6  PCI d   1    -150.972   6.230 -11.382  0.00  0.00     0.092 A 
ATOM     11 CL5  PCI d   1    -150.314   5.997 -12.623  0.00  0.00    -0.079 Cl
ENDROOT
BRANCH   1  12
ATOM     12  O1  PCI d   1    -149.634   4.393 -10.370  0.00  0.00    -0.357 OA
ATOM     13  H1  PCI d   1    -149.316   4.392 -11.265  0.00  0.00     0.217 HD
ENDBRANCH   1  12
TORSDOF 1
