REMARK  8 active torsions:
REMARK  status: ('A' for Active; 'I' for Inactive)
REMARK    1  A    between atoms: C15_2  and  C14_3 
REMARK       I    between atoms: C15_2  and  N17_17 
REMARK    2  A    between atoms: C09_8  and  C08_9 
REMARK    3  A    between atoms: C08_9  and  N07_10 
REMARK    4  A    between atoms: NP2_15  and  C01_16 
REMARK    5  A    between atoms: N17_17  and  C18_18 
REMARK    6  A    between atoms: C23_22  and  N24_24 
REMARK    7  A    between atoms: N24_24  and  C25_25 
REMARK    8  A    between atoms: C30_29  and  C31_31 
ROOT
ATOM      1  O16 MPZ d   1      22.073  35.130  38.668  0.00  0.00    -0.267 OA
ATOM      2  C15 MPZ d   1      20.995  35.336  39.245  0.00  0.00     0.256 C 
ATOM      3  N17 MPZ d   1      20.428  34.548  40.196  0.00  0.00    -0.323 N 
ATOM      4  H20 MPZ d   1      19.514  34.815  40.500  0.00  0.00     0.169 HD
ENDROOT
BRANCH   2   5
ATOM      5  C14 MPZ d   1      20.224  36.578  38.910  0.00  0.00     0.032 A 
ATOM      6  C13 MPZ d   1      20.799  37.496  38.002  0.00  0.00    -0.067 A 
ATOM      7  C12 MPZ d   1      20.157  38.704  37.679  0.00  0.00    -0.074 A 
ATOM      8  H1  MPZ d   1      21.754  37.264  37.545  0.00  0.00     0.085 H 
ATOM      9  C09 MPZ d   1      18.920  39.055  38.264  0.00  0.00    -0.033 A 
ATOM     10  H2  MPZ d   1      20.620  39.379  36.968  0.00  0.00     0.084 H 
ATOM     11  C10 MPZ d   1      18.336  38.165  39.195  0.00  0.00    -0.074 A 
ATOM     12  C11 MPZ d   1      18.981  36.954  39.529  0.00  0.00    -0.067 A 
ATOM     13  H4  MPZ d   1      17.387  38.414  39.655  0.00  0.00     0.084 H 
ATOM     14  H3  MPZ d   1      18.532  36.296  40.264  0.00  0.00     0.085 H 
BRANCH   9  15
ATOM     15  C08 MPZ d   1      18.232  40.362  37.887  0.00  0.00     0.107 C 
ATOM     16  H5  MPZ d   1      18.716  41.193  38.422  0.00  0.00     0.083 H 
ATOM     17  H6  MPZ d   1      17.172  40.309  38.175  0.00  0.00     0.083 H 
BRANCH  15  18
ATOM     18  N07 MPZ d   1      18.329  40.598  36.435  0.00  0.00    -0.064 N 
ATOM     19  C06 MPZ d   1      17.855  39.445  35.628  0.00  0.00     0.106 C 
ATOM     20  C05 MPZ d   1      18.172  39.690  34.149  0.00  0.00     0.105 C 
ATOM     21  H8  MPZ d   1      16.768  39.330  35.756  0.00  0.00     0.078 H 
ATOM     22  H9  MPZ d   1      18.362  38.529  35.965  0.00  0.00     0.078 H 
ATOM     23  NP2 MPZ d   1      17.546  40.944  33.663  0.00  0.00    -0.072 N 
ATOM     24  H10 MPZ d   1      17.790  38.846  33.556  0.00  0.00     0.078 H 
ATOM     25  H11 MPZ d   1      19.262  39.762  34.024  0.00  0.00     0.078 H 
ATOM     26  C03 MPZ d   1      17.925  42.112  34.510  0.00  0.00     0.105 C 
ATOM     27  H16 MPZ d   1      16.547  40.834  33.737  0.00  0.00     0.279 HD
ATOM     28  C04 MPZ d   1      17.662  41.855  36.003  0.00  0.00     0.106 C 
ATOM     29  H14 MPZ d   1      18.996  42.319  34.369  0.00  0.00     0.078 H 
ATOM     30  H15 MPZ d   1      17.338  42.986  34.192  0.00  0.00     0.078 H 
ATOM     31  H12 MPZ d   1      18.057  42.696  36.591  0.00  0.00     0.078 H 
ATOM     32  H13 MPZ d   1      16.578  41.767  36.171  0.00  0.00     0.078 H 
ATOM     33  H7  MPZ d   1      19.310  40.708  36.233  0.00  0.00     0.280 HD
BRANCH  23  34
ATOM     34  C01 MPZ d   1      17.866  41.157  32.229  0.00  0.00     0.066 C 
ATOM     35  H17 MPZ d   1      17.568  40.270  31.651  0.00  0.00     0.068 H 
ATOM     36  H18 MPZ d   1      18.948  41.322  32.115  0.00  0.00     0.068 H 
ATOM     37  H19 MPZ d   1      17.320  42.037  31.858  0.00  0.00     0.068 H 
ENDBRANCH  23  34
ENDBRANCH  15  18
ENDBRANCH   9  15
ENDBRANCH   2   5
BRANCH   3  38
ATOM     38  C18 MPZ d   1      20.969  33.410  40.800  0.00  0.00     0.037 A 
ATOM     39  C19 MPZ d   1      22.327  33.036  40.905  0.00  0.00    -0.057 A 
ATOM     40  C20 MPZ d   1      22.694  31.892  41.633  0.00  0.00    -0.079 A 
ATOM     41  H21 MPZ d   1      23.090  33.635  40.421  0.00  0.00     0.086 H 
ATOM     42  C21 MPZ d   1      21.704  31.137  42.299  0.00  0.00    -0.057 A 
ATOM     43  H22 MPZ d   1      23.734  31.590  41.683  0.00  0.00     0.083 H 
ATOM     44  C23 MPZ d   1      20.345  31.522  42.214  0.00  0.00     0.051 A 
ATOM     45  H23 MPZ d   1      21.985  30.263  42.875  0.00  0.00     0.086 H 
ATOM     46  C22 MPZ d   1      20.000  32.656  41.479  0.00  0.00    -0.031 A 
ATOM     47  H24 MPZ d   1      18.961  32.961  41.431  0.00  0.00     0.090 H 
BRANCH  44  48
ATOM     48  N24 MPZ d   1      19.443  30.721  42.895  0.00  0.00    -0.188 N 
ATOM     49  H25 MPZ d   1      19.802  29.849  43.308  0.00  0.00     0.184 HD
BRANCH  48  50
ATOM     50  C25 MPZ d   1      18.071  31.004  43.068  0.00  0.00     0.727 A 
ATOM     51  N26 MPZ d   1      17.455  30.108  43.824  0.00  0.00    -0.075 NA
ATOM     52  C27 MPZ d   1      16.124  30.234  44.080  0.00  0.00     0.023 A 
ATOM     53  C28 MPZ d   1      15.414  31.276  43.588  0.00  0.00    -0.036 A 
ATOM     54  H26 MPZ d   1      15.625  29.488  44.688  0.00  0.00     0.115 H 
ATOM     55  C30 MPZ d   1      16.067  32.180  42.839  0.00  0.00     0.089 A 
ATOM     56  H27 MPZ d   1      14.354  31.378  43.791  0.00  0.00     0.089 H 
ATOM     57  N29 MPZ d   1      17.394  32.050  42.569  0.00  0.00    -0.062 NA
BRANCH  55  58
ATOM     58  C31 MPZ d   1      15.383  33.338  42.213  0.00  0.00     0.011 A 
ATOM     59  C32 MPZ d   1      15.995  33.983  41.134  0.00  0.00    -0.068 A 
ATOM     60  C36 MPZ d   1      15.363  35.067  40.521  0.00  0.00    -0.065 A 
ATOM     61  H28 MPZ d   1      16.959  33.642  40.774  0.00  0.00     0.085 H 
ATOM     62  C35 MPZ d   1      14.128  35.479  40.992  0.00  0.00     0.002 A 
ATOM     63  H29 MPZ d   1      15.833  35.578  39.688  0.00  0.00     0.085 H 
ATOM     64  N34 MPZ d   1      13.508  34.872  42.023  0.00  0.00    -0.272 NA
ATOM     65  H30 MPZ d   1      13.642  36.321  40.514  0.00  0.00     0.114 H 
ATOM     66  C33 MPZ d   1      14.114  33.821  42.619  0.00  0.00     0.014 A 
ATOM     67  H31 MPZ d   1      13.609  33.327  43.441  0.00  0.00     0.116 H 
ENDBRANCH  55  58
ENDBRANCH  48  50
ENDBRANCH  44  48
ENDBRANCH   3  38
TORSDOF 8
