REMARK  9 active torsions:
REMARK  status: ('A' for Active; 'I' for Inactive)
REMARK    1  A    between atoms: S3_2  and  C2_4 
REMARK    2  A    between atoms: S3_2  and  C6_6 
REMARK    3  A    between atoms: C2_4  and  C1_5 
REMARK    4  A    between atoms: C9_9  and  O10_10 
REMARK    5  A    between atoms: O10_10  and  C11_11 
REMARK    6  A    between atoms: C12_12  and  N13_14 
REMARK    7  A    between atoms: N13_14  and  C14_15 
REMARK    8  A    between atoms: C17_18  and  C19_20 
REMARK    9  A    between atoms: C23_24  and  C25_26 
ROOT
ATOM      1  C14 AAZ d   1       2.901  29.102  17.183  0.00  0.00     0.251 A 
ATOM      2  N15 AAZ d   1       3.778  29.466  16.237  0.00  0.00    -0.218 NA
ATOM      3  C16 AAZ d   1       3.346  30.538  15.673  0.00  0.00     0.040 A 
ATOM      4  C17 AAZ d   1       2.177  30.924  16.216  0.00  0.00     0.107 A 
ATOM      5  O18 AAZ d   1       1.793  30.003  17.228  0.00  0.00    -0.276 OA
ATOM      6  H13 AAZ d   1       3.857  31.062  14.866  0.00  0.00     0.119 H 
ENDROOT
BRANCH   1   7
ATOM      7  N13 AAZ d   1       3.006  28.093  18.051  0.00  0.00    -0.318 N 
ATOM      8  H12 AAZ d   1       3.800  27.443  17.961  0.00  0.00     0.169 HD
BRANCH   7   9
ATOM      9  C12 AAZ d   1       2.092  27.887  19.064  0.00  0.00     0.070 A 
ATOM     10  C9  AAZ d   1       1.695  26.574  19.365  0.00  0.00     0.095 A 
ATOM     11  C8  AAZ d   1       0.664  26.360  20.292  0.00  0.00    -0.047 A 
ATOM     12  C7  AAZ d   1       0.007  27.435  20.902  0.00  0.00    -0.059 A 
ATOM     13  H7  AAZ d   1       0.371  25.346  20.540  0.00  0.00     0.087 H 
ATOM     14  C6  AAZ d   1       0.364  28.751  20.613  0.00  0.00     0.061 A 
ATOM     15  H6  AAZ d   1      -0.791  27.241  21.610  0.00  0.00     0.085 H 
ATOM     16  C31 AAZ d   1       1.405  28.962  19.689  0.00  0.00    -0.034 A 
ATOM     17  H11 AAZ d   1       1.692  29.979  19.446  0.00  0.00     0.089 H 
BRANCH  10  18
ATOM     18  O10 AAZ d   1       2.345  25.533  18.742  0.00  0.00    -0.354 OA
BRANCH  18  19
ATOM     19  C11 AAZ d   1       2.193  24.136  19.058  0.00  0.00     0.010 C 
ATOM     20  H8  AAZ d   1       2.837  23.538  18.396  0.00  0.00     0.066 H 
ATOM     21  H9  AAZ d   1       1.143  23.840  18.914  0.00  0.00     0.066 H 
ATOM     22  H10 AAZ d   1       2.483  23.963  20.105  0.00  0.00     0.066 H 
ENDBRANCH  18  19
ENDBRANCH  10  18
BRANCH  14  23
ATOM     23  S3  AAZ d   1      -0.427  29.954  21.377  0.00  0.00     0.175 S 
ATOM     24  O4  AAZ d   1      -0.273  29.667  22.771  0.00  0.00    -0.223 OA
ATOM     25  O5  AAZ d   1       0.057  31.253  21.024  0.00  0.00    -0.223 OA
BRANCH  23  26
ATOM     26  C2  AAZ d   1      -2.060  29.936  21.047  0.00  0.00     0.030 C 
ATOM     27  H1  AAZ d   1      -2.508  30.877  21.400  0.00  0.00     0.056 H 
ATOM     28  H2  AAZ d   1      -2.523  29.089  21.574  0.00  0.00     0.056 H 
BRANCH  26  29
ATOM     29  C1  AAZ d   1      -2.317  29.794  19.560  0.00  0.00    -0.064 C 
ATOM     30  H3  AAZ d   1      -3.401  29.785  19.375  0.00  0.00     0.028 H 
ATOM     31  H4  AAZ d   1      -1.876  28.853  19.200  0.00  0.00     0.028 H 
ATOM     32  H5  AAZ d   1      -1.861  30.641  19.026  0.00  0.00     0.028 H 
ENDBRANCH  26  29
ENDBRANCH  23  26
ENDBRANCH  14  23
ENDBRANCH   7   9
ENDBRANCH   1   7
BRANCH   4  33
ATOM     33  C19 AAZ d   1       1.220  32.031  15.926  0.00  0.00     0.000 A 
ATOM     34  C20 AAZ d   1       1.368  32.945  14.893  0.00  0.00    -0.070 A 
ATOM     35  C21 AAZ d   1       0.369  33.903  14.700  0.00  0.00    -0.081 A 
ATOM     36  H14 AAZ d   1       2.240  32.917  14.249  0.00  0.00     0.084 H 
ATOM     37  C22 AAZ d   1      -0.782  33.922  15.517  0.00  0.00    -0.071 A 
ATOM     38  H15 AAZ d   1       0.479  34.641  13.913  0.00  0.00     0.083 H 
ATOM     39  C23 AAZ d   1      -0.938  32.973  16.534  0.00  0.00    -0.006 A 
ATOM     40  H16 AAZ d   1      -1.547  34.673  15.356  0.00  0.00     0.084 H 
ATOM     41  C24 AAZ d   1       0.062  32.045  16.720  0.00  0.00    -0.058 A 
ATOM     42  H17 AAZ d   1      -0.048  31.303  17.503  0.00  0.00     0.086 H 
BRANCH  39  43
ATOM     43  C25 AAZ d   1      -2.134  32.983  17.436  0.00  0.00     0.066 A 
ATOM     44  C26 AAZ d   1      -3.351  32.384  17.064  0.00  0.00    -0.054 A 
ATOM     45  C27 AAZ d   1      -4.445  32.448  17.927  0.00  0.00    -0.079 A 
ATOM     46  H18 AAZ d   1      -3.438  31.875  16.111  0.00  0.00     0.087 H 
ATOM     47  C28 AAZ d   1      -4.303  33.091  19.159  0.00  0.00    -0.066 A 
ATOM     48  H19 AAZ d   1      -5.393  32.005  17.645  0.00  0.00     0.083 H 
ATOM     49  C29 AAZ d   1      -3.084  33.679  19.503  0.00  0.00     0.003 A 
ATOM     50  H20 AAZ d   1      -5.139  33.133  19.848  0.00  0.00     0.085 H 
ATOM     51  N30 AAZ d   1      -2.035  33.612  18.652  0.00  0.00    -0.260 NA
ATOM     52  H21 AAZ d   1      -2.978  34.190  20.453  0.00  0.00     0.114 H 
ENDBRANCH  39  43
ENDBRANCH   4  33
TORSDOF 9
