REMARK  9 active torsions:
REMARK  status: ('A' for Active; 'I' for Inactive)
REMARK    1  A    between atoms: S27_2  and  N30_4 
REMARK    2  A    between atoms: S27_2  and  C6_9 
REMARK    3  A    between atoms: N30_4  and  C31_5 
REMARK    4  A    between atoms: C31_5  and  C32_6 
REMARK    5  A    between atoms: C8_13  and  N9_17 
REMARK    6  A    between atoms: C3_14  and  O2_15 
REMARK    7  A    between atoms: O2_15  and  C1_16 
REMARK    8  A    between atoms: C13_20  and  C15_23 
REMARK    9  A    between atoms: C19_25  and  C21_29 
ROOT
ATOM      1  C6  AAX d   1       0.257  28.617  20.772  0.00  0.00     0.081 A 
ATOM      2  C5  AAX d   1       0.005  27.285  21.076  0.00  0.00    -0.058 A 
ATOM      3  C4  AAX d   1       0.740  26.264  20.472  0.00  0.00    -0.047 A 
ATOM      4  C7  AAX d   1       1.270  28.887  19.820  0.00  0.00    -0.032 A 
ATOM      5  C8  AAX d   1       2.006  27.868  19.172  0.00  0.00     0.070 A 
ATOM      6  C3  AAX d   1       1.727  26.553  19.510  0.00  0.00     0.095 A 
ATOM      7  H9  AAX d   1      -0.771  27.036  21.790  0.00  0.00     0.086 H 
ATOM      8  H10 AAX d   1       0.548  25.233  20.747  0.00  0.00     0.087 H 
ATOM      9  H11 AAX d   1       1.491  29.920  19.577  0.00  0.00     0.089 H 
ENDROOT
BRANCH   5  10
ATOM     10  N9  AAX d   1       2.939  28.100  18.157  0.00  0.00    -0.318 N 
ATOM     11  C10 AAX d   1       2.859  29.108  17.251  0.00  0.00     0.251 A 
ATOM     12  O14 AAX d   1       1.835  29.981  17.265  0.00  0.00    -0.276 OA
ATOM     13  N11 AAX d   1       3.811  29.380  16.306  0.00  0.00    -0.218 NA
ATOM     14  C13 AAX d   1       2.164  30.901  16.325  0.00  0.00     0.107 A 
ATOM     15  C12 AAX d   1       3.350  30.513  15.703  0.00  0.00     0.040 A 
ATOM     16  H16 AAX d   1       3.829  31.029  14.873  0.00  0.00     0.119 H 
ATOM     17  H15 AAX d   1       3.744  27.461  18.092  0.00  0.00     0.169 HD
BRANCH  14  18
ATOM     18  C15 AAX d   1       1.204  31.967  16.050  0.00  0.00     0.000 A 
ATOM     19  C20 AAX d   1       1.152  32.577  14.797  0.00  0.00    -0.059 A 
ATOM     20  C19 AAX d   1       0.191  33.555  14.539  0.00  0.00    -0.024 A 
ATOM     21  H17 AAX d   1       1.857  32.292  14.025  0.00  0.00     0.086 H 
ATOM     22  C18 AAX d   1      -0.769  33.879  15.520  0.00  0.00    -0.072 A 
ATOM     23  C17 AAX d   1      -0.746  33.199  16.734  0.00  0.00    -0.081 A 
ATOM     24  H18 AAX d   1      -1.512  34.645  15.332  0.00  0.00     0.084 H 
ATOM     25  C16 AAX d   1       0.219  32.250  17.003  0.00  0.00    -0.070 A 
ATOM     26  H19 AAX d   1      -1.500  33.419  17.482  0.00  0.00     0.083 H 
ATOM     27  H20 AAX d   1       0.214  31.724  17.951  0.00  0.00     0.084 H 
BRANCH  20  28
ATOM     28  C21 AAX d   1       0.189  34.233  13.205  0.00  0.00    -0.008 A 
ATOM     29  C26 AAX d   1       0.002  35.621  13.093  0.00  0.00     0.013 A 
ATOM     30  N25 AAX d   1       0.031  36.250  11.897  0.00  0.00    -0.272 NA
ATOM     31  H21 AAX d   1      -0.170  36.204  13.991  0.00  0.00     0.116 H 
ATOM     32  C24 AAX d   1       0.225  35.552  10.772  0.00  0.00     0.002 A 
ATOM     33  C23 AAX d   1       0.428  34.170  10.822  0.00  0.00    -0.065 A 
ATOM     34  H22 AAX d   1       0.225  36.062   9.815  0.00  0.00     0.114 H 
ATOM     35  C22 AAX d   1       0.391  33.492  12.044  0.00  0.00    -0.070 A 
ATOM     36  H23 AAX d   1       0.615  33.620   9.907  0.00  0.00     0.085 H 
ATOM     37  H24 AAX d   1       0.516  32.416  12.086  0.00  0.00     0.085 H 
ENDBRANCH  20  28
ENDBRANCH  14  18
ENDBRANCH   5  10
BRANCH   6  38
ATOM     38  O2  AAX d   1       2.444  25.573  18.876  0.00  0.00    -0.354 OA
BRANCH  38  39
ATOM     39  C1  AAX d   1       2.272  24.164  19.097  0.00  0.00     0.010 C 
ATOM     40  H12 AAX d   1       2.973  23.605  18.460  0.00  0.00     0.066 H 
ATOM     41  H13 AAX d   1       1.240  23.877  18.846  0.00  0.00     0.066 H 
ATOM     42  H14 AAX d   1       2.471  23.932  20.154  0.00  0.00     0.066 H 
ENDBRANCH  38  39
ENDBRANCH   6  38
BRANCH   1  43
ATOM     43  S27 AAX d   1      -0.605  29.778  21.561  0.00  0.00     0.258 S 
ATOM     44  O29 AAX d   1      -0.037  31.044  21.305  0.00  0.00    -0.201 OA
ATOM     45  O28 AAX d   1      -0.477  29.435  22.941  0.00  0.00    -0.201 OA
BRANCH  43  46
ATOM     46  N30 AAX d   1      -2.100  29.857  21.021  0.00  0.00    -0.315 N 
ATOM     47  H1  AAX d   1      -2.882  29.730  21.631  0.00  0.00     0.172 HD
BRANCH  46  48
ATOM     48  C31 AAX d   1      -2.281  30.124  19.594  0.00  0.00     0.006 C 
ATOM     49  H2  AAX d   1      -2.064  29.202  19.035  0.00  0.00     0.065 H 
ATOM     50  H3  AAX d   1      -1.574  30.911  19.292  0.00  0.00     0.065 H 
BRANCH  48  51
ATOM     51  C32 AAX d   1      -3.697  30.582  19.247  0.00  0.00    -0.038 A 
ATOM     52  C34 AAX d   1      -3.861  31.122  17.827  0.00  0.00    -0.060 A 
ATOM     53  C33 AAX d   1      -3.906  32.070  19.018  0.00  0.00    -0.060 A 
ATOM     54  H5  AAX d   1      -4.778  30.908  17.259  0.00  0.00     0.033 H 
ATOM     55  H6  AAX d   1      -3.001  31.139  17.142  0.00  0.00     0.033 H 
ATOM     56  H7  AAX d   1      -3.079  32.774  19.191  0.00  0.00     0.033 H 
ATOM     57  H8  AAX d   1      -4.856  32.542  19.308  0.00  0.00     0.033 H 
ATOM     58  H4  AAX d   1      -4.462  29.960  19.734  0.00  0.00     0.042 H 
ENDBRANCH  48  51
ENDBRANCH  46  48
ENDBRANCH  43  46
ENDBRANCH   1  43
TORSDOF 9
