REMARK  8 active torsions:
REMARK  status: ('A' for Active; 'I' for Inactive)
REMARK    1  A    between atoms: O3A_8  and  PB_1 
REMARK    2  A    between atoms: PA_5  and  O3A_8 
REMARK    3  A    between atoms: PA_5  and  O5_9 
REMARK    4  A    between atoms: O5_9  and  C5_10 
REMARK    5  A    between atoms: C5_10  and  C4_11 
REMARK    6  A    between atoms: C3_13  and  O3_14 
REMARK    7  A    between atoms: C2_15  and  O2_16 
REMARK    8  A    between atoms: C1_17  and  N9_18 
ROOT
ATOM      1  C4  ADP d   1     -46.991  16.480  68.739  0.00  0.00     0.089 C 
ATOM      2  O4  ADP d   1     -47.850  17.023  67.703  0.00  0.00    -0.353 OA
ATOM      3  C3  ADP d   1     -46.179  17.662  69.283  0.00  0.00     0.091 C 
ATOM      4  C2  ADP d   1     -46.078  18.600  68.087  0.00  0.00     0.105 C 
ATOM      5  C1  ADP d   1     -47.325  18.308  67.259  0.00  0.00     0.139 C 
ATOM      6  H3  ADP d   1     -46.281  15.796  68.251  0.00  0.00     0.090 H 
ATOM      7  H4  ADP d   1     -46.688  18.153  70.126  0.00  0.00     0.091 H 
ATOM      8  H6  ADP d   1     -46.015  19.654  68.397  0.00  0.00     0.093 H 
ATOM      9  H8  ADP d   1     -47.048  18.253  66.196  0.00  0.00     0.122 H 
ENDROOT
BRANCH   5  10
ATOM     10  N9  ADP d   1     -48.382  19.347  67.428  0.00  0.00    -0.294 N 
ATOM     11  C8  ADP d   1     -49.487  19.192  68.186  0.00  0.00     0.071 A 
ATOM     12  N7  ADP d   1     -50.291  20.275  68.131  0.00  0.00    -0.236 NA
ATOM     13  H9  ADP d   1     -49.704  18.300  68.772  0.00  0.00     0.144 H 
ATOM     14  C5  ADP d   1     -49.696  21.169  67.318  0.00  0.00     0.149 A 
ATOM     15  C6  ADP d   1     -50.015  22.546  66.857  0.00  0.00     0.155 A 
ATOM     16  C4  ADP d   1     -48.432  20.553  66.846  0.00  0.00     0.167 A 
ATOM     17  N6  ADP d   1     -51.146  23.186  67.244  0.00  0.00    -0.382 N 
ATOM     18  N1  ADP d   1     -49.132  23.111  66.011  0.00  0.00    -0.222 NA
ATOM     19  H10 ADP d   1     -51.339  24.140  66.907  0.00  0.00     0.157 HD
ATOM     20  H11 ADP d   1     -51.812  22.718  67.875  0.00  0.00     0.157 HD
ATOM     21  C2  ADP d   1     -47.983  22.490  65.611  0.00  0.00     0.091 A 
ATOM     22  N3  ADP d   1     -47.614  21.254  66.012  0.00  0.00    -0.222 NA
ATOM     23  H12 ADP d   1     -47.328  23.021  64.930  0.00  0.00     0.146 H 
ENDBRANCH   5  10
BRANCH   4  24
ATOM     24  O2  ADP d   1     -44.956  18.221  67.276  0.00  0.00    -0.388 OA
ATOM     25  H7  ADP d   1     -44.160  18.278  67.792  0.00  0.00     0.210 HD
ENDBRANCH   4  24
BRANCH   1  26
ATOM     26  C5  ADP d   1     -47.719  15.634  69.790  0.00  0.00     0.058 C 
ATOM     27  H1  ADP d   1     -48.466  15.012  69.275  0.00  0.00     0.079 H 
ATOM     28  H2  ADP d   1     -46.980  14.986  70.284  0.00  0.00     0.079 H 
BRANCH  26  29
ATOM     29  O5  ADP d   1     -48.387  16.396  70.793  0.00  0.00    -0.287 OA
BRANCH  29  30
ATOM     30  PA  ADP d   1     -48.814  15.741  72.222  0.00  0.00     0.418 P 
ATOM     31  O1A ADP d   1     -49.433  14.360  72.041  0.00  0.00    -0.624 OA
ATOM     32  O2A ADP d   1     -49.512  16.836  73.021  0.00  0.00    -0.624 OA
BRANCH  30  33
ATOM     33  O3A ADP d   1     -47.400  15.448  72.973  0.00  0.00    -0.173 OA
BRANCH  33  34
ATOM     34  PB  ADP d   1     -46.255  16.565  73.318  0.00  0.00     0.431 P 
ATOM     35  O1B ADP d   1     -45.842  16.078  74.709  0.00  0.00    -0.616 OA
ATOM     36  O2B ADP d   1     -45.279  16.363  72.175  0.00  0.00    -0.616 OA
ATOM     37  O3B ADP d   1     -46.946  17.921  73.363  0.00  0.00    -0.616 OA
ENDBRANCH  33  34
ENDBRANCH  30  33
ENDBRANCH  29  30
ENDBRANCH  26  29
ENDBRANCH   1  26
BRANCH   3  38
ATOM     38  O3  ADP d   1     -44.898  17.178  69.701  0.00  0.00    -0.390 OA
ATOM     39  H5  ADP d   1     -45.014  16.524  70.380  0.00  0.00     0.210 HD
ENDBRANCH   3  38
TORSDOF 8
