REMARK  11 active torsions:
REMARK  status: ('A' for Active; 'I' for Inactive)
REMARK    1  A    between atoms: C4_7  and  N8_1 
REMARK    2  A    between atoms: N6_4  and  C61_2 
REMARK    3  A    between atoms: S1_3  and  N6_4 
REMARK    4  A    between atoms: C16_32  and  S1_3 
REMARK    5  A    between atoms: N6_4  and  C62_5 
REMARK    6  A    between atoms: N7_13  and  C1_12 
REMARK    7  A    between atoms: C7_14  and  N7_13 
REMARK    8  A    between atoms: C11_18  and  C20_19 
REMARK    9  A    between atoms: C20_19  and  C21_20 
REMARK   10  A    between atoms: C20_19  and  C22_21 
REMARK   11  A    between atoms: C13_27  and  N5_26 
ROOT
ATOM      1  C7  CT9 d   1       0.169  63.427   8.418  0.00  0.00     0.129 A 
ATOM      2  C8  CT9 d   1       1.349  63.366   7.690  0.00  0.00     0.005 A 
ATOM      3  N1  CT9 d   1      -0.494  64.577   8.514  0.00  0.00    -0.211 NA
ATOM      4  C10 CT9 d   1       0.009  65.657   7.942  0.00  0.00     0.161 A 
ATOM      5  C11 CT9 d   1      -0.519  66.920   7.965  0.00  0.00     0.010 A 
ATOM      6  C12 CT9 d   1       0.363  67.687   7.221  0.00  0.00     0.005 A 
ATOM      7  N2  CT9 d   1       1.121  65.648   7.239  0.00  0.00    -0.221 N 
ATOM      8  N3  CT9 d   1       1.361  66.878   6.789  0.00  0.00    -0.301 N 
ATOM      9  C9  CT9 d   1       1.839  64.533   7.095  0.00  0.00     0.133 A 
ATOM     10  N5  CT9 d   1       2.999  64.579   6.382  0.00  0.00    -0.341 N 
ATOM     11  H21 CT9 d   1       1.883  62.428   7.584  0.00  0.00     0.095 H 
ATOM     12  H29 CT9 d   1       0.271  68.753   7.019  0.00  0.00     0.114 H 
ATOM     13  H30 CT9 d   1       2.165  67.165   6.213  0.00  0.00     0.186 HD
ATOM     14  H31 CT9 d   1       3.181  65.403   5.791  0.00  0.00     0.167 HD
ENDROOT
BRANCH  10  15
ATOM     15  C13 CT9 d   1       3.916  63.598   6.415  0.00  0.00     0.033 A 
ATOM     16  C18 CT9 d   1       4.202  62.975   7.643  0.00  0.00    -0.056 A 
ATOM     17  C17 CT9 d   1       5.156  61.977   7.672  0.00  0.00    -0.058 A 
ATOM     18  H32 CT9 d   1       3.684  63.272   8.548  0.00  0.00     0.087 H 
ATOM     19  C16 CT9 d   1       5.818  61.593   6.501  0.00  0.00     0.079 A 
ATOM     20  H33 CT9 d   1       5.394  61.487   8.609  0.00  0.00     0.086 H 
ATOM     21  C15 CT9 d   1       5.537  62.200   5.291  0.00  0.00    -0.058 A 
ATOM     22  C14 CT9 d   1       4.583  63.214   5.233  0.00  0.00    -0.056 A 
ATOM     23  H35 CT9 d   1       6.056  61.889   4.392  0.00  0.00     0.086 H 
ATOM     24  H34 CT9 d   1       4.356  63.701   4.292  0.00  0.00     0.087 H 
BRANCH  19  25
ATOM     25  S1  CT9 d   1       7.020  60.279   6.619  0.00  0.00     0.260 S 
ATOM     26  O2  CT9 d   1       7.614  60.077   5.287  0.00  0.00    -0.200 OA
ATOM     27  O3  CT9 d   1       7.937  60.700   7.669  0.00  0.00    -0.200 OA
BRANCH  25  28
ATOM     28  N6  CT9 d   1       6.279  58.886   7.002  0.00  0.00    -0.315 N 
BRANCH  28  29
ATOM     29  C61 CT9 d   1       5.768  58.048   5.913  0.00  0.00    -0.009 C 
ATOM     30  H4  CT9 d   1       5.297  57.147   6.333  0.00  0.00     0.057 H 
ATOM     31  H5  CT9 d   1       6.599  57.754   5.255  0.00  0.00     0.057 H 
ATOM     32  H6  CT9 d   1       5.024  58.614   5.333  0.00  0.00     0.057 H 
ENDBRANCH  28  29
BRANCH  28  33
ATOM     33  C62 CT9 d   1       6.104  58.452   8.393  0.00  0.00    -0.009 C 
ATOM     34  H7  CT9 d   1       5.579  57.486   8.412  0.00  0.00     0.057 H 
ATOM     35  H8  CT9 d   1       5.513  59.201   8.939  0.00  0.00     0.057 H 
ATOM     36  H9  CT9 d   1       7.089  58.344   8.870  0.00  0.00     0.057 H 
ENDBRANCH  28  33
ENDBRANCH  25  28
ENDBRANCH  19  25
ENDBRANCH  10  15
BRANCH   1  37
ATOM     37  N7  CT9 d   1      -0.404  62.344   8.968  0.00  0.00    -0.370 N 
ATOM     38  H20 CT9 d   1      -0.764  61.650   8.297  0.00  0.00     0.161 HD
BRANCH  37  39
ATOM     39  C1  CT9 d   1      -0.590  62.009  10.356  0.00  0.00     0.011 C 
ATOM     40  C6  CT9 d   1      -0.783  63.333  11.065  0.00  0.00    -0.044 C 
ATOM     41  C5  CT9 d   1      -1.114  63.073  12.524  0.00  0.00    -0.037 C 
ATOM     42  H13 CT9 d   1       0.141  63.925  10.997  0.00  0.00     0.036 H 
ATOM     43  H14 CT9 d   1      -1.608  63.886  10.593  0.00  0.00     0.036 H 
ATOM     44  C4  CT9 d   1      -2.405  62.252  12.629  0.00  0.00     0.100 C 
ATOM     45  H11 CT9 d   1      -0.289  62.516  12.991  0.00  0.00     0.036 H 
ATOM     46  H12 CT9 d   1      -1.249  64.033  13.044  0.00  0.00     0.036 H 
ATOM     47  C3  CT9 d   1      -2.251  60.932  11.863  0.00  0.00    -0.037 C 
ATOM     48  H10 CT9 d   1      -3.238  62.827  12.199  0.00  0.00     0.083 H 
ATOM     49  C2  CT9 d   1      -1.891  61.220  10.406  0.00  0.00    -0.044 C 
ATOM     50  H15 CT9 d   1      -3.198  60.374  11.902  0.00  0.00     0.036 H 
ATOM     51  H16 CT9 d   1      -1.453  60.332  12.325  0.00  0.00     0.036 H 
ATOM     52  H17 CT9 d   1      -2.695  61.807   9.938  0.00  0.00     0.036 H 
ATOM     53  H18 CT9 d   1      -1.766  60.271   9.864  0.00  0.00     0.036 H 
ATOM     54  H19 CT9 d   1       0.253  61.439  10.773  0.00  0.00     0.072 H 
BRANCH  44  55
ATOM     55  N8  CT9 d   1      -2.688  61.965  14.051  0.00  0.00    -0.075 N 
ATOM     56  H1  CT9 d   1      -2.789  62.832  14.555  0.00  0.00     0.274 HD
ATOM     57  H2  CT9 d   1      -1.927  61.434  14.445  0.00  0.00     0.274 HD
ATOM     58  H3  CT9 d   1      -3.541  61.433  14.123  0.00  0.00     0.274 HD
ENDBRANCH  44  55
ENDBRANCH  37  39
ENDBRANCH   1  37
BRANCH   5  59
ATOM     59  C20 CT9 d   1      -1.787  67.304   8.615  0.00  0.00    -0.030 C 
ATOM     60  H22 CT9 d   1      -1.991  68.272   8.134  0.00  0.00     0.046 H 
BRANCH  59  61
ATOM     61  C21 CT9 d   1      -1.794  67.671  10.074  0.00  0.00    -0.069 C 
ATOM     62  H23 CT9 d   1      -2.818  67.927  10.383  0.00  0.00     0.028 H 
ATOM     63  H24 CT9 d   1      -1.135  68.536  10.238  0.00  0.00     0.028 H 
ATOM     64  H25 CT9 d   1      -1.434  66.818  10.668  0.00  0.00     0.028 H 
ENDBRANCH  59  61
BRANCH  59  65
ATOM     65  C22 CT9 d   1      -2.975  66.494   8.240  0.00  0.00    -0.069 C 
ATOM     66  H26 CT9 d   1      -2.929  66.249   7.169  0.00  0.00     0.028 H 
ATOM     67  H27 CT9 d   1      -3.890  67.069   8.445  0.00  0.00     0.028 H 
ATOM     68  H28 CT9 d   1      -2.986  65.564   8.828  0.00  0.00     0.028 H 
ENDBRANCH  59  65
ENDBRANCH   5  59
TORSDOF 11
