REMARK WARNING: 32 MAX_TORS EXCEEDED!!!
REMARK  46 active torsions:
REMARK  status: ('A' for Active; 'I' for Inactive)
REMARK    1  A    between atoms: CA_2  and  C_3 
REMARK       I    between atoms: C_3  and  N_8 
REMARK    2  A    between atoms: N_8  and  CA_9 
REMARK    3  A    between atoms: CA_9  and  C_10 
REMARK    4  A    between atoms: CA_9  and  CB_12 
REMARK       I    between atoms: C_10  and  N_15 
REMARK    5  A    between atoms: CB_12  and  OG1_13 
REMARK    6  A    between atoms: CB_12  and  CG2_14 
REMARK    7  A    between atoms: N_15  and  CA_16 
REMARK    8  A    between atoms: CA_16  and  C_17 
REMARK    9  A    between atoms: CA_16  and  CB_19 
REMARK       I    between atoms: C_17  and  N_26 
REMARK   10  A    between atoms: CB_19  and  CG_20 
REMARK   11  A    between atoms: CG_20  and  CD_21 
REMARK   12  A    between atoms: CD_21  and  NE_22 
REMARK       I    between atoms: NE_22  and  CZ_23 
REMARK       I    between atoms: CZ_23  and  NH1_24 
REMARK   13  A    between atoms: N_26  and  CA_27 
REMARK   14  A    between atoms: CA_27  and  C_28 
REMARK   15  A    between atoms: CA_27  and  CB_30 
REMARK       I    between atoms: C_28  and  N_33 
REMARK   16  A    between atoms: CB_30  and  CG1_31 
REMARK   17  A    between atoms: CB_30  and  CG2_32 
REMARK   18  A    between atoms: N_33  and  CA_34 
REMARK   19  A    between atoms: CA_34  and  C_35 
REMARK   20  A    between atoms: CA_34  and  CB_37 
REMARK       I    between atoms: C_35  and  N_39 
REMARK   21  A    between atoms: CB_37  and  OG_38 
REMARK   22  A    between atoms: N_39  and  CA_40 
REMARK   23  A    between atoms: CA_40  and  CB_41 
REMARK   24  A    between atoms: CA_40  and  C_43 
REMARK   25  A    between atoms: CB_41  and  OG_42 
REMARK   26  A    between atoms: OG_42  and  P_45 
REMARK       I    between atoms: C_43  and  N_49 
REMARK   27  A    between atoms: CA_50  and  C_51 
REMARK       I    between atoms: C_51  and  N_56 
REMARK   28  A    between atoms: N_56  and  CA_57 
REMARK   29  A    between atoms: CA_57  and  C_58 
REMARK   30  A    between atoms: CA_57  and  CB_60 
REMARK       I    between atoms: C_58  and  N_63 
REMARK   31  A    between atoms: CB_60  and  CG1_61 
REMARK   32  A    between atoms: CB_60  and  CG2_62 
REMARK   33  A    between atoms: N_63  and  CA_64 
REMARK   34  A    between atoms: CA_64  and  C_65 
REMARK   35  A    between atoms: CA_64  and  CB_67 
REMARK       I    between atoms: C_65  and  N_74 
REMARK   36  A    between atoms: CB_67  and  CG_68 
REMARK   37  A    between atoms: N_74  and  CA_75 
REMARK   38  A    between atoms: CA_75  and  C_76 
REMARK       I    between atoms: C_76  and  N_78 
REMARK   39  A    between atoms: N_78  and  CA_79 
REMARK   40  A    between atoms: CA_79  and  C_80 
REMARK   41  A    between atoms: CA_79  and  CB_82 
REMARK       I    between atoms: C_80  and  N_83 
REMARK   42  A    between atoms: N_83  and  CA_84 
REMARK   43  A    between atoms: CA_84  and  C_85 
REMARK   44  A    between atoms: CA_84  and  CB_87 
REMARK   45  A    between atoms: CB_87  and  OG1_88 
REMARK   46  A    between atoms: CB_87  and  CG2_89 
ROOT
ATOM      1  CA  SEP d   1     -27.176  53.101   5.519  0.00  0.00     0.110 C 
ATOM      2  H45 SEP d   1     -26.772  53.055   6.541  0.00  0.00     0.090 H 
ENDROOT
BRANCH   1   3
ATOM      3  N   SEP d   1     -28.641  53.034   5.616  0.00  0.00    -0.344 N 
ATOM      4  C   SER d   1     -29.336  53.798   6.455  0.00  0.00     0.243 C 
ATOM      5  O   SER d   1     -28.801  54.672   7.145  0.00  0.00    -0.271 OA
ATOM      6  H44 SEP d   1     -29.134  52.391   5.030  0.00  0.00     0.163 HD
BRANCH   4   7
ATOM      7  CA  SER d   1     -30.873  53.550   6.548  0.00  0.00     0.109 C 
ATOM      8  H40 SER d   1     -31.157  53.803   7.580  0.00  0.00     0.090 H 
BRANCH   7   9
ATOM      9  N   SER d   1     -31.675  54.416   5.681  0.00  0.00    -0.344 N 
ATOM     10  C   VAL d   1     -32.870  54.893   6.041  0.00  0.00     0.241 C 
ATOM     11  O   VAL d   1     -33.470  54.541   7.081  0.00  0.00    -0.271 OA
ATOM     12  H39 SER d   1     -31.313  54.661   4.782  0.00  0.00     0.163 HD
BRANCH  10  13
ATOM     13  CA  VAL d   1     -33.484  55.961   5.104  0.00  0.00     0.092 C 
ATOM     14  H31 VAL d   1     -34.072  56.615   5.764  0.00  0.00     0.088 H 
BRANCH  13  15
ATOM     15  N   VAL d   1     -32.485  56.808   4.479  0.00  0.00    -0.346 N 
ATOM     16  C   ARG d   1     -32.279  58.056   4.864  0.00  0.00     0.241 C 
ATOM     17  O   ARG d   1     -32.625  58.494   5.959  0.00  0.00    -0.271 OA
ATOM     18  H30 VAL d   1     -31.934  56.435   3.732  0.00  0.00     0.163 HD
BRANCH  16  19
ATOM     19  CA  ARG d   1     -31.518  58.911   3.848  0.00  0.00     0.089 C 
ATOM     20  H18 ARG d   1     -31.323  58.241   2.998  0.00  0.00     0.087 H 
BRANCH  19  21
ATOM     21  N   ARG d   1     -32.294  60.044   3.255  0.00  0.00    -0.346 N 
ATOM     22  C   THR d   1     -32.592  61.221   3.830  0.00  0.00     0.243 C 
ATOM     23  O   THR d   1     -32.121  61.605   4.902  0.00  0.00    -0.271 OA
ATOM     24  H17 ARG d   1     -32.630  59.910   2.323  0.00  0.00     0.163 HD
BRANCH  22  25
ATOM     25  CA  THR d   1     -33.574  62.134   3.057  0.00  0.00     0.113 C 
ATOM     26  H11 THR d   1     -33.545  63.114   3.557  0.00  0.00     0.091 H 
BRANCH  25  27
ATOM     27  N   THR d   1     -33.107  62.561   1.706  0.00  0.00    -0.344 N 
ATOM     28  C   PRO d   1     -33.375  63.773   1.180  0.00  0.00     0.249 C 
ATOM     29  O   PRO d   1     -34.106  64.618   1.737  0.00  0.00    -0.271 OA
ATOM     30  H10 THR d   1     -32.568  61.916   1.164  0.00  0.00     0.163 HD
BRANCH  28  31
ATOM     31  CA  PRO d   1     -32.747  64.101  -0.206  0.00  0.00     0.178 C 
ATOM     32  N   PRO d   1     -33.739  64.512  -1.233  0.00  0.00    -0.062 N 
ATOM     33  CD  PRO d   1     -33.495  65.873  -1.759  0.00  0.00     0.083 C 
ATOM     34  H1  PRO d   1     -34.658  64.487  -0.820  0.00  0.00     0.278 HD
ATOM     35  H2  PRO d   1     -33.697  63.859  -2.000  0.00  0.00     0.278 HD
ATOM     36  CG  PRO d   1     -32.032  66.133  -1.414  0.00  0.00    -0.040 C 
ATOM     37  H8  PRO d   1     -34.151  66.607  -1.268  0.00  0.00     0.075 H 
ATOM     38  H9  PRO d   1     -33.654  65.908  -2.847  0.00  0.00     0.075 H 
ATOM     39  CB  PRO d   1     -31.784  65.315  -0.113  0.00  0.00    -0.028 C 
ATOM     40  H6  PRO d   1     -31.374  65.784  -2.224  0.00  0.00     0.035 H 
ATOM     41  H7  PRO d   1     -31.859  67.205  -1.238  0.00  0.00     0.035 H 
ATOM     42  H4  PRO d   1     -30.739  64.975  -0.064  0.00  0.00     0.036 H 
ATOM     43  H5  PRO d   1     -32.014  65.923   0.774  0.00  0.00     0.036 H 
ATOM     44  H3  PRO d   1     -32.202  63.211  -0.555  0.00  0.00     0.099 H 
ENDBRANCH  28  31
ENDBRANCH  25  27
BRANCH  25  45
ATOM     45  CB  THR d   1     -34.827  61.530   3.635  0.00  0.00     0.060 C 
ATOM     46  H12 THR d   1     -34.409  60.905   4.438  0.00  0.00     0.086 H 
BRANCH  45  47
ATOM     47  OG1 THR d   1     -35.265  60.538   2.660  0.00  0.00    -0.393 OA
ATOM     48  H13 THR d   1     -34.584  59.885   2.547  0.00  0.00     0.210 HD
ENDBRANCH  45  47
BRANCH  45  49
ATOM     49  CG2 THR d   1     -35.936  62.313   4.493  0.00  0.00    -0.050 C 
ATOM     50  H14 THR d   1     -36.737  61.616   4.780  0.00  0.00     0.031 H 
ATOM     51  H15 THR d   1     -36.359  63.128   3.888  0.00  0.00     0.031 H 
ATOM     52  H16 THR d   1     -35.471  62.731   5.398  0.00  0.00     0.031 H 
ENDBRANCH  45  49
ENDBRANCH  25  45
ENDBRANCH  22  25
ENDBRANCH  19  21
BRANCH  19  53
ATOM     53  CB  ARG d   1     -30.139  59.289   4.385  0.00  0.00    -0.036 C 
ATOM     54  H19 ARG d   1     -30.266  59.945   5.259  0.00  0.00     0.036 H 
ATOM     55  H20 ARG d   1     -29.587  59.827   3.600  0.00  0.00     0.036 H 
BRANCH  53  56
ATOM     56  CG  ARG d   1     -29.330  58.061   4.803  0.00  0.00    -0.048 C 
ATOM     57  H21 ARG d   1     -28.937  57.566   3.903  0.00  0.00     0.035 H 
ATOM     58  H22 ARG d   1     -29.986  57.366   5.347  0.00  0.00     0.035 H 
BRANCH  56  59
ATOM     59  CD  ARG d   1     -28.188  58.447   5.687  0.00  0.00     0.009 C 
ATOM     60  H23 ARG d   1     -28.445  59.370   6.228  0.00  0.00     0.064 H 
ATOM     61  H24 ARG d   1     -27.295  58.622   5.069  0.00  0.00     0.064 H 
BRANCH  59  62
ATOM     62  NE  ARG d   1     -27.905  57.394   6.647  0.00  0.00    -0.227 N 
ATOM     63  CZ  ARG d   1     -27.201  57.560   7.761  0.00  0.00     0.665 C 
ATOM     64  NH1 ARG d   1     -26.700  58.736   8.046  0.00  0.00    -0.235 N 
ATOM     65  NH2 ARG d   1     -26.999  56.552   8.590  0.00  0.00    -0.235 N 
ATOM     66  H26 ARG d   1     -26.154  58.868   8.909  0.00  0.00     0.174 HD
ATOM     67  H27 ARG d   1     -26.852  59.529   7.407  0.00  0.00     0.174 HD
ATOM     68  H28 ARG d   1     -27.389  55.623   8.376  0.00  0.00     0.174 HD
ATOM     69  H29 ARG d   1     -26.452  56.695   9.451  0.00  0.00     0.174 HD
ATOM     70  H25 ARG d   1     -28.276  56.453   6.450  0.00  0.00     0.177 HD
ENDBRANCH  59  62
ENDBRANCH  56  59
ENDBRANCH  53  56
ENDBRANCH  19  53
ENDBRANCH  16  19
ENDBRANCH  13  15
BRANCH  13  71
ATOM     71  CB  VAL d   1     -34.495  55.433   4.021  0.00  0.00    -0.033 C 
ATOM     72  H32 VAL d   1     -35.412  56.032   4.122  0.00  0.00     0.042 H 
BRANCH  71  73
ATOM     73  CG1 VAL d   1     -33.954  55.684   2.601  0.00  0.00    -0.071 C 
ATOM     74  H33 VAL d   1     -34.676  55.307   1.862  0.00  0.00     0.028 H 
ATOM     75  H34 VAL d   1     -32.995  55.160   2.476  0.00  0.00     0.028 H 
ATOM     76  H35 VAL d   1     -33.805  56.763   2.451  0.00  0.00     0.028 H 
ENDBRANCH  71  73
BRANCH  71  77
ATOM     77  CG2 VAL d   1     -34.903  53.969   4.254  0.00  0.00    -0.071 C 
ATOM     78  H36 VAL d   1     -35.280  53.852   5.281  0.00  0.00     0.028 H 
ATOM     79  H37 VAL d   1     -34.029  53.317   4.108  0.00  0.00     0.028 H 
ATOM     80  H38 VAL d   1     -35.692  53.690   3.540  0.00  0.00     0.028 H 
ENDBRANCH  71  77
ENDBRANCH  13  71
ENDBRANCH  10  13
ENDBRANCH   7   9
BRANCH   7  81
ATOM     81  CB  SER d   1     -31.238  52.065   6.345  0.00  0.00     0.044 C 
ATOM     82  H41 SER d   1     -30.909  51.746   5.345  0.00  0.00     0.077 H 
ATOM     83  H42 SER d   1     -32.329  51.947   6.427  0.00  0.00     0.077 H 
BRANCH  81  84
ATOM     84  OG  SER d   1     -30.604  51.251   7.329  0.00  0.00    -0.398 OA
ATOM     85  H43 SER d   1     -30.841  50.342   7.187  0.00  0.00     0.209 HD
ENDBRANCH  81  84
ENDBRANCH   7  81
ENDBRANCH   4   7
ENDBRANCH   1   3
BRANCH   1  86
ATOM     86  CB  SEP d   1     -26.664  51.889   4.746  0.00  0.00     0.059 C 
ATOM     87  H46 SEP d   1     -25.581  51.984   4.579  0.00  0.00     0.079 H 
ATOM     88  H47 SEP d   1     -27.180  51.820   3.777  0.00  0.00     0.079 H 
BRANCH  86  89
ATOM     89  OG  SEP d   1     -26.927  50.741   5.506  0.00  0.00    -0.280 OA
BRANCH  89  90
ATOM     90  P   SEP d   1     -27.831  49.653   4.772  0.00  0.00     0.422 P 
ATOM     91  O1P SEP d   1     -27.113  49.053   3.478  0.00  0.00    -0.617 OA
ATOM     92  O2P SEP d   1     -29.218  50.369   4.333  0.00  0.00    -0.617 OA
ATOM     93  O3P SEP d   1     -28.107  48.466   5.820  0.00  0.00    -0.617 OA
ENDBRANCH  89  90
ENDBRANCH  86  89
ENDBRANCH   1  86
BRANCH   1  94
ATOM     94  C   SEP d   1     -26.652  54.407   4.870  0.00  0.00     0.245 C 
ATOM     95  O   SEP d   1     -27.299  54.957   3.969  0.00  0.00    -0.271 OA
ATOM     96  N   PRO d   1     -25.509  54.931   5.345  0.00  0.00    -0.337 N 
ATOM     97  CA  PRO d   1     -24.896  56.029   4.602  0.00  0.00     0.091 C 
ATOM     98  CD  PRO d   1     -24.776  54.642   6.587  0.00  0.00    -0.001 C 
ATOM     99  CB  PRO d   1     -23.470  56.114   5.192  0.00  0.00    -0.036 C 
ATOM    100  H48 PRO d   1     -25.445  56.961   4.805  0.00  0.00     0.087 H 
ATOM    101  CG  PRO d   1     -23.359  54.999   6.224  0.00  0.00    -0.048 C 
ATOM    102  H49 PRO d   1     -23.315  57.092   5.672  0.00  0.00     0.036 H 
ATOM    103  H50 PRO d   1     -22.722  55.972   4.398  0.00  0.00     0.036 H 
ATOM    104  H51 PRO d   1     -22.812  55.350   7.111  0.00  0.00     0.035 H 
ATOM    105  H52 PRO d   1     -22.841  54.128   5.795  0.00  0.00     0.035 H 
ATOM    106  H53 PRO d   1     -24.860  53.580   6.860  0.00  0.00     0.064 H 
ATOM    107  H54 PRO d   1     -25.142  55.264   7.418  0.00  0.00     0.064 H 
BRANCH  97 108
ATOM    108  C   PRO d   1     -24.862  55.821   3.079  0.00  0.00     0.241 C 
ATOM    109  O   PRO d   1     -24.693  54.704   2.588  0.00  0.00    -0.271 OA
ATOM    110  N   VAL d   1     -25.037  56.917   2.347  0.00  0.00    -0.346 N 
ATOM    111  H55 VAL d   1     -25.129  57.797   2.813  0.00  0.00     0.163 HD
BRANCH 110 112
ATOM    112  CA  VAL d   1     -25.101  56.886   0.881  0.00  0.00     0.092 C 
ATOM    113  H56 VAL d   1     -25.083  55.833   0.562  0.00  0.00     0.088 H 
BRANCH 112 114
ATOM    114  C   VAL d   1     -23.854  57.563   0.295  0.00  0.00     0.241 C 
ATOM    115  O   VAL d   1     -23.251  58.414   0.958  0.00  0.00    -0.271 OA
ATOM    116  N   PHE d   1     -23.436  57.146  -0.907  0.00  0.00    -0.346 N 
ATOM    117  H64 PHE d   1     -23.955  56.441  -1.391  0.00  0.00     0.163 HD
BRANCH 116 118
ATOM    118  CA  PHE d   1     -22.213  57.713  -1.535  0.00  0.00     0.093 C 
ATOM    119  H65 PHE d   1     -21.862  58.508  -0.861  0.00  0.00     0.088 H 
BRANCH 118 120
ATOM    120  C   PHE d   1     -22.501  58.384  -2.857  0.00  0.00     0.241 C 
ATOM    121  O   PHE d   1     -22.637  57.738  -3.914  0.00  0.00    -0.271 OA
ATOM    122  N   GLY d   1     -22.602  59.701  -2.762  0.00  0.00    -0.351 N 
ATOM    123  H73 GLY d   1     -22.222  60.169  -1.964  0.00  0.00     0.163 HD
BRANCH 122 124
ATOM    124  CA  GLY d   1     -23.255  60.470  -3.797  0.00  0.00     0.069 C 
ATOM    125  H74 GLY d   1     -23.999  61.119  -3.312  0.00  0.00     0.078 H 
ATOM    126  H75 GLY d   1     -23.766  59.763  -4.467  0.00  0.00     0.078 H 
BRANCH 124 127
ATOM    127  C   GLY d   1     -22.367  61.346  -4.646  0.00  0.00     0.236 C 
ATOM    128  O   GLY d   1     -21.159  61.423  -4.413  0.00  0.00    -0.272 OA
ATOM    129  N   ALA d   1     -22.994  62.001  -5.633  0.00  0.00    -0.347 N 
ATOM    130  H76 ALA d   1     -23.960  61.795  -5.787  0.00  0.00     0.163 HD
BRANCH 129 131
ATOM    131  CA  ALA d   1     -22.356  63.009  -6.511  0.00  0.00     0.086 C 
ATOM    132  H77 ALA d   1     -22.183  62.518  -7.480  0.00  0.00     0.086 H 
BRANCH 131 133
ATOM    133  C   ALA d   1     -20.975  63.490  -6.008  0.00  0.00     0.240 C 
ATOM    134  O   ALA d   1     -20.819  63.969  -4.865  0.00  0.00    -0.271 OA
ATOM    135  N   THR d   1     -19.997  63.338  -6.901  0.00  0.00    -0.343 N 
ATOM    136  H81 THR d   1     -20.258  63.137  -7.845  0.00  0.00     0.163 HD
BRANCH 135 137
ATOM    137  CA  THR d   1     -18.566  63.444  -6.600  0.00  0.00     0.120 C 
ATOM    138  H82 THR d   1     -18.384  62.811  -5.719  0.00  0.00     0.093 H 
BRANCH 137 139
ATOM    139  C   THR d   1     -18.124  64.871  -6.192  0.00  0.00     0.199 C 
ATOM    140  O   THR d   1     -18.446  65.865  -6.860  0.00  0.00    -0.646 OA
ATOM    141  OXT THR d   1     -17.460  65.077  -5.162  0.00  0.00    -0.646 OA
ENDBRANCH 137 139
BRANCH 137 142
ATOM    142  CB  THR d   1     -17.711  62.820  -7.788  0.00  0.00     0.061 C 
ATOM    143  H83 THR d   1     -17.982  61.756  -7.859  0.00  0.00     0.086 H 
BRANCH 142 144
ATOM    144  OG1 THR d   1     -16.305  62.890  -7.490  0.00  0.00    -0.393 OA
ATOM    145  H84 THR d   1     -15.811  62.514  -8.209  0.00  0.00     0.210 HD
ENDBRANCH 142 144
BRANCH 142 146
ATOM    146  CG2 THR d   1     -18.031  63.469  -9.179  0.00  0.00    -0.050 C 
ATOM    147  H85 THR d   1     -17.411  62.997  -9.955  0.00  0.00     0.031 H 
ATOM    148  H86 THR d   1     -17.812  64.546  -9.140  0.00  0.00     0.031 H 
ATOM    149  H87 THR d   1     -19.094  63.319  -9.418  0.00  0.00     0.031 H 
ENDBRANCH 142 146
ENDBRANCH 137 142
ENDBRANCH 135 137
ENDBRANCH 131 133
BRANCH 131 150
ATOM    150  CB  ALA d   1     -23.312  64.205  -6.770  0.00  0.00    -0.049 C 
ATOM    151  H78 ALA d   1     -22.815  64.937  -7.423  0.00  0.00     0.030 H 
ATOM    152  H79 ALA d   1     -23.569  64.683  -5.813  0.00  0.00     0.030 H 
ATOM    153  H80 ALA d   1     -24.229  63.843  -7.257  0.00  0.00     0.030 H 
ENDBRANCH 131 150
ENDBRANCH 129 131
ENDBRANCH 124 127
ENDBRANCH 122 124
ENDBRANCH 118 120
BRANCH 118 154
ATOM    154  CB  PHE d   1     -21.074  56.691  -1.616  0.00  0.00    -0.014 C 
ATOM    155  H66 PHE d   1     -20.205  57.170  -2.090  0.00  0.00     0.043 H 
ATOM    156  H67 PHE d   1     -21.406  55.842  -2.232  0.00  0.00     0.043 H 
BRANCH 154 157
ATOM    157  CG  PHE d   1     -20.661  56.173  -0.266  0.00  0.00    -0.056 A 
ATOM    158  CD1 PHE d   1     -19.757  56.887   0.515  0.00  0.00    -0.077 A 
ATOM    159  CE1 PHE d   1     -19.399  56.437   1.759  0.00  0.00    -0.082 A 
ATOM    160  H68 PHE d   1     -19.331  57.809   0.135  0.00  0.00     0.084 H 
ATOM    161  CZ  PHE d   1     -19.971  55.246   2.250  0.00  0.00    -0.083 A 
ATOM    162  H70 PHE d   1     -18.685  56.990   2.358  0.00  0.00     0.083 H 
ATOM    163  CE2 PHE d   1     -20.880  54.543   1.490  0.00  0.00    -0.082 A 
ATOM    164  H72 PHE d   1     -19.694  54.881   3.232  0.00  0.00     0.083 H 
ATOM    165  CD2 PHE d   1     -21.226  55.001   0.245  0.00  0.00    -0.077 A 
ATOM    166  H71 PHE d   1     -21.320  53.630   1.875  0.00  0.00     0.083 H 
ATOM    167  H69 PHE d   1     -21.945  54.449  -0.349  0.00  0.00     0.084 H 
ENDBRANCH 154 157
ENDBRANCH 118 154
ENDBRANCH 116 118
ENDBRANCH 112 114
BRANCH 112 168
ATOM    168  CB  VAL d   1     -26.440  57.494   0.378  0.00  0.00    -0.033 C 
ATOM    169  H57 VAL d   1     -26.612  58.445   0.903  0.00  0.00     0.042 H 
BRANCH 168 170
ATOM    170  CG1 VAL d   1     -26.410  57.775  -1.120  0.00  0.00    -0.071 C 
ATOM    171  H58 VAL d   1     -27.374  58.203  -1.432  0.00  0.00     0.028 H 
ATOM    172  H59 VAL d   1     -26.232  56.837  -1.666  0.00  0.00     0.028 H 
ATOM    173  H60 VAL d   1     -25.603  58.488  -1.343  0.00  0.00     0.028 H 
ENDBRANCH 168 170
BRANCH 168 174
ATOM    174  CG2 VAL d   1     -27.558  56.547   0.710  0.00  0.00    -0.071 C 
ATOM    175  H61 VAL d   1     -27.566  56.355   1.793  0.00  0.00     0.028 H 
ATOM    176  H62 VAL d   1     -27.409  55.600   0.171  0.00  0.00     0.028 H 
ATOM    177  H63 VAL d   1     -28.518  56.993   0.410  0.00  0.00     0.028 H 
ENDBRANCH 168 174
ENDBRANCH 112 168
ENDBRANCH 110 112
ENDBRANCH  97 108
ENDBRANCH   1  94
TORSDOF 46
