REMARK  12 active torsions:
REMARK  status: ('A' for Active; 'I' for Inactive)
REMARK    1  A    between atoms: S18_11  and  C1_1 
REMARK    2  A    between atoms: N20_13  and  S18_11 
REMARK    3  A    between atoms: C23_16  and  N20_13 
REMARK    4  A    between atoms: C29_20  and  C24_17 
REMARK    5  A    between atoms: C26_19  and  O51_34 
REMARK       I    between atoms: N49_32  and  C29_20 
REMARK    6  A    between atoms: S31_21  and  C45_30 
REMARK    7  A    between atoms: O51_34  and  S31_21 
REMARK    8  A    between atoms: N49_32  and  C56_38 
REMARK    9  A    between atoms: C57_39  and  N49_32 
REMARK   10  A    between atoms: C57_39  and  C61_40 
REMARK   11  A    between atoms: C67_46  and  C57_39 
REMARK   12  A    between atoms: C64_43  and  C67_46 
ROOT
ATOM      1  C21 TAV d   1     -74.697  -8.809  90.642  0.00  0.00    -0.047 A 
ATOM      2  C22 TAV d   1     -74.646  -8.070  91.803  0.00  0.00    -0.053 A 
ATOM      3  C23 TAV d   1     -73.464  -8.022  92.567  0.00  0.00     0.058 A 
ATOM      4  C24 TAV d   1     -72.320  -8.750  92.148  0.00  0.00     0.062 A 
ATOM      5  C25 TAV d   1     -72.360  -9.510  90.959  0.00  0.00    -0.032 A 
ATOM      6  C26 TAV d   1     -73.556  -9.516  90.201  0.00  0.00     0.090 A 
ATOM      7  H9  TAV d   1     -75.614  -8.848  90.066  0.00  0.00     0.087 H 
ATOM      8  H10 TAV d   1     -75.522  -7.522  92.131  0.00  0.00     0.087 H 
ATOM      9  H11 TAV d   1     -71.495 -10.076  90.634  0.00  0.00     0.089 H 
ENDROOT
BRANCH   3  10
ATOM     10  N20 TAV d   1     -73.351  -7.258  93.784  0.00  0.00    -0.280 N 
ATOM     11  H8  TAV d   1     -72.467  -6.867  94.040  0.00  0.00     0.179 HD
BRANCH  10  12
ATOM     12  S18 TAV d   1     -74.678  -7.016  94.774  0.00  0.00     0.263 S 
ATOM     13  O19 TAV d   1     -75.838  -6.631  93.993  0.00  0.00    -0.200 OA
ATOM     14  O54 TAV d   1     -74.272  -6.200  95.910  0.00  0.00    -0.200 OA
BRANCH  12  15
ATOM     15  C1  TAV d   1     -74.972  -8.699  95.414  0.00  0.00     0.080 A 
ATOM     16  C2  TAV d   1     -73.975  -9.404  96.059  0.00  0.00    -0.050 A 
ATOM     17  C3  TAV d   1     -74.252 -10.738  96.556  0.00  0.00    -0.025 A 
ATOM     18  H1  TAV d   1     -72.993  -8.964  96.193  0.00  0.00     0.087 H 
ATOM     19  C4  TAV d   1     -75.571 -11.311  96.358  0.00  0.00    -0.026 A 
ATOM     20  C9  TAV d   1     -73.253 -11.518  97.251  0.00  0.00    -0.072 A 
ATOM     21  C5  TAV d   1     -76.567 -10.547  95.680  0.00  0.00    -0.071 A 
ATOM     22  C10 TAV d   1     -75.857 -12.638  96.853  0.00  0.00    -0.072 A 
ATOM     23  C6  TAV d   1     -76.284  -9.289  95.224  0.00  0.00    -0.059 A 
ATOM     24  H2  TAV d   1     -77.555 -10.966  95.525  0.00  0.00     0.084 H 
ATOM     25  H3  TAV d   1     -77.053  -8.723  94.712  0.00  0.00     0.085 H 
ATOM     26  C13 TAV d   1     -74.885 -13.354  97.512  0.00  0.00    -0.082 A 
ATOM     27  H5  TAV d   1     -76.840 -13.070  96.705  0.00  0.00     0.084 H 
ATOM     28  C14 TAV d   1     -73.556 -12.784  97.717  0.00  0.00    -0.082 A 
ATOM     29  H6  TAV d   1     -75.107 -14.348  97.882  0.00  0.00     0.083 H 
ATOM     30  H7  TAV d   1     -72.800 -13.359  98.240  0.00  0.00     0.083 H 
ATOM     31  H4  TAV d   1     -72.262 -11.108  97.408  0.00  0.00     0.084 H 
ENDBRANCH  12  15
ENDBRANCH  10  12
ENDBRANCH   3  10
BRANCH   4  32
ATOM     32  C29 TAV d   1     -71.085  -8.683  93.012  0.00  0.00     0.256 C 
ATOM     33  N49 TAV d   1     -70.090  -7.648  92.754  0.00  0.00    -0.337 N 
ATOM     34  O50 TAV d   1     -70.928  -9.488  93.921  0.00  0.00    -0.267 OA
BRANCH  33  35
ATOM     35  C56 TAV d   1     -69.618  -7.323  91.381  0.00  0.00    -0.015 C 
ATOM     36  H19 TAV d   1     -70.483  -7.233  90.708  0.00  0.00     0.056 H 
ATOM     37  H20 TAV d   1     -68.956  -8.124  91.022  0.00  0.00     0.056 H 
ATOM     38  H21 TAV d   1     -69.066  -6.372  91.398  0.00  0.00     0.056 H 
ENDBRANCH  33  35
BRANCH  33  39
ATOM     39  C57 TAV d   1     -68.976  -7.793  93.755  0.00  0.00     0.107 C 
ATOM     40  H22 TAV d   1     -69.431  -8.190  94.674  0.00  0.00     0.090 H 
BRANCH  39  41
ATOM     41  C61 TAV d   1     -68.410  -6.358  94.128  0.00  0.00     0.197 C 
ATOM     42  O62 TAV d   1     -68.989  -5.308  93.845  0.00  0.00    -0.646 OA
ATOM     43  O63 TAV d   1     -67.174  -6.304  94.818  0.00  0.00    -0.646 OA
ENDBRANCH  39  41
BRANCH  39  44
ATOM     44  C67 TAV d   1     -67.866  -8.884  93.321  0.00  0.00     0.044 C 
ATOM     45  H23 TAV d   1     -67.307  -8.468  92.470  0.00  0.00     0.053 H 
ATOM     46  H24 TAV d   1     -68.400  -9.791  93.001  0.00  0.00     0.053 H 
BRANCH  44  47
ATOM     47  C64 TAV d   1     -66.807  -9.317  94.423  0.00  0.00     0.175 C 
ATOM     48  O65 TAV d   1     -67.160  -9.857  95.475  0.00  0.00    -0.648 OA
ATOM     49  O66 TAV d   1     -65.439  -9.110  94.164  0.00  0.00    -0.648 OA
ENDBRANCH  44  47
ENDBRANCH  39  44
ENDBRANCH  33  39
ENDBRANCH   4  32
BRANCH   6  50
ATOM     50  O51 TAV d   1     -73.335 -10.114  88.764  0.00  0.00    -0.229 OA
BRANCH  50  51
ATOM     51  S31 TAV d   1     -72.553 -10.277  87.352  0.00  0.00     0.303 S 
ATOM     52  O52 TAV d   1     -73.496 -10.221  86.264  0.00  0.00    -0.193 OA
ATOM     53  O53 TAV d   1     -71.579 -11.368  87.532  0.00  0.00    -0.193 OA
BRANCH  51  54
ATOM     54  C45 TAV d   1     -71.694  -8.675  87.438  0.00  0.00     0.087 A 
ATOM     55  C42 TAV d   1     -70.326  -8.624  87.691  0.00  0.00    -0.049 A 
ATOM     56  C35 TAV d   1     -69.643  -7.339  87.737  0.00  0.00    -0.025 A 
ATOM     57  H17 TAV d   1     -69.770  -9.540  87.854  0.00  0.00     0.087 H 
ATOM     58  C34 TAV d   1     -70.409  -6.122  87.513  0.00  0.00    -0.026 A 
ATOM     59  C36 TAV d   1     -68.225  -7.239  87.994  0.00  0.00    -0.072 A 
ATOM     60  C33 TAV d   1     -69.729  -4.846  87.551  0.00  0.00    -0.072 A 
ATOM     61  C41 TAV d   1     -71.825  -6.220  87.253  0.00  0.00    -0.071 A 
ATOM     62  C32 TAV d   1     -68.379  -4.788  87.795  0.00  0.00    -0.082 A 
ATOM     63  H13 TAV d   1     -70.287  -3.932  87.386  0.00  0.00     0.084 H 
ATOM     64  C37 TAV d   1     -67.616  -6.005  88.022  0.00  0.00    -0.082 A 
ATOM     65  H12 TAV d   1     -67.878  -3.827  87.819  0.00  0.00     0.083 H 
ATOM     66  H15 TAV d   1     -66.552  -5.939  88.216  0.00  0.00     0.083 H 
ATOM     67  C46 TAV d   1     -72.455  -7.451  87.213  0.00  0.00    -0.059 A 
ATOM     68  H16 TAV d   1     -72.402  -5.318  87.087  0.00  0.00     0.084 H 
ATOM     69  H18 TAV d   1     -73.519  -7.506  87.013  0.00  0.00     0.086 H 
ATOM     70  H14 TAV d   1     -67.641  -8.136  88.165  0.00  0.00     0.084 H 
ENDBRANCH  51  54
ENDBRANCH  50  51
ENDBRANCH   6  50
TORSDOF 12
