REMARK  26 active torsions:
REMARK  status: ('A' for Active; 'I' for Inactive)
REMARK    1  A    between atoms: N_1  and  CA_2 
REMARK    2  A    between atoms: CA_2  and  C_3 
REMARK    3  A    between atoms: CA_2  and  CB_5 
REMARK       I    between atoms: C_3  and  N_8 
REMARK    4  A    between atoms: CB_5  and  OG1_6 
REMARK    5  A    between atoms: CB_5  and  CG2_7 
REMARK    6  A    between atoms: N_8  and  CA_9 
REMARK    7  A    between atoms: CA_9  and  C_10 
REMARK    8  A    between atoms: CA_9  and  CB_12 
REMARK       I    between atoms: C_10  and  N_16 
REMARK    9  A    between atoms: CB_12  and  CG_13 
REMARK       I    between atoms: CG_13  and  ND2_15 
REMARK   10  A    between atoms: N_16  and  CA_17 
REMARK   11  A    between atoms: CA_17  and  C_18 
REMARK   12  A    between atoms: CA_17  and  CB_20 
REMARK       I    between atoms: C_18  and  N_25 
REMARK   13  A    between atoms: CB_20  and  CG_21 
REMARK   14  A    between atoms: CG_21  and  CD_22 
REMARK   15  A    between atoms: N_25  and  CA_26 
REMARK   16  A    between atoms: CA_26  and  C_27 
REMARK   17  A    between atoms: CA_26  and  CB_29 
REMARK       I    between atoms: C_27  and  N_36 
REMARK   18  A    between atoms: CB_29  and  CG_30 
REMARK   19  A    between atoms: N_36  and  CA_37 
REMARK   20  A    between atoms: CA_37  and  C_38 
REMARK   21  A    between atoms: CA_37  and  CB_40 
REMARK       I    between atoms: C_38  and  N_48 
REMARK   22  A    between atoms: CB_40  and  CG_41 
REMARK   23  A    between atoms: CZ_46  and  OH_47 
REMARK   24  A    between atoms: N_48  and  CA_49 
REMARK   25  A    between atoms: CA_49  and  C_50 
REMARK   26  A    between atoms: CA_49  and  CB_52 
ROOT
ATOM      1  CA  PHE d   1      45.128  18.060  41.422  0.00  0.00     0.093 C 
ATOM      2  H23 PHE d   1      45.396  17.001  41.549  0.00  0.00     0.088 H 
ENDROOT
BRANCH   1   3
ATOM      3  N   PHE d   1      44.605  18.259  40.077  0.00  0.00    -0.346 N 
ATOM      4  C   GLU d   1      44.207  17.250  39.307  0.00  0.00     0.241 C 
ATOM      5  O   GLU d   1      44.320  16.063  39.612  0.00  0.00    -0.271 OA
ATOM      6  H22 PHE d   1      44.543  19.191  39.719  0.00  0.00     0.163 HD
BRANCH   4   7
ATOM      7  CA  GLU d   1      43.567  17.665  37.990  0.00  0.00     0.090 C 
ATOM      8  H17 GLU d   1      43.815  18.713  37.766  0.00  0.00     0.087 H 
BRANCH   7   9
ATOM      9  N   GLU d   1      43.983  16.819  36.881  0.00  0.00    -0.346 N 
ATOM     10  C   ASN d   1      45.125  16.867  36.221  0.00  0.00     0.241 C 
ATOM     11  O   ASN d   1      45.931  17.746  36.472  0.00  0.00    -0.271 OA
ATOM     12  H16 GLU d   1      43.329  16.122  36.586  0.00  0.00     0.163 HD
BRANCH  10  13
ATOM     13  CA  ASN d   1      45.320  15.784  35.141  0.00  0.00     0.097 C 
ATOM     14  H11 ASN d   1      45.498  14.827  35.653  0.00  0.00     0.088 H 
BRANCH  13  15
ATOM     15  N   ASN d   1      44.101  15.668  34.325  0.00  0.00    -0.345 N 
ATOM     16  C   THR d   1      43.148  14.734  34.369  0.00  0.00     0.251 C 
ATOM     17  O   THR d   1      42.126  14.907  33.700  0.00  0.00    -0.271 OA
ATOM     18  H10 ASN d   1      43.968  16.388  33.644  0.00  0.00     0.163 HD
BRANCH  16  19
ATOM     19  CA  THR d   1      43.233  13.455  35.238  0.00  0.00     0.199 C 
ATOM     20  H4  THR d   1      42.441  12.785  34.873  0.00  0.00     0.103 H 
BRANCH  19  21
ATOM     21  N   THR d   1      44.523  12.726  34.995  0.00  0.00    -0.064 N 
ATOM     22  H1  THR d   1      44.657  12.602  34.004  0.00  0.00     0.275 HD
ATOM     23  H2  THR d   1      44.489  11.824  35.444  0.00  0.00     0.275 HD
ATOM     24  H3  THR d   1      45.288  13.262  35.374  0.00  0.00     0.275 HD
ENDBRANCH  19  21
BRANCH  19  25
ATOM     25  CB  THR d   1      42.884  13.724  36.758  0.00  0.00     0.068 C 
ATOM     26  H5  THR d   1      43.277  14.721  37.005  0.00  0.00     0.086 H 
BRANCH  25  27
ATOM     27  OG1 THR d   1      43.459  12.784  37.676  0.00  0.00    -0.393 OA
ATOM     28  H6  THR d   1      43.205  13.012  38.562  0.00  0.00     0.210 HD
ENDBRANCH  25  27
BRANCH  25  29
ATOM     29  CG2 THR d   1      41.374  13.725  37.004  0.00  0.00    -0.050 C 
ATOM     30  H7  THR d   1      41.176  13.915  38.069  0.00  0.00     0.031 H 
ATOM     31  H8  THR d   1      40.956  12.747  36.722  0.00  0.00     0.031 H 
ATOM     32  H9  THR d   1      40.904  14.513  36.398  0.00  0.00     0.031 H 
ENDBRANCH  25  29
ENDBRANCH  19  25
ENDBRANCH  16  19
ENDBRANCH  13  15
BRANCH  13  33
ATOM     33  CB  ASN d   1      46.506  16.050  34.201  0.00  0.00     0.036 C 
ATOM     34  H12 ASN d   1      46.779  17.113  34.275  0.00  0.00     0.051 H 
ATOM     35  H13 ASN d   1      46.194  15.823  33.171  0.00  0.00     0.051 H 
BRANCH  33  36
ATOM     36  CG  ASN d   1      47.732  15.211  34.531  0.00  0.00     0.217 C 
ATOM     37  OD1 ASN d   1      47.671  13.980  34.589  0.00  0.00    -0.274 OA
ATOM     38  ND2 ASN d   1      48.864  15.883  34.736  0.00  0.00    -0.370 N 
ATOM     39  H14 ASN d   1      49.705  15.390  34.957  0.00  0.00     0.159 HD
ATOM     40  H15 ASN d   1      48.872  16.881  34.669  0.00  0.00     0.159 HD
ENDBRANCH  33  36
ENDBRANCH  13  33
ENDBRANCH  10  13
ENDBRANCH   7   9
BRANCH   7  41
ATOM     41  CB  GLU d   1      42.062  17.492  38.183  0.00  0.00    -0.029 C 
ATOM     42  H18 GLU d   1      41.767  18.005  39.110  0.00  0.00     0.037 H 
ATOM     43  H19 GLU d   1      41.842  16.418  38.273  0.00  0.00     0.037 H 
BRANCH  41  44
ATOM     44  CG  GLU d   1      41.250  18.053  37.047  0.00  0.00     0.018 C 
ATOM     45  H20 GLU d   1      41.847  18.005  36.124  0.00  0.00     0.049 H 
ATOM     46  H21 GLU d   1      41.002  19.101  37.269  0.00  0.00     0.049 H 
BRANCH  44  47
ATOM     47  CD  GLU d   1      39.967  17.277  36.843  0.00  0.00     0.172 C 
ATOM     48  OE1 GLU d   1      39.878  16.684  35.740  0.00  0.00    -0.648 OA
ATOM     49  OE2 GLU d   1      39.087  17.237  37.737  0.00  0.00    -0.648 OA
ENDBRANCH  44  47
ENDBRANCH  41  44
ENDBRANCH   7  41
ENDBRANCH   4   7
ENDBRANCH   1   3
BRANCH   1  50
ATOM     50  C   PHE d   1      44.000  18.357  42.411  0.00  0.00     0.241 C 
ATOM     51  O   PHE d   1      43.163  19.246  42.211  0.00  0.00    -0.271 OA
ATOM     52  N   TYR d   1      43.980  17.562  43.474  0.00  0.00    -0.346 N 
ATOM     53  H31 TYR d   1      44.646  16.817  43.512  0.00  0.00     0.163 HD
BRANCH  52  54
ATOM     54  CA  TYR d   1      43.052  17.702  44.591  0.00  0.00     0.093 C 
ATOM     55  H32 TYR d   1      42.222  18.356  44.286  0.00  0.00     0.088 H 
BRANCH  54  56
ATOM     56  C   TYR d   1      43.773  18.342  45.775  0.00  0.00     0.241 C 
ATOM     57  O   TYR d   1      44.598  17.657  46.372  0.00  0.00    -0.271 OA
ATOM     58  N   ALA d   1      43.469  19.601  46.084  0.00  0.00    -0.345 N 
ATOM     59  H40 ALA d   1      42.835  20.088  45.483  0.00  0.00     0.163 HD
BRANCH  58  60
ATOM     60  CA  ALA d   1      43.997  20.320  47.239  0.00  0.00     0.093 C 
ATOM     61  H41 ALA d   1      44.998  19.921  47.462  0.00  0.00     0.089 H 
BRANCH  60  62
ATOM     62  C   ALA d   1      43.106  20.116  48.458  0.00  0.00     0.196 C 
ATOM     63  O   ALA d   1      41.876  19.983  48.371  0.00  0.00    -0.646 OA
ATOM     64  OXT ALA d   1      43.663  20.081  49.557  0.00  0.00    -0.646 OA
ENDBRANCH  60  62
BRANCH  60  65
ATOM     65  CB  ALA d   1      44.122  21.837  46.968  0.00  0.00    -0.048 C 
ATOM     66  H42 ALA d   1      44.522  22.337  47.862  0.00  0.00     0.030 H 
ATOM     67  H43 ALA d   1      43.131  22.250  46.730  0.00  0.00     0.030 H 
ATOM     68  H44 ALA d   1      44.802  22.003  46.119  0.00  0.00     0.030 H 
ENDBRANCH  60  65
ENDBRANCH  58  60
ENDBRANCH  54  56
BRANCH  54  69
ATOM     69  CB  TYR d   1      42.482  16.331  44.977  0.00  0.00    -0.014 C 
ATOM     70  H33 TYR d   1      43.337  15.667  45.173  0.00  0.00     0.043 H 
ATOM     71  H34 TYR d   1      41.919  15.957  44.109  0.00  0.00     0.043 H 
BRANCH  69  72
ATOM     72  CG  TYR d   1      41.563  16.244  46.178  0.00  0.00    -0.056 A 
ATOM     73  CD1 TYR d   1      40.830  17.355  46.621  0.00  0.00    -0.074 A 
ATOM     74  CE1 TYR d   1      39.976  17.269  47.703  0.00  0.00    -0.051 A 
ATOM     75  H35 TYR d   1      40.936  18.301  46.103  0.00  0.00     0.084 H 
ATOM     76  CZ  TYR d   1      39.810  16.065  48.362  0.00  0.00     0.065 A 
ATOM     77  H37 TYR d   1      39.435  18.147  48.036  0.00  0.00     0.087 H 
ATOM     78  CE2 TYR d   1      40.501  14.923  47.946  0.00  0.00    -0.051 A 
ATOM     79  CD2 TYR d   1      41.388  15.029  46.843  0.00  0.00    -0.074 A 
ATOM     80  H38 TYR d   1      40.362  13.976  48.455  0.00  0.00     0.087 H 
ATOM     81  H36 TYR d   1      41.937  14.155  46.513  0.00  0.00     0.084 H 
BRANCH  76  82
ATOM     82  OH  TYR d   1      38.943  16.070  49.432  0.00  0.00    -0.361 OA
ATOM     83  H39 TYR d   1      38.583  16.942  49.542  0.00  0.00     0.217 HD
ENDBRANCH  76  82
ENDBRANCH  69  72
ENDBRANCH  54  69
ENDBRANCH  52  54
ENDBRANCH   1  50
BRANCH   1  84
ATOM     84  CB  PHE d   1      46.421  18.866  41.551  0.00  0.00    -0.014 C 
ATOM     85  H24 PHE d   1      46.662  18.975  42.619  0.00  0.00     0.043 H 
ATOM     86  H25 PHE d   1      46.261  19.860  41.107  0.00  0.00     0.043 H 
BRANCH  84  87
ATOM     87  CG  PHE d   1      47.586  18.213  40.860  0.00  0.00    -0.056 A 
ATOM     88  CD1 PHE d   1      47.682  18.230  39.472  0.00  0.00    -0.077 A 
ATOM     89  CE1 PHE d   1      48.724  17.634  38.808  0.00  0.00    -0.082 A 
ATOM     90  H26 PHE d   1      46.910  18.729  38.898  0.00  0.00     0.084 H 
ATOM     91  CZ  PHE d   1      49.698  16.987  39.546  0.00  0.00    -0.083 A 
ATOM     92  H28 PHE d   1      48.783  17.670  37.726  0.00  0.00     0.083 H 
ATOM     93  CE2 PHE d   1      49.628  16.927  40.942  0.00  0.00    -0.082 A 
ATOM     94  H30 PHE d   1      50.530  16.518  39.034  0.00  0.00     0.083 H 
ATOM     95  CD2 PHE d   1      48.564  17.555  41.595  0.00  0.00    -0.077 A 
ATOM     96  H29 PHE d   1      50.388  16.401  41.509  0.00  0.00     0.083 H 
ATOM     97  H27 PHE d   1      48.502  17.529  42.677  0.00  0.00     0.084 H 
ENDBRANCH  84  87
ENDBRANCH   1  84
TORSDOF 26
