REMARK  10 active torsions:
REMARK  status: ('A' for Active; 'I' for Inactive)
REMARK    1  A    between atoms: C3_3  and  O1_7 
REMARK    2  A    between atoms: C6_6  and  S1_9 
REMARK    3  A    between atoms: O1_7  and  C7_8 
REMARK    4  A    between atoms: S1_9  and  N_12 
REMARK    5  A    between atoms: N_12  and  C9_13 
REMARK    6  A    between atoms: N_12  and  C10_14 
REMARK    7  A    between atoms: C9_13  and  C12_19 
REMARK    8  A    between atoms: C10_14  and  C11_15 
REMARK       I    between atoms: C11_15  and  N1_16 
REMARK    9  A    between atoms: C12_19  and  C13_20 
REMARK   10  A    between atoms: C12_19  and  C14_21 
ROOT
ATOM      1  N   NGH d   1       7.165  -3.693  -8.677  0.00  0.00    -0.297 N 
ENDROOT
BRANCH   1   2
ATOM      2  S1  NGH d   1       7.769  -5.173  -7.924  0.00  0.00     0.261 S 
ATOM      3  O2  NGH d   1       9.251  -5.227  -7.996  0.00  0.00    -0.200 OA
ATOM      4  O3  NGH d   1       7.061  -6.365  -8.439  0.00  0.00    -0.200 OA
BRANCH   2   5
ATOM      5  C6  NGH d   1       7.314  -4.920  -6.207  0.00  0.00     0.079 A 
ATOM      6  C1  NGH d   1       7.898  -3.923  -5.432  0.00  0.00    -0.058 A 
ATOM      7  C2  NGH d   1       7.557  -3.751  -4.096  0.00  0.00    -0.049 A 
ATOM      8  H1  NGH d   1       8.635  -3.266  -5.880  0.00  0.00     0.086 H 
ATOM      9  C3  NGH d   1       6.609  -4.600  -3.525  0.00  0.00     0.068 A 
ATOM     10  H2  NGH d   1       8.021  -2.969  -3.506  0.00  0.00     0.087 H 
ATOM     11  C4  NGH d   1       6.007  -5.608  -4.291  0.00  0.00    -0.049 A 
ATOM     12  C5  NGH d   1       6.367  -5.753  -5.617  0.00  0.00    -0.058 A 
ATOM     13  H3  NGH d   1       5.268  -6.266  -3.848  0.00  0.00     0.087 H 
ATOM     14  H4  NGH d   1       5.902  -6.532  -6.211  0.00  0.00     0.086 H 
BRANCH   9  15
ATOM     15  O1  NGH d   1       6.189  -4.571  -2.210  0.00  0.00    -0.356 OA
BRANCH  15  16
ATOM     16  C7  NGH d   1       7.018  -3.918  -1.283  0.00  0.00     0.010 C 
ATOM     17  H5  NGH d   1       6.563  -3.972  -0.283  0.00  0.00     0.066 H 
ATOM     18  H6  NGH d   1       7.136  -2.864  -1.575  0.00  0.00     0.066 H 
ATOM     19  H7  NGH d   1       8.003  -4.406  -1.265  0.00  0.00     0.066 H 
ENDBRANCH  15  16
ENDBRANCH   9  15
ENDBRANCH   2   5
ENDBRANCH   1   2
BRANCH   1  20
ATOM     20  C9  NGH d   1       7.975  -2.861  -9.607  0.00  0.00     0.009 C 
ATOM     21  H8  NGH d   1       8.878  -2.525  -9.077  0.00  0.00     0.066 H 
ATOM     22  H9  NGH d   1       7.377  -1.986  -9.903  0.00  0.00     0.066 H 
BRANCH  20  23
ATOM     23  C12 NGH d   1       8.407  -3.606 -10.878  0.00  0.00    -0.045 C 
ATOM     24  H12 NGH d   1       7.761  -4.486 -11.016  0.00  0.00     0.041 H 
BRANCH  23  25
ATOM     25  C13 NGH d   1       9.851  -4.069 -10.793  0.00  0.00    -0.072 C 
ATOM     26  H13 NGH d   1      10.122  -4.597 -11.719  0.00  0.00     0.028 H 
ATOM     27  H14 NGH d   1       9.968  -4.749  -9.936  0.00  0.00     0.028 H 
ATOM     28  H15 NGH d   1      10.509  -3.197 -10.662  0.00  0.00     0.028 H 
ENDBRANCH  23  25
BRANCH  23  29
ATOM     29  C14 NGH d   1       8.236  -2.663 -12.060  0.00  0.00    -0.072 C 
ATOM     30  H16 NGH d   1       7.189  -2.332 -12.116  0.00  0.00     0.028 H 
ATOM     31  H17 NGH d   1       8.505  -3.187 -12.989  0.00  0.00     0.028 H 
ATOM     32  H18 NGH d   1       8.891  -1.789 -11.929  0.00  0.00     0.028 H 
ENDBRANCH  23  29
ENDBRANCH  20  23
ENDBRANCH   1  20
BRANCH   1  33
ATOM     33  C10 NGH d   1       5.848  -3.114  -8.243  0.00  0.00     0.083 C 
ATOM     34  H10 NGH d   1       5.239  -3.914  -7.796  0.00  0.00     0.080 H 
ATOM     35  H11 NGH d   1       5.331  -2.709  -9.126  0.00  0.00     0.080 H 
BRANCH  33  36
ATOM     36  C11 NGH d   1       6.017  -2.015  -7.236  0.00  0.00     0.287 C 
ATOM     37  N1  NGH d   1       5.012  -1.459  -6.570  0.00  0.00    -0.057 NA
ATOM     38  O4  NGH d   1       5.066  -0.441  -5.765  0.00  0.00    -0.058 OA
ATOM     39  O5  NGH d   1       7.199  -1.539  -7.093  0.00  0.00    -0.267 OA
ENDBRANCH  33  36
ENDBRANCH   1  33
TORSDOF 10
