REMARK  10 active torsions:
REMARK  status: ('A' for Active; 'I' for Inactive)
REMARK    1  A    between atoms: N6_6  and  C24_24 
REMARK    2  A    between atoms: C7_7  and  C8_8 
REMARK    3  A    between atoms: N9_9  and  C28_28 
REMARK    4  A    between atoms: C16_16  and  C17_17 
REMARK    5  A    between atoms: C21_21  and  C22_22 
REMARK    6  A    between atoms: C24_24  and  C35_35 
REMARK    7  A    between atoms: C25_25  and  O33_33 
REMARK    8  A    between atoms: C26_26  and  N31_31 
REMARK    9  A    between atoms: N31_31  and  C32_32 
REMARK   10  A    between atoms: O33_33  and  C34_34 
ROOT
ATOM      1  C24 STU d   1     -18.301  35.477  -3.459  0.00  0.00     0.168 C 
ATOM      2  C25 STU d   1     -16.936  35.811  -4.228  0.00  0.00     0.113 C 
ATOM      3  C26 STU d   1     -17.112  37.004  -5.207  0.00  0.00     0.134 C 
ATOM      4  C27 STU d   1     -17.971  38.083  -4.545  0.00  0.00     0.005 C 
ATOM      5  C28 STU d   1     -19.395  37.530  -4.245  0.00  0.00     0.115 C 
ATOM      6  O29 STU d   1     -19.428  36.151  -4.080  0.00  0.00    -0.333 OA
ATOM      7  H12 STU d   1     -16.608  34.920  -4.784  0.00  0.00     0.094 H 
ATOM      8  H13 STU d   1     -17.653  36.617  -6.083  0.00  0.00     0.088 H 
ATOM      9  H14 STU d   1     -18.052  38.947  -5.220  0.00  0.00     0.042 H 
ATOM     10  H15 STU d   1     -17.497  38.397  -3.603  0.00  0.00     0.042 H 
ATOM     11  H16 STU d   1     -19.999  37.763  -5.134  0.00  0.00     0.118 H 
ENDROOT
BRANCH   3  12
ATOM     12  N31 STU d   1     -15.881  37.639  -5.707  0.00  0.00    -0.072 N 
ATOM     13  H17 STU d   1     -15.226  37.786  -4.955  0.00  0.00     0.277 HD
ATOM     14  H18 STU d   1     -16.090  38.521  -6.148  0.00  0.00     0.277 HD
BRANCH  12  15
ATOM     15  C32 STU d   1     -15.338  36.684  -6.689  0.00  0.00     0.065 C 
ATOM     16  H19 STU d   1     -14.407  37.086  -7.115  0.00  0.00     0.067 H 
ATOM     17  H20 STU d   1     -16.072  36.528  -7.493  0.00  0.00     0.067 H 
ATOM     18  H21 STU d   1     -15.129  35.725  -6.192  0.00  0.00     0.067 H 
ENDBRANCH  12  15
ENDBRANCH   3  12
BRANCH   2  19
ATOM     19  O33 STU d   1     -15.935  36.196  -3.283  0.00  0.00    -0.384 OA
BRANCH  19  20
ATOM     20  C34 STU d   1     -14.670  35.524  -3.447  0.00  0.00     0.005 C 
ATOM     21  H22 STU d   1     -13.964  35.880  -2.682  0.00  0.00     0.066 H 
ATOM     22  H23 STU d   1     -14.267  35.741  -4.447  0.00  0.00     0.066 H 
ATOM     23  H24 STU d   1     -14.814  34.439  -3.337  0.00  0.00     0.066 H 
ENDBRANCH  19  20
ENDBRANCH   2  19
BRANCH   1  24
ATOM     24  N6  STU d   1     -18.229  35.797  -1.944  0.00  0.00    -0.308 N 
ATOM     25  C5  STU d   1     -17.474  35.093  -0.955  0.00  0.00     0.049 A 
ATOM     26  C4  STU d   1     -16.482  34.008  -1.111  0.00  0.00    -0.056 A 
ATOM     27  C23 STU d   1     -17.810  35.606   0.386  0.00  0.00     0.004 A 
ATOM     28  C3  STU d   1     -15.849  33.457   0.091  0.00  0.00    -0.081 A 
ATOM     29  H4  STU d   1     -16.228  33.628  -2.094  0.00  0.00     0.087 H 
ATOM     30  C2  STU d   1     -16.210  33.972   1.415  0.00  0.00    -0.082 A 
ATOM     31  H3  STU d   1     -15.112  32.667   0.001  0.00  0.00     0.083 H 
ATOM     32  C1  STU d   1     -17.190  35.048   1.581  0.00  0.00    -0.070 A 
ATOM     33  H2  STU d   1     -15.740  33.546   2.294  0.00  0.00     0.083 H 
ATOM     34  H1  STU d   1     -17.447  35.419   2.566  0.00  0.00     0.084 H 
ATOM     35  C22 STU d   1     -18.770  36.707   0.205  0.00  0.00     0.015 A 
ATOM     36  C7  STU d   1     -18.944  36.794  -1.236  0.00  0.00     0.077 A 
BRANCH  35  37
ATOM     37  C21 STU d   1     -19.471  37.663   1.109  0.00  0.00    -0.010 A 
ATOM     38  C17 STU d   1     -20.328  38.658   0.532  0.00  0.00     0.054 A 
ATOM     39  C18 STU d   1     -20.835  39.482   1.605  0.00  0.00     0.253 A 
ATOM     40  N19 STU d   1     -20.262  39.086   2.768  0.00  0.00    -0.353 N 
ATOM     41  O30 STU d   1     -21.651  40.389   1.455  0.00  0.00    -0.268 OA
ATOM     42  C20 STU d   1     -19.450  37.859   2.607  0.00  0.00     0.021 A 
ATOM     43  H9  STU d   1     -20.375  39.568   3.637  0.00  0.00     0.163 HD
ATOM     44  H10 STU d   1     -19.908  37.005   3.128  0.00  0.00     0.071 H 
ATOM     45  H11 STU d   1     -18.424  38.007   2.976  0.00  0.00     0.071 H 
BRANCH  38  46
ATOM     46  C16 STU d   1     -20.516  38.781  -0.927  0.00  0.00     0.022 A 
ATOM     47  C8  STU d   1     -19.809  37.848  -1.790  0.00  0.00     0.077 A 
ATOM     48  N9  STU d   1     -20.055  38.130  -3.130  0.00  0.00    -0.316 N 
ATOM     49  C10 STU d   1     -20.928  39.278  -3.194  0.00  0.00     0.048 A 
ATOM     50  C11 STU d   1     -21.519  39.987  -4.363  0.00  0.00    -0.056 A 
ATOM     51  C15 STU d   1     -21.230  39.723  -1.826  0.00  0.00     0.004 A 
ATOM     52  C12 STU d   1     -22.416  41.141  -4.128  0.00  0.00    -0.081 A 
ATOM     53  H5  STU d   1     -21.295  39.662  -5.373  0.00  0.00     0.087 H 
ATOM     54  C13 STU d   1     -22.719  41.583  -2.747  0.00  0.00    -0.082 A 
ATOM     55  H6  STU d   1     -22.853  41.665  -4.970  0.00  0.00     0.083 H 
ATOM     56  C14 STU d   1     -22.123  40.872  -1.580  0.00  0.00    -0.070 A 
ATOM     57  H7  STU d   1     -23.378  42.428  -2.584  0.00  0.00     0.083 H 
ATOM     58  H8  STU d   1     -22.342  41.193  -0.568  0.00  0.00     0.084 H 
ENDBRANCH  38  46
ENDBRANCH  35  37
ENDBRANCH   1  24
BRANCH   1  59
ATOM     59  C35 STU d   1     -18.633  33.986  -3.730  0.00  0.00    -0.028 C 
ATOM     60  H25 STU d   1     -18.673  33.811  -4.815  0.00  0.00     0.034 H 
ATOM     61  H26 STU d   1     -19.608  33.740  -3.283  0.00  0.00     0.034 H 
ATOM     62  H27 STU d   1     -17.854  33.350  -3.284  0.00  0.00     0.034 H 
ENDBRANCH   1  59
TORSDOF 10
