REMARK  2 active torsions:
REMARK  status: ('A' for Active; 'I' for Inactive)
REMARK    1  A    between atoms: C11_4  and  N14_1 
REMARK    2  A    between atoms: C5_14  and  C20_16 
ROOT
ATOM      1  C11 LY2 d   1     -18.362  35.240  -0.950  0.00  0.00     0.129 A 
ATOM      2  C1  LY2 d   1     -19.545  38.214   2.945  0.00  0.00    -0.081 A 
ATOM      3  C2  LY2 d   1     -18.711  37.093   2.824  0.00  0.00    -0.066 A 
ATOM      4  C6  LY2 d   1     -20.200  38.731   1.814  0.00  0.00    -0.069 A 
ATOM      5  C3  LY2 d   1     -18.558  36.496   1.562  0.00  0.00     0.049 A 
ATOM      6  C4  LY2 d   1     -19.224  37.014   0.442  0.00  0.00     0.102 A 
ATOM      7  C9  LY2 d   1     -17.682  35.335   1.401  0.00  0.00     0.188 A 
ATOM      8  C5  LY2 d   1     -20.042  38.138   0.544  0.00  0.00     0.009 A 
ATOM      9  O12 LY2 d   1     -19.087  36.376  -0.778  0.00  0.00    -0.297 OA
ATOM     10  C10 LY2 d   1     -17.643  34.713   0.063  0.00  0.00     0.010 A 
ATOM     11  O13 LY2 d   1     -16.987  34.834   2.277  0.00  0.00    -0.287 OA
ATOM     12  H9  LY2 d   1     -19.685  38.682   3.913  0.00  0.00     0.083 H 
ATOM     13  H10 LY2 d   1     -18.194  36.694   3.689  0.00  0.00     0.085 H 
ATOM     14  H11 LY2 d   1     -20.838  39.601   1.920  0.00  0.00     0.085 H 
ATOM     15  H17 LY2 d   1     -17.033  33.827  -0.107  0.00  0.00     0.095 H 
ENDROOT
BRANCH   1  16
ATOM     16  N14 LY2 d   1     -18.471  34.638  -2.293  0.00  0.00    -0.259 NA
ATOM     17  C15 LY2 d   1     -18.695  35.645  -3.345  0.00  0.00     0.005 C 
ATOM     18  C16 LY2 d   1     -19.209  34.942  -4.608  0.00  0.00     0.031 C 
ATOM     19  H1  LY2 d   1     -17.750  36.161  -3.569  0.00  0.00     0.059 H 
ATOM     20  H2  LY2 d   1     -19.440  36.378  -3.002  0.00  0.00     0.059 H 
ATOM     21  O17 LY2 d   1     -18.262  33.963  -5.029  0.00  0.00    -0.389 OA
ATOM     22  H5  LY2 d   1     -19.349  35.683  -5.408  0.00  0.00     0.076 H 
ATOM     23  H6  LY2 d   1     -20.169  34.452  -4.389  0.00  0.00     0.076 H 
ATOM     24  C18 LY2 d   1     -18.027  32.974  -4.029  0.00  0.00     0.031 C 
ATOM     25  C19 LY2 d   1     -17.486  33.642  -2.755  0.00  0.00     0.005 C 
ATOM     26  H7  LY2 d   1     -18.970  32.457  -3.798  0.00  0.00     0.076 H 
ATOM     27  H8  LY2 d   1     -17.291  32.246  -4.401  0.00  0.00     0.076 H 
ATOM     28  H3  LY2 d   1     -17.333  32.882  -1.974  0.00  0.00     0.059 H 
ATOM     29  H4  LY2 d   1     -16.530  34.140  -2.975  0.00  0.00     0.059 H 
ENDBRANCH   1  16
BRANCH   8  30
ATOM     30  C20 LY2 d   1     -20.712  38.742  -0.656  0.00  0.00    -0.023 A 
ATOM     31  C25 LY2 d   1     -22.045  39.222  -0.584  0.00  0.00    -0.072 A 
ATOM     32  C24 LY2 d   1     -22.659  39.798  -1.719  0.00  0.00    -0.082 A 
ATOM     33  H12 LY2 d   1     -22.596  39.147   0.347  0.00  0.00     0.084 H 
ATOM     34  C23 LY2 d   1     -21.941  39.896  -2.932  0.00  0.00    -0.083 A 
ATOM     35  H13 LY2 d   1     -23.678  40.164  -1.659  0.00  0.00     0.083 H 
ATOM     36  C22 LY2 d   1     -20.613  39.421  -3.017  0.00  0.00    -0.082 A 
ATOM     37  H16 LY2 d   1     -22.412  40.338  -3.803  0.00  0.00     0.083 H 
ATOM     38  C21 LY2 d   1     -20.004  38.847  -1.880  0.00  0.00    -0.072 A 
ATOM     39  H15 LY2 d   1     -20.065  39.497  -3.949  0.00  0.00     0.083 H 
ATOM     40  H14 LY2 d   1     -18.985  38.483  -1.943  0.00  0.00     0.084 H 
ENDBRANCH   8  30
TORSDOF 2
