REMARK  11 active torsions:
REMARK  status: ('A' for Active; 'I' for Inactive)
REMARK    1  A    between atoms: O3B_8  and  PG_1 
REMARK    2  A    between atoms: PB_5  and  O3B_8 
REMARK    3  A    between atoms: O3A_12  and  PB_5 
REMARK    4  A    between atoms: PA_9  and  O3A_12 
REMARK    5  A    between atoms: PA_9  and  O5_13 
REMARK    6  A    between atoms: O5_13  and  C5_14 
REMARK    7  A    between atoms: C5_14  and  C4_15 
REMARK    8  A    between atoms: C3_17  and  O3_18 
REMARK    9  A    between atoms: C2_19  and  O2_20 
REMARK   10  A    between atoms: C1_21  and  N9_22 
REMARK   11  A    between atoms: C6_26  and  N6_27 
ROOT
ATOM      1  C4  ATP d   1      73.593 -14.234   5.824  0.00  0.00     0.089 C 
ATOM      2  O4  ATP d   1      74.251 -15.146   4.876  0.00  0.00    -0.353 OA
ATOM      3  C3  ATP d   1      74.469 -12.974   5.740  0.00  0.00     0.091 C 
ATOM      4  C2  ATP d   1      74.846 -12.953   4.270  0.00  0.00     0.105 C 
ATOM      5  C1  ATP d   1      75.078 -14.400   3.958  0.00  0.00     0.139 C 
ATOM      6  H3  ATP d   1      73.727 -14.639   6.838  0.00  0.00     0.090 H 
ATOM      7  H4  ATP d   1      73.910 -12.066   6.012  0.00  0.00     0.091 H 
ATOM      8  H6  ATP d   1      73.993 -12.574   3.689  0.00  0.00     0.093 H 
ATOM      9  H8  ATP d   1      76.130 -14.616   4.197  0.00  0.00     0.122 H 
ENDROOT
BRANCH   1  10
ATOM     10  C5  ATP d   1      72.111 -14.163   5.642  0.00  0.00     0.058 C 
ATOM     11  H1  ATP d   1      71.786 -15.120   5.207  0.00  0.00     0.079 H 
ATOM     12  H2  ATP d   1      71.662 -14.041   6.639  0.00  0.00     0.079 H 
BRANCH  10  13
ATOM     13  O5  ATP d   1      71.598 -13.115   4.808  0.00  0.00    -0.287 OA
BRANCH  13  14
ATOM     14  PA  ATP d   1      70.298 -13.438   3.902  0.00  0.00     0.417 P 
ATOM     15  O1A ATP d   1      70.018 -12.156   3.224  0.00  0.00    -0.624 OA
ATOM     16  O2A ATP d   1      69.219 -13.936   4.804  0.00  0.00    -0.624 OA
BRANCH  14  17
ATOM     17  O3A ATP d   1      70.748 -14.482   2.711  0.00  0.00    -0.180 OA
BRANCH  17  18
ATOM     18  PB  ATP d   1      69.856 -14.813   1.346  0.00  0.00     0.428 P 
ATOM     19  O1B ATP d   1      69.573 -13.562   0.570  0.00  0.00    -0.624 OA
ATOM     20  O2B ATP d   1      70.784 -15.715   0.522  0.00  0.00    -0.624 OA
BRANCH  18  21
ATOM     21  O3B ATP d   1      68.434 -15.826   1.864  0.00  0.00    -0.173 OA
BRANCH  21  22
ATOM     22  PG  ATP d   1      66.805 -15.697   1.509  0.00  0.00     0.431 P 
ATOM     23  O1G ATP d   1      66.215 -14.710   2.645  0.00  0.00    -0.616 OA
ATOM     24  O2G ATP d   1      66.369 -17.230   1.914  0.00  0.00    -0.616 OA
ATOM     25  O3G ATP d   1      66.584 -15.347   0.113  0.00  0.00    -0.616 OA
ENDBRANCH  21  22
ENDBRANCH  18  21
ENDBRANCH  17  18
ENDBRANCH  14  17
ENDBRANCH  13  14
ENDBRANCH  10  13
ENDBRANCH   1  10
BRANCH   3  26
ATOM     26  O3  ATP d   1      75.589 -13.134   6.634  0.00  0.00    -0.390 OA
ATOM     27  H5  ATP d   1      75.270 -13.249   7.522  0.00  0.00     0.210 HD
ENDBRANCH   3  26
BRANCH   5  28
ATOM     28  N9  ATP d   1      74.886 -14.831   2.533  0.00  0.00    -0.294 N 
ATOM     29  C8  ATP d   1      73.768 -15.278   1.891  0.00  0.00     0.071 A 
ATOM     30  N7  ATP d   1      73.942 -15.588   0.621  0.00  0.00    -0.236 NA
ATOM     31  H9  ATP d   1      72.805 -15.372   2.390  0.00  0.00     0.144 H 
ATOM     32  C5  ATP d   1      75.281 -15.313   0.384  0.00  0.00     0.149 A 
ATOM     33  C6  ATP d   1      76.098 -15.437  -0.783  0.00  0.00     0.155 A 
ATOM     34  C4  ATP d   1      75.905 -14.849   1.554  0.00  0.00     0.167 A 
ATOM     35  N1  ATP d   1      77.438 -15.085  -0.682  0.00  0.00    -0.222 NA
ATOM     36  C2  ATP d   1      77.907 -14.646   0.507  0.00  0.00     0.091 A 
ATOM     37  N3  ATP d   1      77.235 -14.494   1.681  0.00  0.00    -0.222 NA
ATOM     38  H12 ATP d   1      78.957 -14.380   0.529  0.00  0.00     0.146 H 
BRANCH  33  39
ATOM     39  N6  ATP d   1      75.633 -15.862  -1.975  0.00  0.00    -0.382 N 
ATOM     40  H10 ATP d   1      76.270 -15.931  -2.781  0.00  0.00     0.157 HD
ATOM     41  H11 ATP d   1      74.641 -16.118  -2.079  0.00  0.00     0.157 HD
ENDBRANCH  33  39
ENDBRANCH   5  28
BRANCH   4  42
ATOM     42  O2  ATP d   1      75.975 -12.177   3.920  0.00  0.00    -0.388 OA
ATOM     43  H7  ATP d   1      76.119 -12.235   2.983  0.00  0.00     0.210 HD
ENDBRANCH   4  42
TORSDOF 11
