REMARK  6 active torsions:
REMARK  status: ('A' for Active; 'I' for Inactive)
REMARK    1  A    between atoms: C1_1  and  C23_17 
REMARK    2  A    between atoms: N35_26  and  C11_8 
REMARK    3  A    between atoms: C14_11  and  S1_10 
REMARK    4  A    between atoms: S1_10  and  N1_29 
REMARK    5  A    between atoms: C17_14  and  N35_26 
REMARK    6  A    between atoms: C23_17  and  C24_18 
ROOT
ATOM      1  C1  628 d   1      -1.241  31.410   9.762  0.00  0.00     0.031 A 
ATOM      2  C2  628 d   1      -0.556  30.348   9.126  0.00  0.00     0.000 A 
ATOM      3  N3  628 d   1       0.401  30.590   8.250  0.00  0.00    -0.313 N 
ATOM      4  C4  628 d   1       0.765  31.851   7.886  0.00  0.00     0.136 A 
ATOM      5  C5  628 d   1       0.148  33.009   8.446  0.00  0.00    -0.037 A 
ATOM      6  C6  628 d   1      -0.889  32.761   9.403  0.00  0.00    -0.064 A 
ATOM      7  C10 628 d   1       1.096  29.655   7.599  0.00  0.00     0.030 A 
ATOM      8  C11 628 d   1       1.967  30.436   6.806  0.00  0.00     0.146 A 
ATOM      9  N12 628 d   1       1.788  31.788   6.966  0.00  0.00    -0.212 NA
ATOM     10  H1  628 d   1      -0.822  29.319   9.362  0.00  0.00     0.113 H 
ATOM     11  H2  628 d   1       0.446  34.018   8.164  0.00  0.00     0.089 H 
ATOM     12  H3  628 d   1      -1.414  33.598   9.862  0.00  0.00     0.085 H 
ATOM     13  H4  628 d   1       1.013  28.571   7.662  0.00  0.00     0.118 H 
ENDROOT
BRANCH   8  14
ATOM     14  N35 628 d   1       2.894  29.664   5.964  0.00  0.00    -0.340 N 
ATOM     15  H12 628 d   1       2.869  29.845   4.950  0.00  0.00     0.167 HD
BRANCH  14  16
ATOM     16  C17 628 d   1       3.837  28.675   6.433  0.00  0.00     0.033 A 
ATOM     17  C16 628 d   1       4.704  28.166   5.423  0.00  0.00    -0.056 A 
ATOM     18  C15 628 d   1       5.652  27.191   5.752  0.00  0.00    -0.058 A 
ATOM     19  H6  628 d   1       4.629  28.532   4.405  0.00  0.00     0.087 H 
ATOM     20  C14 628 d   1       5.745  26.715   7.099  0.00  0.00     0.079 A 
ATOM     21  H5  628 d   1       6.314  26.797   4.989  0.00  0.00     0.086 H 
ATOM     22  C19 628 d   1       4.893  27.204   8.140  0.00  0.00    -0.058 A 
ATOM     23  C18 628 d   1       3.930  28.194   7.803  0.00  0.00    -0.056 A 
ATOM     24  H8  628 d   1       4.979  26.831   9.154  0.00  0.00     0.086 H 
ATOM     25  H7  628 d   1       3.267  28.589   8.564  0.00  0.00     0.087 H 
BRANCH  20  26
ATOM     26  S1  628 d   1       6.951  25.495   7.453  0.00  0.00     0.256 S 
ATOM     27  O34 628 d   1       7.581  25.180   6.197  0.00  0.00    -0.201 OA
ATOM     28  O1  628 d   1       7.781  25.956   8.538  0.00  0.00    -0.201 OA
BRANCH  26  29
ATOM     29  N1  628 d   1       6.229  24.131   7.988  0.00  0.00    -0.324 N 
ATOM     30  H13 628 d   1       6.783  23.336   8.234  0.00  0.00     0.169 HD
ATOM     31  H14 628 d   1       5.233  24.091   8.069  0.00  0.00     0.169 HD
ENDBRANCH  26  29
ENDBRANCH  20  26
ENDBRANCH  14  16
ENDBRANCH   8  14
BRANCH   1  32
ATOM     32  C23 628 d   1      -2.295  31.108  10.775  0.00  0.00     0.197 C 
ATOM     33  O33 628 d   1      -3.009  31.991  11.256  0.00  0.00    -0.286 OA
BRANCH  32  34
ATOM     34  C24 628 d   1      -2.462  29.671  11.262  0.00  0.00     0.058 A 
ATOM     35  C25 628 d   1      -1.443  28.995  12.106  0.00  0.00     0.050 A 
ATOM     36  C26 628 d   1      -1.636  27.671  12.546  0.00  0.00    -0.061 A 
ATOM     37 CL2  628 d   1      -0.302  29.639  12.507  0.00  0.00    -0.083 Cl
ATOM     38  C27 628 d   1      -2.788  26.943  12.170  0.00  0.00    -0.080 A 
ATOM     39  H9  628 d   1      -0.892  27.204  13.181  0.00  0.00     0.086 H 
ATOM     40  C28 628 d   1      -3.793  27.537  11.355  0.00  0.00    -0.061 A 
ATOM     41  H10 628 d   1      -2.908  25.919  12.507  0.00  0.00     0.083 H 
ATOM     42  C29 628 d   1      -3.640  28.875  10.885  0.00  0.00     0.050 A 
ATOM     43  H11 628 d   1      -4.678  26.970  11.091  0.00  0.00     0.086 H 
ATOM     44 CL1  628 d   1      -4.626  29.418  10.101  0.00  0.00    -0.083 Cl
ENDBRANCH  32  34
ENDBRANCH   1  32
TORSDOF 6
