REMARK  12 active torsions:
REMARK  status: ('A' for Active; 'I' for Inactive)
REMARK    1  A    between atoms: B_1  and  OB1_2 
REMARK    2  A    between atoms: B_1  and  OB2_3 
REMARK    3  A    between atoms: B_1  and  C7_4 
REMARK    4  A    between atoms: C7_4  and  N10_5 
REMARK       I    between atoms: N10_5  and  C11_6 
REMARK    5  A    between atoms: C11_6  and  C13_8 
REMARK    6  A    between atoms: C13_8  and  C14_12 
REMARK    7  A    between atoms: N16_9  and  O17_10 
REMARK    8  A    between atoms: O17_10  and  C18_11 
REMARK    9  A    between atoms: C18_11  and  C19_18 
REMARK   10  A    between atoms: C18_11  and  C20_19 
REMARK   11  A    between atoms: C18_11  and  C21_20 
REMARK   12  A    between atoms: C17_15  and  N18_16 
ROOT
ATOM      1  C13 CB4 d   1      20.405  54.170  35.605  0.00  0.00     0.180 C 
ATOM      2  N16 CB4 d   1      20.129  53.025  36.158  0.00  0.00    -0.125 NA
ENDROOT
BRANCH   1   3
ATOM      3  C11 CB4 d   1      20.188  54.439  34.133  0.00  0.00     0.274 C 
ATOM      4  N10 CB4 d   1      18.901  54.475  33.796  0.00  0.00    -0.359 N 
ATOM      5  H5  CB4 d   1      18.227  54.328  34.520  0.00  0.00     0.161 HD
ATOM      6  O12 CB4 d   1      21.018  54.535  33.273  0.00  0.00    -0.266 OA
BRANCH   4   7
ATOM      7  C7  CB4 d   1      18.395  54.718  32.420  0.00  0.00     0.030 C 
ATOM      8  H3  CB4 d   1      18.967  55.542  31.969  0.00  0.00     0.057 H 
ATOM      9  H4  CB4 d   1      18.533  53.805  31.822  0.00  0.00     0.057 H 
BRANCH   7  10
ATOM     10  B   CB4 d   1      16.821  55.111  32.427  0.00  0.00     0.510 B 
BRANCH  10  11
ATOM     11  OB1 CB4 d   1      16.543  56.238  33.350  0.00  0.00    -0.436 OA
ATOM     12  H1  CB4 d   1      16.732  55.970  34.242  0.00  0.00     0.184 HD
ENDBRANCH  10  11
BRANCH  10  13
ATOM     13  OB2 CB4 d   1      15.955  53.950  32.797  0.00  0.00    -0.436 OA
ATOM     14  H2  CB4 d   1      16.130  53.225  32.208  0.00  0.00     0.184 HD
ENDBRANCH  10  13
ENDBRANCH   7  10
ENDBRANCH   4   7
ENDBRANCH   1   3
BRANCH   1  15
ATOM     15  C14 CB4 d   1      21.179  55.176  36.373  0.00  0.00     0.102 A 
ATOM     16  C15 CB4 d   1      21.882  56.181  35.758  0.00  0.00    -0.011 A 
ATOM     17  S16 CB4 d   1      22.611  57.171  36.954  0.00  0.00    -0.062 SA
ATOM     18  H6  CB4 d   1      21.964  56.327  34.682  0.00  0.00     0.098 H 
ATOM     19  C17 CB4 d   1      21.933  56.161  38.161  0.00  0.00     0.164 A 
ATOM     20  N19 CB4 d   1      21.191  55.176  37.729  0.00  0.00    -0.222 NA
BRANCH  19  21
ATOM     21  N18 CB4 d   1      22.146  56.359  39.482  0.00  0.00    -0.378 N 
ATOM     22  H7  CB4 d   1      21.718  55.727  40.173  0.00  0.00     0.158 HD
ATOM     23  H8  CB4 d   1      22.736  57.142  39.797  0.00  0.00     0.158 HD
ENDBRANCH  19  21
ENDBRANCH   1  15
BRANCH   2  24
ATOM     24  O17 CB4 d   1      19.580  52.043  35.349  0.00  0.00    -0.234 OA
BRANCH  24  25
ATOM     25  C18 CB4 d   1      19.538  50.730  36.022  0.00  0.00     0.171 C 
BRANCH  25  26
ATOM     26  C19 CB4 d   1      20.997  50.275  36.120  0.00  0.00    -0.036 C 
ATOM     27  H9  CB4 d   1      21.043  49.294  36.616  0.00  0.00     0.032 H 
ATOM     28  H10 CB4 d   1      21.571  51.008  36.705  0.00  0.00     0.032 H 
ATOM     29  H11 CB4 d   1      21.425  50.196  35.110  0.00  0.00     0.032 H 
ENDBRANCH  25  26
BRANCH  25  30
ATOM     30  C20 CB4 d   1      18.849  49.790  35.053  0.00  0.00    -0.036 C 
ATOM     31  H12 CB4 d   1      18.785  48.786  35.498  0.00  0.00     0.032 H 
ATOM     32  H13 CB4 d   1      19.426  49.740  34.118  0.00  0.00     0.032 H 
ATOM     33  H14 CB4 d   1      17.836  50.161  34.840  0.00  0.00     0.032 H 
ENDBRANCH  25  30
BRANCH  25  34
ATOM     34  C21 CB4 d   1      18.770  50.866  37.315  0.00  0.00     0.211 C 
ATOM     35  O2A CB4 d   1      19.335  50.303  38.290  0.00  0.00    -0.646 OA
ATOM     36  O2B CB4 d   1      17.837  51.730  37.414  0.00  0.00    -0.646 OA
ENDBRANCH  25  34
ENDBRANCH  24  25
ENDBRANCH   2  24
TORSDOF 12
