REMARK  8 active torsions:
REMARK  status: ('A' for Active; 'I' for Inactive)
REMARK    1  A    between atoms: CAE_5  and  CAG_6 
REMARK    2  A    between atoms: CAG_6  and  CAH_7 
REMARK       I    between atoms: CAH_7  and  NAJ_9 
REMARK    3  A    between atoms: NAJ_9  and  CAK_10 
REMARK    4  A    between atoms: CAK_10  and  B_11 
REMARK    5  A    between atoms: CAK_10  and  CAL_14 
REMARK    6  A    between atoms: B_11  and  OAT_12 
REMARK    7  A    between atoms: B_11  and  OAO_13 
REMARK    8  A    between atoms: CAR_19  and  CAU_20 
ROOT
ATOM      1  CAK SM2 d   1      23.263  54.711   9.000  0.00  0.00     0.071 C 
ATOM      2  H7  SM2 d   1      23.934  54.474   8.161  0.00  0.00     0.072 H 
ENDROOT
BRANCH   1   3
ATOM      3  NAJ SM2 d   1      24.077  55.211  10.120  0.00  0.00    -0.355 N 
ATOM      4  CAH SM2 d   1      25.354  54.964  10.367  0.00  0.00     0.222 C 
ATOM      5  OAI SM2 d   1      26.151  54.569   9.519  0.00  0.00    -0.273 OA
ATOM      6  H6  SM2 d   1      23.610  55.808  10.772  0.00  0.00     0.162 HD
BRANCH   4   7
ATOM      7  CAG SM2 d   1      25.785  55.198  11.815  0.00  0.00     0.039 C 
ATOM      8  H4  SM2 d   1      24.927  55.612  12.364  0.00  0.00     0.055 H 
ATOM      9  H5  SM2 d   1      26.064  54.227  12.249  0.00  0.00     0.055 H 
BRANCH   7  10
ATOM     10  CAE SM2 d   1      26.947  56.138  11.987  0.00  0.00    -0.009 A 
ATOM     11  CAF SM2 d   1      27.989  56.470  11.241  0.00  0.00    -0.069 A 
ATOM     12  CAC SM2 d   1      28.826  57.363  11.706  0.00  0.00    -0.076 A 
ATOM     13  H1  SM2 d   1      28.146  56.012  10.265  0.00  0.00     0.085 H 
ATOM     14  CAB SM2 d   1      28.603  57.897  12.914  0.00  0.00    -0.045 A 
ATOM     15  H2  SM2 d   1      29.691  57.667  11.119  0.00  0.00     0.084 H 
ATOM     16  SAD SM2 d   1      27.138  57.109  13.418  0.00  0.00    -0.106 SA
ATOM     17  H3  SM2 d   1      29.193  58.640  13.448  0.00  0.00     0.095 H 
ENDBRANCH   7  10
ENDBRANCH   4   7
ENDBRANCH   1   3
BRANCH   1  18
ATOM     18  B   SM2 d   1      22.299  55.897   8.488  0.00  0.00     0.519 B 
BRANCH  18  19
ATOM     19  OAT SM2 d   1      21.603  56.345   9.711  0.00  0.00    -0.436 OA
ATOM     20  H8  SM2 d   1      22.241  56.502  10.397  0.00  0.00     0.184 HD
ENDBRANCH  18  19
BRANCH  18  21
ATOM     21  OAO SM2 d   1      23.265  56.926   8.016  0.00  0.00    -0.436 OA
ATOM     22  H9  SM2 d   1      23.911  57.086   8.693  0.00  0.00     0.184 HD
ENDBRANCH  18  21
ENDBRANCH   1  18
BRANCH   1  23
ATOM     23  CAL SM2 d   1      22.624  53.387   9.431  0.00  0.00    -0.038 A 
ATOM     24  CAQ SM2 d   1      21.285  53.281   9.789  0.00  0.00    -0.059 A 
ATOM     25  CAR SM2 d   1      20.737  52.067  10.216  0.00  0.00     0.041 A 
ATOM     26  H10 SM2 d   1      20.651  54.159   9.736  0.00  0.00     0.086 H 
ATOM     27  CAS SM2 d   1      21.533  50.934  10.295  0.00  0.00    -0.066 A 
ATOM     28  CAN SM2 d   1      22.869  51.037   9.937  0.00  0.00    -0.081 A 
ATOM     29  H13 SM2 d   1      21.120  49.989  10.629  0.00  0.00     0.085 H 
ATOM     30  CAM SM2 d   1      23.413  52.239   9.503  0.00  0.00    -0.075 A 
ATOM     31  H12 SM2 d   1      23.503  50.160   9.997  0.00  0.00     0.083 H 
ATOM     32  H11 SM2 d   1      24.458  52.285   9.218  0.00  0.00     0.084 H 
BRANCH  25  33
ATOM     33  CAU SM2 d   1      19.244  51.986  10.571  0.00  0.00     0.209 C 
ATOM     34  OAW SM2 d   1      18.483  52.832  10.101  0.00  0.00    -0.644 OA
ATOM     35  OAV SM2 d   1      18.810  51.083  11.296  0.00  0.00    -0.644 OA
ENDBRANCH  25  33
ENDBRANCH   1  23
TORSDOF 8
