REMARK  31 active torsions:
REMARK  status: ('A' for Active; 'I' for Inactive)
REMARK    1  A    between atoms: S1_1  and  C2_2 
REMARK    2  A    between atoms: S1_1  and  C99_47 
REMARK    3  A    between atoms: C2_2  and  C5_3 
REMARK    4  A    between atoms: C5_3  and  C8_4 
REMARK    5  A    between atoms: C8_4  and  N10_5 
REMARK    6  A    between atoms: C8_4  and  C37_17 
REMARK       I    between atoms: N10_5  and  C12_6 
REMARK    7  A    between atoms: C12_6  and  C14_8 
REMARK    8  A    between atoms: C14_8  and  N16_9 
REMARK    9  A    between atoms: C14_8  and  C24_13 
REMARK       I    between atoms: N16_9  and  C18_10 
REMARK   10  A    between atoms: C18_10  and  C20_12 
REMARK   11  A    between atoms: C24_13  and  C27_14 
REMARK   12  A    between atoms: C27_14  and  C29_15 
REMARK   13  A    between atoms: C27_14  and  C33_16 
REMARK       I    between atoms: C37_17  and  N39_19 
REMARK   14  A    between atoms: N39_19  and  C41_20 
REMARK   15  A    between atoms: C41_20  and  C43_21 
REMARK   16  A    between atoms: C41_20  and  C92_43 
REMARK   17  A    between atoms: C43_21  and  O45_22 
REMARK   18  A    between atoms: C43_21  and  C47_23 
REMARK   19  A    between atoms: C49_24  and  C59_29 
REMARK       I    between atoms: C59_29  and  N61_31 
REMARK   20  A    between atoms: N61_31  and  C63_32 
REMARK   21  A    between atoms: C63_32  and  C65_33 
REMARK   22  A    between atoms: C63_32  and  C75_36 
REMARK   23  A    between atoms: C65_33  and  C67_34 
REMARK   24  A    between atoms: C65_33  and  C71_35 
REMARK       I    between atoms: C75_36  and  N77_38 
REMARK   25  A    between atoms: N77_38  and  C79_39 
REMARK   26  A    between atoms: C79_39  and  C82_40 
REMARK   27  A    between atoms: C82_40  and  C85_41 
REMARK   28  A    between atoms: C85_41  and  C88_42 
REMARK   29  A    between atoms: C92_43  and  C95_44 
REMARK   30  A    between atoms: C95_44  and  C97_45 
REMARK   31  A    between atoms: C95_44  and  C98_46 
ROOT
ATOM      1  C41 24O d   1      30.837   6.123  14.872  0.00  0.00     0.037 C 
ATOM      2  H22 24O d   1      30.434   6.732  14.049  0.00  0.00     0.076 H 
ENDROOT
BRANCH   1   3
ATOM      3  N39 24O d   1      29.739   5.798  15.780  0.00  0.00    -0.352 N 
ATOM      4  C37 MET d   1      28.467   6.032  15.395  0.00  0.00     0.240 C 
ATOM      5  O38 MET d   1      28.155   6.481  14.298  0.00  0.00    -0.271 OA
ATOM      6  H21 24O d   1      29.929   5.405  16.680  0.00  0.00     0.163 HD
BRANCH   4   7
ATOM      7  C8  MET d   1      27.415   5.700  16.422  0.00  0.00     0.090 C 
ATOM      8  H5  MET d   1      27.643   4.734  16.897  0.00  0.00     0.087 H 
BRANCH   7   9
ATOM      9  C5  MET d   1      25.991   5.622  15.764  0.00  0.00    -0.030 C 
ATOM     10  H3  MET d   1      25.640   6.644  15.556  0.00  0.00     0.037 H 
ATOM     11  H4  MET d   1      26.066   5.061  14.821  0.00  0.00     0.037 H 
BRANCH   9  12
ATOM     12  C2  MET d   1      24.960   4.915  16.686  0.00  0.00    -0.021 C 
ATOM     13  H1  MET d   1      25.354   3.935  16.994  0.00  0.00     0.049 H 
ATOM     14  H2  MET d   1      24.779   5.534  17.577  0.00  0.00     0.049 H 
BRANCH  12  15
ATOM     15  S1  MET d   1      23.381   4.681  15.770  0.00  0.00    -0.173 SA
BRANCH  15  16
ATOM     16  C99 MET d   1      22.719   6.332  16.046  0.00  0.00    -0.035 C 
ATOM     17  H59 MET d   1      21.735   6.418  15.562  0.00  0.00     0.041 H 
ATOM     18  H60 MET d   1      23.404   7.078  15.618  0.00  0.00     0.041 H 
ATOM     19  H61 MET d   1      22.613   6.509  17.127  0.00  0.00     0.041 H 
ENDBRANCH  15  16
ENDBRANCH  12  15
ENDBRANCH   9  12
ENDBRANCH   7   9
BRANCH   7  20
ATOM     20  N10 MET d   1      27.478   6.779  17.418  0.00  0.00    -0.346 N 
ATOM     21  C12 LEU d   1      27.131   6.528  18.703  0.00  0.00     0.241 C 
ATOM     22  O13 LEU d   1      26.780   5.427  19.108  0.00  0.00    -0.271 OA
ATOM     23  H6  MET d   1      27.776   7.695  17.148  0.00  0.00     0.163 HD
BRANCH  21  24
ATOM     24  C14 LEU d   1      27.179   7.697  19.676  0.00  0.00     0.089 C 
ATOM     25  H7  LEU d   1      27.004   8.624  19.110  0.00  0.00     0.087 H 
BRANCH  24  26
ATOM     26  N16 LEU d   1      26.179   7.551  20.708  0.00  0.00    -0.348 N 
ATOM     27  C18 ACE d   1      24.868   7.561  20.392  0.00  0.00     0.214 C 
ATOM     28  O19 ACE d   1      24.439   7.698  19.255  0.00  0.00    -0.274 OA
ATOM     29  H8  LEU d   1      26.460   7.442  21.661  0.00  0.00     0.163 HD
BRANCH  27  30
ATOM     30  C20 ACE d   1      23.910   7.390  21.540  0.00  0.00    -0.003 C 
ATOM     31  H9  ACE d   1      22.877   7.415  21.162  0.00  0.00     0.040 H 
ATOM     32  H10 ACE d   1      24.055   8.206  22.264  0.00  0.00     0.040 H 
ATOM     33  H11 ACE d   1      24.097   6.425  22.033  0.00  0.00     0.040 H 
ENDBRANCH  27  30
ENDBRANCH  24  26
BRANCH  24  34
ATOM     34  C24 LEU d   1      28.519   7.805  20.442  0.00  0.00    -0.035 C 
ATOM     35  H12 LEU d   1      28.826   6.797  20.757  0.00  0.00     0.037 H 
ATOM     36  H13 LEU d   1      28.366   8.436  21.330  0.00  0.00     0.037 H 
BRANCH  34  37
ATOM     37  C27 LEU d   1      29.641   8.416  19.593  0.00  0.00    -0.059 C 
ATOM     38  H14 LEU d   1      29.878   7.840  18.686  0.00  0.00     0.038 H 
BRANCH  37  39
ATOM     39  C29 LEU d   1      30.831   8.562  20.591  0.00  0.00    -0.073 C 
ATOM     40  H15 LEU d   1      31.696   8.998  20.069  0.00  0.00     0.028 H 
ATOM     41  H16 LEU d   1      31.102   7.572  20.986  0.00  0.00     0.028 H 
ATOM     42  H17 LEU d   1      30.535   9.219  21.422  0.00  0.00     0.028 H 
ENDBRANCH  37  39
BRANCH  37  43
ATOM     43  C33 LEU d   1      29.214   9.883  19.313  0.00  0.00    -0.073 C 
ATOM     44  H18 LEU d   1      28.368   9.891  18.610  0.00  0.00     0.028 H 
ATOM     45  H19 LEU d   1      30.060  10.434  18.876  0.00  0.00     0.028 H 
ATOM     46  H20 LEU d   1      28.911  10.363  20.255  0.00  0.00     0.028 H 
ENDBRANCH  37  43
ENDBRANCH  34  37
ENDBRANCH  24  34
ENDBRANCH  21  24
ENDBRANCH   7  20
ENDBRANCH   4   7
ENDBRANCH   1   3
BRANCH   1  47
ATOM     47  C43 24O d   1      31.501   4.884  14.264  0.00  0.00     0.059 C 
ATOM     48  H23 24O d   1      32.325   5.228  13.621  0.00  0.00     0.086 H 
BRANCH  47  49
ATOM     49  O45 24O d   1      32.067   4.032  15.303  0.00  0.00    -0.393 OA
ATOM     50  H24 24O d   1      32.720   4.520  15.790  0.00  0.00     0.210 HD
ENDBRANCH  47  49
BRANCH  47  51
ATOM     51  C47 24O d   1      30.520   4.081  13.383  0.00  0.00    -0.009 C 
ATOM     52  C49 24O d   1      31.384   3.200  12.447  0.00  0.00     0.036 C 
ATOM     53  C51 24O d   1      30.587   1.889  12.259  0.00  0.00     0.002 C 
ATOM     54  H26 24O d   1      32.386   3.019  12.863  0.00  0.00     0.056 H 
ATOM     55  C54 24O d   1      29.521   1.949  13.330  0.00  0.00     0.128 C 
ATOM     56  H27 24O d   1      31.236   1.013  12.403  0.00  0.00     0.045 H 
ATOM     57  H28 24O d   1      30.133   1.848  11.258  0.00  0.00     0.045 H 
ATOM     58  C55 24O d   1      29.583   3.162  14.203  0.00  0.00    -0.003 C 
ATOM     59  O58 24O d   1      28.674   1.078  13.467  0.00  0.00    -0.298 OA
ATOM     60  H29 24O d   1      28.589   3.615  14.334  0.00  0.00     0.045 H 
ATOM     61  H30 24O d   1      30.012   2.927  15.188  0.00  0.00     0.045 H 
ATOM     62  H25 24O d   1      29.908   4.778  12.791  0.00  0.00     0.045 H 
BRANCH  52  63
ATOM     63  C59 24O d   1      31.458   3.883  11.078  0.00  0.00     0.223 C 
ATOM     64  O60 24O d   1      30.538   4.603  10.735  0.00  0.00    -0.273 OA
ATOM     65  N61 VAL d   1      32.529   3.672  10.314  0.00  0.00    -0.347 N 
ATOM     66  H31 VAL d   1      33.280   3.094  10.632  0.00  0.00     0.163 HD
BRANCH  65  67
ATOM     67  C63 VAL d   1      32.576   4.289   9.038  0.00  0.00     0.092 C 
ATOM     68  H32 VAL d   1      32.329   5.353   9.166  0.00  0.00     0.088 H 
BRANCH  67  69
ATOM     69  C65 VAL d   1      34.034   4.214   8.434  0.00  0.00    -0.033 C 
ATOM     70  H33 VAL d   1      34.729   4.699   9.136  0.00  0.00     0.042 H 
BRANCH  69  71
ATOM     71  C67 VAL d   1      33.996   5.052   7.109  0.00  0.00    -0.071 C 
ATOM     72  H34 VAL d   1      34.990   5.038   6.638  0.00  0.00     0.028 H 
ATOM     73  H35 VAL d   1      33.714   6.090   7.340  0.00  0.00     0.028 H 
ATOM     74  H36 VAL d   1      33.258   4.616   6.420  0.00  0.00     0.028 H 
ENDBRANCH  69  71
BRANCH  69  75
ATOM     75  C71 VAL d   1      34.546   2.739   8.218  0.00  0.00    -0.071 C 
ATOM     76  H37 VAL d   1      34.549   2.207   9.181  0.00  0.00     0.028 H 
ATOM     77  H38 VAL d   1      35.567   2.761   7.809  0.00  0.00     0.028 H 
ATOM     78  H39 VAL d   1      33.880   2.219   7.514  0.00  0.00     0.028 H 
ENDBRANCH  69  75
ENDBRANCH  67  69
BRANCH  67  79
ATOM     79  C75 VAL d   1      31.521   3.682   8.130  0.00  0.00     0.240 C 
ATOM     80  O76 VAL d   1      31.208   2.508   8.289  0.00  0.00    -0.271 OA
ATOM     81  N77 LYT d   1      30.980   4.494   7.195  0.00  0.00    -0.359 N 
ATOM     82  H40 LYT d   1      31.279   5.444   7.107  0.00  0.00     0.162 HD
BRANCH  81  83
ATOM     83  C79 LYT d   1      29.950   3.952   6.319  0.00  0.00    -0.005 C 
ATOM     84  H41 LYT d   1      30.099   2.866   6.226  0.00  0.00     0.064 H 
ATOM     85  H42 LYT d   1      30.044   4.421   5.329  0.00  0.00     0.064 H 
BRANCH  83  86
ATOM     86  C82 LYT d   1      28.519   4.216   6.863  0.00  0.00    -0.051 C 
ATOM     87  H43 LYT d   1      28.555   4.308   7.959  0.00  0.00     0.035 H 
ATOM     88  H44 LYT d   1      27.861   3.379   6.586  0.00  0.00     0.035 H 
BRANCH  86  89
ATOM     89  C85 LYT d   1      27.971   5.521   6.256  0.00  0.00    -0.067 C 
ATOM     90  H45 LYT d   1      27.956   5.438   5.159  0.00  0.00     0.032 H 
ATOM     91  H46 LYT d   1      28.616   6.362   6.551  0.00  0.00     0.032 H 
BRANCH  89  92
ATOM     92  C88 LYT d   1      26.540   5.764   6.773  0.00  0.00    -0.076 C 
ATOM     93  H47 LYT d   1      26.147   6.696   6.340  0.00  0.00     0.027 H 
ATOM     94  H48 LYT d   1      26.555   5.847   7.870  0.00  0.00     0.027 H 
ATOM     95  H49 LYT d   1      25.896   4.923   6.478  0.00  0.00     0.027 H 
ENDBRANCH  89  92
ENDBRANCH  86  89
ENDBRANCH  83  86
ENDBRANCH  81  83
ENDBRANCH  67  79
ENDBRANCH  65  67
ENDBRANCH  52  63
ENDBRANCH  47  51
ENDBRANCH   1  47
BRANCH   1  96
ATOM     96  C92 24O d   1      31.886   6.952  15.639  0.00  0.00    -0.041 C 
ATOM     97  H50 24O d   1      32.769   7.108  15.002  0.00  0.00     0.036 H 
ATOM     98  H51 24O d   1      32.183   6.415  16.552  0.00  0.00     0.036 H 
BRANCH  96  99
ATOM     99  C95 24O d   1      31.272   8.325  16.021  0.00  0.00    -0.059 C 
ATOM    100  H52 24O d   1      30.321   8.177  16.553  0.00  0.00     0.038 H 
BRANCH  99 101
ATOM    101  C97 24O d   1      32.265   9.092  16.913  0.00  0.00    -0.073 C 
ATOM    102  H53 24O d   1      31.835  10.066  17.187  0.00  0.00     0.028 H 
ATOM    103  H54 24O d   1      33.206   9.248  16.365  0.00  0.00     0.028 H 
ATOM    104  H55 24O d   1      32.464   8.510  17.825  0.00  0.00     0.028 H 
ENDBRANCH  99 101
BRANCH  99 105
ATOM    105  C98 24O d   1      31.039   9.147  14.731  0.00  0.00    -0.073 C 
ATOM    106  H56 24O d   1      30.331   8.614  14.080  0.00  0.00     0.028 H 
ATOM    107  H57 24O d   1      31.995   9.279  14.203  0.00  0.00     0.028 H 
ATOM    108  H58 24O d   1      30.626  10.132  14.993  0.00  0.00     0.028 H 
ENDBRANCH  99 105
ENDBRANCH  96  99
ENDBRANCH   1  96
TORSDOF 31
