REMARK  26 active torsions:
REMARK  status: ('A' for Active; 'I' for Inactive)
REMARK    1  A    between atoms: N1_1  and  C3_2 
REMARK       I    between atoms: N1_1  and  C49_22 
REMARK    2  A    between atoms: C3_2  and  C5_3 
REMARK    3  A    between atoms: C3_2  and  C36_18 
REMARK    4  A    between atoms: C5_3  and  O7_4 
REMARK    5  A    between atoms: C5_3  and  C9_5 
REMARK    6  A    between atoms: C11_6  and  C22_10 
REMARK       I    between atoms: C22_10  and  N24_12 
REMARK    7  A    between atoms: N24_12  and  C26_13 
REMARK    8  A    between atoms: C26_13  and  C28_14 
REMARK    9  A    between atoms: C26_13  and  C32_15 
REMARK   10  A    between atoms: C36_18  and  C39_19 
REMARK   11  A    between atoms: C39_19  and  C41_20 
REMARK   12  A    between atoms: C39_19  and  C45_21 
REMARK   13  A    between atoms: C49_22  and  C51_24 
REMARK   14  A    between atoms: C51_24  and  N53_25 
REMARK   15  A    between atoms: C51_24  and  C88_42 
REMARK       I    between atoms: N53_25  and  C55_26 
REMARK   16  A    between atoms: C55_26  and  C57_28 
REMARK   17  A    between atoms: C57_28  and  N59_29 
REMARK   18  A    between atoms: C57_28  and  C78_39 
REMARK       I    between atoms: N59_29  and  C61_30 
REMARK   19  A    between atoms: C61_30  and  C63_32 
REMARK   20  A    between atoms: C63_32  and  N65_33 
REMARK   21  A    between atoms: C63_32  and  C68_34 
REMARK   22  A    between atoms: C68_34  and  C71_35 
REMARK   23  A    between atoms: C71_35  and  C74_36 
REMARK   24  A    between atoms: C78_39  and  C80_40 
REMARK   25  A    between atoms: C78_39  and  C84_41 
REMARK   26  A    between atoms: C88_42  and  C91_43 
REMARK       I    between atoms: C91_43  and  N93_45 
ROOT
ATOM      1  N1  24M d   1      29.606   5.986   9.635  0.00  0.00    -0.352 N 
ATOM      2  H1  24M d   1      28.749   5.494   9.787  0.00  0.00     0.163 HD
ATOM      3  C49 ASN d   1      29.631   7.324   9.540  0.00  0.00     0.241 C 
ATOM      4  O50 ASN d   1      30.623   7.946   9.211  0.00  0.00    -0.271 OA
ENDROOT
BRANCH   1   5
ATOM      5  C3  24M d   1      30.869   5.275   9.509  0.00  0.00     0.037 C 
ATOM      6  H2  24M d   1      31.678   5.997   9.697  0.00  0.00     0.076 H 
BRANCH   5   7
ATOM      7  C5  24M d   1      31.095   4.690   8.095  0.00  0.00     0.059 C 
ATOM      8  H3  24M d   1      32.067   4.176   8.104  0.00  0.00     0.086 H 
BRANCH   7   9
ATOM      9  O7  24M d   1      30.088   3.735   7.743  0.00  0.00    -0.393 OA
ATOM     10  H4  24M d   1      30.262   3.400   6.871  0.00  0.00     0.210 HD
ENDBRANCH   7   9
BRANCH   7  11
ATOM     11  C9  24M d   1      31.139   5.759   7.024  0.00  0.00    -0.015 C 
ATOM     12  C11 24M d   1      31.675   5.019   5.756  0.00  0.00     0.029 C 
ATOM     13  C13 24M d   1      30.820   5.483   4.582  0.00  0.00    -0.053 C 
ATOM     14  H6  24M d   1      31.543   3.935   5.888  0.00  0.00     0.055 H 
ATOM     15  C16 24M d   1      29.450   5.841   5.184  0.00  0.00    -0.064 C 
ATOM     16  H7  24M d   1      30.715   4.677   3.841  0.00  0.00     0.034 H 
ATOM     17  H8  24M d   1      31.271   6.365   4.103  0.00  0.00     0.034 H 
ATOM     18  C19 24M d   1      29.689   6.185   6.682  0.00  0.00    -0.059 C 
ATOM     19  H9  24M d   1      28.764   4.986   5.097  0.00  0.00     0.033 H 
ATOM     20  H10 24M d   1      29.022   6.709   4.660  0.00  0.00     0.033 H 
ATOM     21  H11 24M d   1      29.565   7.266   6.845  0.00  0.00     0.033 H 
ATOM     22  H12 24M d   1      28.976   5.635   7.313  0.00  0.00     0.033 H 
ATOM     23  H5  24M d   1      31.763   6.617   7.316  0.00  0.00     0.045 H 
BRANCH  12  24
ATOM     24  C22 24M d   1      33.146   5.288   5.536  0.00  0.00     0.223 C 
ATOM     25  O23 24M d   1      33.608   6.391   5.778  0.00  0.00    -0.273 OA
ATOM     26  N24 ALA d   1      33.892   4.276   5.078  0.00  0.00    -0.347 N 
ATOM     27  H13 ALA d   1      33.501   3.366   4.938  0.00  0.00     0.163 HD
BRANCH  26  28
ATOM     28  C26 ALA d   1      35.301   4.549   4.789  0.00  0.00     0.092 C 
ATOM     29  H14 ALA d   1      35.740   5.130   5.614  0.00  0.00     0.089 H 
BRANCH  28  30
ATOM     30  C28 ALA d   1      36.064   3.239   4.636  0.00  0.00    -0.048 C 
ATOM     31  H15 ALA d   1      37.121   3.454   4.419  0.00  0.00     0.030 H 
ATOM     32  H16 ALA d   1      35.631   2.657   3.809  0.00  0.00     0.030 H 
ATOM     33  H17 ALA d   1      35.991   2.661   5.569  0.00  0.00     0.030 H 
ENDBRANCH  28  30
BRANCH  28  34
ATOM     34  C32 ALA d   1      35.384   5.347   3.512  0.00  0.00     0.196 C 
ATOM     35  O33 ALA d   1      34.411   5.939   3.053  0.00  0.00    -0.646 OA
ATOM     36  O34 ALA d   1      36.568   5.360   2.906  0.00  0.00    -0.646 OA
ENDBRANCH  28  34
ENDBRANCH  26  28
ENDBRANCH  12  24
ENDBRANCH   7  11
ENDBRANCH   5   7
BRANCH   5  37
ATOM     37  C36 24M d   1      30.951   4.170  10.595  0.00  0.00    -0.041 C 
ATOM     38  H18 24M d   1      31.884   3.600  10.475  0.00  0.00     0.036 H 
ATOM     39  H19 24M d   1      30.091   3.490  10.499  0.00  0.00     0.036 H 
BRANCH  37  40
ATOM     40  C39 24M d   1      30.928   4.845  11.980  0.00  0.00    -0.059 C 
ATOM     41  H20 24M d   1      30.126   5.598  12.000  0.00  0.00     0.038 H 
BRANCH  40  42
ATOM     42  C41 24M d   1      32.286   5.539  12.234  0.00  0.00    -0.073 C 
ATOM     43  H21 24M d   1      32.272   6.022  13.222  0.00  0.00     0.028 H 
ATOM     44  H22 24M d   1      32.461   6.298  11.458  0.00  0.00     0.028 H 
ATOM     45  H23 24M d   1      33.092   4.791  12.203  0.00  0.00     0.028 H 
ENDBRANCH  40  42
BRANCH  40  46
ATOM     46  C45 24M d   1      30.667   3.800  13.091  0.00  0.00    -0.073 C 
ATOM     47  H24 24M d   1      29.701   3.306  12.910  0.00  0.00     0.028 H 
ATOM     48  H25 24M d   1      30.645   4.303  14.069  0.00  0.00     0.028 H 
ATOM     49  H26 24M d   1      31.470   3.048  13.083  0.00  0.00     0.028 H 
ENDBRANCH  40  46
ENDBRANCH  37  40
ENDBRANCH   5  37
ENDBRANCH   1   5
BRANCH   3  50
ATOM     50  C51 ASN d   1      28.366   8.030   9.864  0.00  0.00     0.097 C 
ATOM     51  H27 ASN d   1      27.514   7.487   9.428  0.00  0.00     0.088 H 
BRANCH  50  52
ATOM     52  N53 ASN d   1      28.280   8.024  11.310  0.00  0.00    -0.346 N 
ATOM     53  C55 VAL d   1      27.080   7.927  11.859  0.00  0.00     0.241 C 
ATOM     54  O56 VAL d   1      26.042   7.922  11.203  0.00  0.00    -0.271 OA
ATOM     55  H28 ASN d   1      29.102   8.091  11.876  0.00  0.00     0.163 HD
BRANCH  53  56
ATOM     56  C57 VAL d   1      27.025   7.831  13.352  0.00  0.00     0.092 C 
ATOM     57  H29 VAL d   1      27.873   8.384  13.783  0.00  0.00     0.088 H 
BRANCH  56  58
ATOM     58  N59 VAL d   1      25.780   8.478  13.792  0.00  0.00    -0.346 N 
ATOM     59  C61 GLU d   1      25.888   9.451  14.714  0.00  0.00     0.249 C 
ATOM     60  O62 GLU d   1      26.880   9.585  15.398  0.00  0.00    -0.271 OA
ATOM     61  H30 VAL d   1      24.892   8.206  13.422  0.00  0.00     0.163 HD
BRANCH  59  62
ATOM     62  C63 GLU d   1      24.751  10.396  14.891  0.00  0.00     0.176 C 
ATOM     63  H31 GLU d   1      25.171  11.412  14.867  0.00  0.00     0.099 H 
BRANCH  62  64
ATOM     64  N65 GLU d   1      23.796  10.299  13.781  0.00  0.00    -0.066 N 
ATOM     65  H32 GLU d   1      23.040  10.949  13.930  0.00  0.00     0.275 HD
ATOM     66  H33 GLU d   1      23.428   9.362  13.735  0.00  0.00     0.275 HD
ATOM     67  H34 GLU d   1      24.263  10.520  12.915  0.00  0.00     0.275 HD
ENDBRANCH  62  64
BRANCH  62  68
ATOM     68  C68 GLU d   1      24.061  10.228  16.264  0.00  0.00    -0.021 C 
ATOM     69  H35 GLU d   1      24.686   9.603  16.919  0.00  0.00     0.037 H 
ATOM     70  H36 GLU d   1      23.079   9.751  16.130  0.00  0.00     0.037 H 
BRANCH  68  71
ATOM     71  C71 GLU d   1      23.878  11.636  16.901  0.00  0.00     0.018 C 
ATOM     72  H37 GLU d   1      24.197  12.397  16.173  0.00  0.00     0.049 H 
ATOM     73  H38 GLU d   1      24.509  11.701  17.799  0.00  0.00     0.049 H 
BRANCH  71  74
ATOM     74  C74 GLU d   1      22.428  11.915  17.299  0.00  0.00     0.172 C 
ATOM     75  O75 GLU d   1      21.599  11.028  17.428  0.00  0.00    -0.648 OA
ATOM     76  O76 GLU d   1      22.117  13.205  17.509  0.00  0.00    -0.648 OA
ENDBRANCH  71  74
ENDBRANCH  68  71
ENDBRANCH  62  68
ENDBRANCH  59  62
ENDBRANCH  56  58
BRANCH  56  77
ATOM     77  C78 VAL d   1      27.155   6.351  13.781  0.00  0.00    -0.033 C 
ATOM     78  H39 VAL d   1      28.041   5.931  13.282  0.00  0.00     0.042 H 
BRANCH  77  79
ATOM     79  C80 VAL d   1      27.354   6.206  15.327  0.00  0.00    -0.071 C 
ATOM     80  H40 VAL d   1      27.442   5.141  15.587  0.00  0.00     0.028 H 
ATOM     81  H41 VAL d   1      26.490   6.641  15.850  0.00  0.00     0.028 H 
ATOM     82  H42 VAL d   1      28.270   6.734  15.630  0.00  0.00     0.028 H 
ENDBRANCH  77  79
BRANCH  77  83
ATOM     83  C84 VAL d   1      25.930   5.550  13.340  0.00  0.00    -0.071 C 
ATOM     84  H43 VAL d   1      25.795   5.655  12.253  0.00  0.00     0.028 H 
ATOM     85  H44 VAL d   1      25.038   5.929  13.859  0.00  0.00     0.028 H 
ATOM     86  H45 VAL d   1      26.076   4.489  13.590  0.00  0.00     0.028 H 
ENDBRANCH  77  83
ENDBRANCH  56  77
ENDBRANCH  53  56
ENDBRANCH  50  52
BRANCH  50  87
ATOM     87  C88 ASN d   1      28.353   9.515   9.332  0.00  0.00     0.036 C 
ATOM     88  H46 ASN d   1      28.730   9.525   8.299  0.00  0.00     0.051 H 
ATOM     89  H47 ASN d   1      29.010  10.126   9.968  0.00  0.00     0.051 H 
BRANCH  87  90
ATOM     90  C91 ASN d   1      26.942  10.121   9.351  0.00  0.00     0.217 C 
ATOM     91  O92 ASN d   1      26.112   9.768   8.527  0.00  0.00    -0.274 OA
ATOM     92  N93 ASN d   1      26.663  11.038  10.310  0.00  0.00    -0.370 N 
ATOM     93  H48 ASN d   1      25.755  11.455  10.354  0.00  0.00     0.159 HD
ATOM     94  H49 ASN d   1      27.365  11.298  10.973  0.00  0.00     0.159 HD
ENDBRANCH  87  90
ENDBRANCH  50  87
ENDBRANCH   3  50
TORSDOF 26
