REMARK  8 active torsions:
REMARK  status: ('A' for Active; 'I' for Inactive)
REMARK    1  A    between atoms: C25_1  and  C24_2 
REMARK    2  A    between atoms: C24_2  and  O23_3 
REMARK    3  A    between atoms: O23_3  and  C15_4 
REMARK    4  A    between atoms: C13_5  and  C11_6 
REMARK       I    between atoms: C11_6  and  N10_8 
REMARK    5  A    between atoms: N10_8  and  C7_9 
REMARK    6  A    between atoms: C7_9  and  B_10 
REMARK    7  A    between atoms: B_10  and  O1_11 
REMARK    8  A    between atoms: B_10  and  O2_12 
ROOT
ATOM      1  C15 NBF d   1      25.085  54.303  13.010  0.00  0.00     0.085 A 
ATOM      2  C13 NBF d   1      25.671  55.061  11.983  0.00  0.00     0.076 A 
ATOM      3  C14 NBF d   1      26.625  56.101  12.378  0.00  0.00    -0.007 A 
ATOM      4  C16 NBF d   1      26.931  56.344  13.796  0.00  0.00    -0.025 A 
ATOM      5  C18 NBF d   1      27.854  57.355  14.155  0.00  0.00    -0.072 A 
ATOM      6  C20 NBF d   1      28.493  58.131  13.225  0.00  0.00    -0.082 A 
ATOM      7  C22 NBF d   1      28.242  57.939  11.832  0.00  0.00    -0.082 A 
ATOM      8  C17 NBF d   1      27.329  56.950  11.419  0.00  0.00    -0.071 A 
ATOM      9  C19 NBF d   1      26.282  55.540  14.762  0.00  0.00    -0.070 A 
ATOM     10  C21 NBF d   1      25.393  54.548  14.414  0.00  0.00    -0.049 A 
ATOM     11  H11 NBF d   1      28.063  57.521  15.206  0.00  0.00     0.084 H 
ATOM     12  H12 NBF d   1      29.192  58.894  13.547  0.00  0.00     0.083 H 
ATOM     13  H13 NBF d   1      28.752  58.551  11.097  0.00  0.00     0.083 H 
ATOM     14  H14 NBF d   1      27.143  56.814  10.360  0.00  0.00     0.084 H 
ATOM     15  H15 NBF d   1      26.492  55.711  15.812  0.00  0.00     0.085 H 
ATOM     16  H16 NBF d   1      24.922  53.949  15.184  0.00  0.00     0.087 H 
ENDROOT
BRANCH   2  17
ATOM     17  C11 NBF d   1      25.213  54.882  10.518  0.00  0.00     0.254 C 
ATOM     18  O12 NBF d   1      26.029  54.584   9.646  0.00  0.00    -0.268 OA
ATOM     19  N10 NBF d   1      23.893  55.076  10.254  0.00  0.00    -0.360 N 
ATOM     20  H6  NBF d   1      23.296  55.312  11.020  0.00  0.00     0.161 HD
BRANCH  19  21
ATOM     21  C7  NBF d   1      23.293  54.965   8.945  0.00  0.00     0.030 C 
ATOM     22  H7  NBF d   1      23.455  53.943   8.572  0.00  0.00     0.057 H 
ATOM     23  H8  NBF d   1      23.786  55.683   8.273  0.00  0.00     0.057 H 
BRANCH  21  24
ATOM     24  B   NBF d   1      21.742  55.260   8.942  0.00  0.00     0.510 B 
BRANCH  24  25
ATOM     25  O1  NBF d   1      21.418  56.308   9.860  0.00  0.00    -0.436 OA
ATOM     26  H9  NBF d   1      21.661  56.044  10.739  0.00  0.00     0.184 HD
ENDBRANCH  24  25
BRANCH  24  27
ATOM     27  O2  NBF d   1      21.019  54.062   9.302  0.00  0.00    -0.436 OA
ATOM     28  H10 NBF d   1      21.235  53.367   8.691  0.00  0.00     0.184 HD
ENDBRANCH  24  27
ENDBRANCH  21  24
ENDBRANCH  19  21
ENDBRANCH   2  17
BRANCH   1  29
ATOM     29  O23 NBF d   1      24.202  53.308  12.665  0.00  0.00    -0.350 OA
BRANCH  29  30
ATOM     30  C24 NBF d   1      24.656  51.949  12.601  0.00  0.00     0.023 C 
ATOM     31  H4  NBF d   1      25.747  51.888  12.731  0.00  0.00     0.074 H 
ATOM     32  H5  NBF d   1      24.161  51.328  13.362  0.00  0.00     0.074 H 
BRANCH  30  33
ATOM     33  C25 NBF d   1      24.273  51.560  11.294  0.00  0.00    -0.056 C 
ATOM     34  H1  NBF d   1      24.572  50.516  11.120  0.00  0.00     0.030 H 
ATOM     35  H2  NBF d   1      24.768  52.211  10.558  0.00  0.00     0.030 H 
ATOM     36  H3  NBF d   1      23.182  51.651  11.189  0.00  0.00     0.030 H 
ENDBRANCH  30  33
ENDBRANCH  29  30
ENDBRANCH   1  29
TORSDOF 8
