REMARK  9 active torsions:
REMARK  status: ('A' for Active; 'I' for Inactive)
REMARK    1  A    between atoms: C3_13  and  C4_1 
REMARK    2  A    between atoms: C2_4  and  C3_13 
REMARK    3  A    between atoms: C10_7  and  C15_9 
REMARK    4  A    between atoms: C11_8  and  C12_10 
REMARK    5  A    between atoms: C3_13  and  O16_14 
REMARK    6  A    between atoms: C3_13  and  N18_16 
REMARK    7  A    between atoms: O16_14  and  C17_15 
REMARK       I    between atoms: N18_16  and  C19_17 
REMARK    8  A    between atoms: C19_17  and  C20_19 
REMARK    9  A    between atoms: C20_19  and  C23_20 
ROOT
ATOM      1  C3  CFX d   1     -10.008  54.604  37.397  0.00  0.00     0.220 C 
ENDROOT
BRANCH   1   2
ATOM      2  C4  CFX d   1      -8.768  55.547  37.626  0.00  0.00     0.144 C 
ATOM      3  O5  CFX d   1      -8.431  56.225  36.685  0.00  0.00    -0.302 OA
ATOM      4  H1  CFX d   1      -8.243  55.586  38.580  0.00  0.00     0.151 H 
ENDBRANCH   1   2
BRANCH   1   5
ATOM      5  C2  CFX d   1      -9.421  53.161  37.338  0.00  0.00     0.110 C 
ATOM      6  N1  CFX d   1      -8.188  53.234  36.578  0.00  0.00    -0.366 N 
ATOM      7  C11 CFX d   1      -7.520  52.152  36.085  0.00  0.00     0.109 C 
ATOM      8  H2  CFX d   1      -7.790  54.167  36.398  0.00  0.00     0.161 HD
ATOM      9  C10 CFX d   1      -8.064  50.861  36.005  0.00  0.00    -0.041 C 
ATOM     10  C9  CFX d   1      -9.357  50.534  36.461  0.00  0.00     0.001 C 
ATOM     11  S8  CFX d   1     -10.552  51.922  36.618  0.00  0.00    -0.134 SA
ATOM     12  H4  CFX d   1      -9.784  49.804  35.757  0.00  0.00     0.055 H 
ATOM     13  H5  CFX d   1      -9.253  50.070  37.453  0.00  0.00     0.055 H 
ATOM     14  H3  CFX d   1      -9.189  52.841  38.365  0.00  0.00     0.098 H 
BRANCH   7  15
ATOM     15  C12 CFX d   1      -6.112  52.559  35.736  0.00  0.00     0.226 C 
ATOM     16  O13 CFX d   1      -5.362  52.555  36.726  0.00  0.00    -0.643 OA
ATOM     17  O14 CFX d   1      -5.967  52.883  34.529  0.00  0.00    -0.643 OA
ENDBRANCH   7  15
BRANCH   9  18
ATOM     18  C15 CFX d   1      -7.359  49.660  35.470  0.00  0.00    -0.051 C 
ATOM     19  H6  CFX d   1      -6.356  49.948  35.123  0.00  0.00     0.033 H 
ATOM     20  H7  CFX d   1      -7.932  49.243  34.629  0.00  0.00     0.033 H 
ATOM     21  H8  CFX d   1      -7.269  48.904  36.264  0.00  0.00     0.033 H 
ENDBRANCH   9  18
ENDBRANCH   1   5
BRANCH   1  22
ATOM     22  O16 CFX d   1     -10.884  54.642  38.555  0.00  0.00    -0.357 OA
BRANCH  22  23
ATOM     23  C17 CFX d   1     -11.392  55.921  38.950  0.00  0.00     0.007 C 
ATOM     24  H9  CFX d   1     -12.036  55.803  39.834  0.00  0.00     0.066 H 
ATOM     25  H10 CFX d   1     -11.977  56.354  38.125  0.00  0.00     0.066 H 
ATOM     26  H11 CFX d   1     -10.553  56.589  39.195  0.00  0.00     0.066 H 
ENDBRANCH  22  23
ENDBRANCH   1  22
BRANCH   1  27
ATOM     27  N18 CFX d   1     -10.672  54.989  36.133  0.00  0.00    -0.321 N 
ATOM     28  C19 CFX d   1     -11.987  54.764  35.829  0.00  0.00     0.225 C 
ATOM     29  O21 CFX d   1     -12.765  54.196  36.615  0.00  0.00    -0.273 OA
ATOM     30  H12 CFX d   1     -10.114  55.452  35.444  0.00  0.00     0.166 HD
BRANCH  28  31
ATOM     31  C20 CFX d   1     -12.479  55.235  34.437  0.00  0.00     0.039 C 
ATOM     32  H13 CFX d   1     -12.848  54.360  33.882  0.00  0.00     0.055 H 
ATOM     33  H14 CFX d   1     -11.630  55.680  33.898  0.00  0.00     0.055 H 
BRANCH  31  34
ATOM     34  C23 CFX d   1     -13.615  56.283  34.518  0.00  0.00    -0.009 A 
ATOM     35  S24 CFX d   1     -14.588  56.496  35.939  0.00  0.00    -0.106 SA
ATOM     36  C25 CFX d   1     -15.506  57.732  35.228  0.00  0.00    -0.045 A 
ATOM     37  C26 CFX d   1     -15.112  57.994  33.962  0.00  0.00    -0.076 A 
ATOM     38  H15 CFX d   1     -16.318  58.254  35.733  0.00  0.00     0.095 H 
ATOM     39  C27 CFX d   1     -14.022  57.172  33.522  0.00  0.00    -0.069 A 
ATOM     40  H16 CFX d   1     -15.577  58.755  33.337  0.00  0.00     0.084 H 
ATOM     41  H17 CFX d   1     -13.569  57.234  32.534  0.00  0.00     0.085 H 
ENDBRANCH  31  34
ENDBRANCH  28  31
ENDBRANCH   1  27
TORSDOF 9
