REMARK  30 active torsions:
REMARK  status: ('A' for Active; 'I' for Inactive)
REMARK    1  A    between atoms: C40_3  and  C43_4 
REMARK    2  A    between atoms: C43_4  and  C44_5 
REMARK    3  A    between atoms: C38_10  and  C45_11 
REMARK    4  A    between atoms: C36_12  and  C46_13 
REMARK    5  A    between atoms: C35_14  and  O75_15 
REMARK    6  A    between atoms: C34_16  and  C47_17 
REMARK    7  A    between atoms: C33_18  and  C32_19 
REMARK    8  A    between atoms: C32_19  and  C31_20 
REMARK    9  A    between atoms: C31_20  and  O74_21 
REMARK   10  A    between atoms: C31_20  and  C30_22 
REMARK   11  A    between atoms: C30_22  and  C48_23 
REMARK   12  A    between atoms: C30_22  and  C29_24 
REMARK   13  A    between atoms: C29_24  and  C28_25 
REMARK   14  A    between atoms: C28_25  and  C27_26 
REMARK   15  A    between atoms: C26_27  and  C25_28 
REMARK   16  A    between atoms: C24_29  and  C49_30 
REMARK   17  A    between atoms: C24_29  and  C23_31 
REMARK   18  A    between atoms: C17_38  and  O73_39 
REMARK   19  A    between atoms: C16_40  and  C50_41 
REMARK   20  A    between atoms: C15_42  and  O72_43 
REMARK   21  A    between atoms: C14_44  and  C51_45 
REMARK   22  A    between atoms: C51_45  and  C52_46 
REMARK   23  A    between atoms: C52_46  and  C53_47 
REMARK   24  A    between atoms: C53_47  and  C54_48 
REMARK   25  A    between atoms: C11_53  and  C55_54 
REMARK   26  A    between atoms: C55_54  and  C56_55 
REMARK   27  A    between atoms: C55_54  and  C57_56 
REMARK   28  A    between atoms: C8_60  and  C58_61 
REMARK   29  A    between atoms: C58_61  and  C59_62 
REMARK   30  A    between atoms: C61_64  and  O68_65 
ROOT
ATOM      1  C23 SFA d   1      52.352  50.355  51.523  0.00  0.00     0.072 C 
ATOM      2  O65 SFA d   1      51.053  49.743  51.812  0.00  0.00    -0.309 OA
ATOM      3  C22 SFA d   1      52.242  51.833  51.054  0.00  0.00    -0.021 C 
ATOM      4  C21 SFA d   1      51.293  52.014  49.871  0.00  0.00    -0.100 C 
ATOM      5  C20 SFA d   1      50.451  53.056  49.802  0.00  0.00    -0.087 C 
ATOM      6  C19 SFA d   1      49.621  53.177  48.751  0.00  0.00    -0.084 C 
ATOM      7  C18 SFA d   1      48.759  54.210  48.640  0.00  0.00    -0.075 C 
ATOM      8  C17 SFA d   1      47.787  54.357  47.440  0.00  0.00     0.057 C 
ATOM      9  C16 SFA d   1      46.342  54.395  47.937  0.00  0.00    -0.004 C 
ATOM     10  C15 SFA d   1      45.377  54.353  46.682  0.00  0.00     0.053 C 
ATOM     11  C14 SFA d   1      43.854  54.443  47.069  0.00  0.00     0.049 C 
ATOM     12  C13 SFA d   1      43.289  53.153  47.730  0.00  0.00     0.225 C 
ATOM     13  O70 SFA d   1      42.602  53.218  48.762  0.00  0.00    -0.273 OA
ATOM     14  N12 SFA d   1      43.581  51.973  47.164  0.00  0.00    -0.347 N 
ATOM     15  C11 SFA d   1      43.172  50.704  47.778  0.00  0.00     0.092 C 
ATOM     16  C10 SFA d   1      44.495  50.162  48.326  0.00  0.00     0.241 C 
ATOM     17  O69 SFA d   1      45.412  49.839  47.591  0.00  0.00    -0.271 OA
ATOM     18  N9  SFA d   1      44.537  50.117  49.643  0.00  0.00    -0.346 N 
ATOM     19  C8  SFA d   1      45.728  49.873  50.435  0.00  0.00     0.095 C 
ATOM     20  C7  SFA d   1      45.784  48.405  50.873  0.00  0.00     0.266 C 
ATOM     21  O67 SFA d   1      44.776  47.861  51.305  0.00  0.00    -0.269 OA
ATOM     22  N6  SFA d   1      46.949  47.749  50.736  0.00  0.00    -0.177 N 
ATOM     23  N65 SFA d   1      48.121  48.374  50.343  0.00  0.00     0.022 N 
ATOM     24  C5  SFA d   1      47.105  46.357  51.207  0.00  0.00     0.025 C 
ATOM     25  C4  SFA d   1      48.141  46.307  52.324  0.00  0.00    -0.046 C 
ATOM     26  C3  SFA d   1      49.420  47.056  51.973  0.00  0.00    -0.026 C 
ATOM     27  C2  SFA d   1      49.149  48.463  51.391  0.00  0.00     0.206 C 
ATOM     28  C1  SFA d   1      50.425  49.044  50.862  0.00  0.00     0.292 C 
ATOM     29  O66 SFA d   1      50.799  48.849  49.725  0.00  0.00    -0.263 OA
ATOM     30  H43 SFA d   1      52.855  49.780  50.732  0.00  0.00     0.091 H 
ATOM     31  H44 SFA d   1      53.242  52.182  50.758  0.00  0.00     0.043 H 
ATOM     32  H45 SFA d   1      51.875  52.441  51.894  0.00  0.00     0.043 H 
ATOM     33  H46 SFA d   1      51.300  51.281  49.066  0.00  0.00     0.076 H 
ATOM     34  H47 SFA d   1      50.440  53.802  50.595  0.00  0.00     0.083 H 
ATOM     35  H48 SFA d   1      49.645  52.421  47.968  0.00  0.00     0.083 H 
ATOM     36  H49 SFA d   1      48.745  54.968  49.422  0.00  0.00     0.080 H 
ATOM     37  H50 SFA d   1      47.920  53.489  46.778  0.00  0.00     0.089 H 
ATOM     38  H52 SFA d   1      46.166  55.330  48.488  0.00  0.00     0.047 H 
ATOM     39  H56 SFA d   1      45.601  55.246  46.080  0.00  0.00     0.085 H 
ATOM     40  H58 SFA d   1      43.733  55.267  47.787  0.00  0.00     0.058 H 
ATOM     41  H66 SFA d   1      44.090  51.957  46.303  0.00  0.00     0.163 HD
ATOM     42  H67 SFA d   1      42.444  50.866  48.587  0.00  0.00     0.088 H 
ATOM     43  H75 SFA d   1      43.679  50.263  50.136  0.00  0.00     0.163 HD
ATOM     44  H76 SFA d   1      46.638  50.120  49.868  0.00  0.00     0.088 H 
ATOM     45  H84 SFA d   1      47.894  49.310  50.045  0.00  0.00     0.307 HD
ATOM     46  H85 SFA d   1      48.507  47.859  49.567  0.00  0.00     0.307 HD
ATOM     47  H86 SFA d   1      47.437  45.723  50.372  0.00  0.00     0.067 H 
ATOM     48  H87 SFA d   1      46.140  45.989  51.586  0.00  0.00     0.067 H 
ATOM     49  H88 SFA d   1      48.393  45.255  52.524  0.00  0.00     0.035 H 
ATOM     50  H89 SFA d   1      47.706  46.758  53.228  0.00  0.00     0.035 H 
ATOM     51  H90 SFA d   1      49.978  46.469  51.229  0.00  0.00     0.036 H 
ATOM     52  H91 SFA d   1      50.026  47.163  52.885  0.00  0.00     0.036 H 
ATOM     53  H92 SFA d   1      48.775  49.115  52.194  0.00  0.00     0.104 H 
ENDROOT
BRANCH   1  54
ATOM     54  C24 SFA d   1      53.146  50.255  52.811  0.00  0.00    -0.054 C 
ATOM     55  C25 SFA d   1      52.598  50.059  54.020  0.00  0.00    -0.079 C 
ATOM     56  H39 SFA d   1      51.516  49.961  54.099  0.00  0.00     0.083 H 
BRANCH  55  57
ATOM     57  C26 SFA d   1      53.355  49.978  55.155  0.00  0.00    -0.086 C 
ATOM     58  C27 SFA d   1      52.751  49.778  56.327  0.00  0.00    -0.103 C 
ATOM     59  H37 SFA d   1      51.666  49.686  56.335  0.00  0.00     0.076 H 
ATOM     60  H38 SFA d   1      54.438  50.076  55.103  0.00  0.00     0.083 H 
BRANCH  58  61
ATOM     61  C28 SFA d   1      53.504  49.668  57.681  0.00  0.00    -0.049 C 
ATOM     62  H35 SFA d   1      54.588  49.676  57.496  0.00  0.00     0.038 H 
ATOM     63  H36 SFA d   1      53.234  50.524  58.318  0.00  0.00     0.038 H 
BRANCH  61  64
ATOM     64  C29 SFA d   1      53.122  48.370  58.391  0.00  0.00    -0.057 C 
ATOM     65  H33 SFA d   1      53.527  48.399  59.413  0.00  0.00     0.034 H 
ATOM     66  H34 SFA d   1      52.025  48.304  58.432  0.00  0.00     0.034 H 
BRANCH  64  67
ATOM     67  C30 SFA d   1      53.658  47.119  57.691  0.00  0.00    -0.032 C 
ATOM     68  H29 SFA d   1      53.455  47.205  56.613  0.00  0.00     0.043 H 
BRANCH  67  69
ATOM     69  C31 SFA d   1      55.183  47.008  57.895  0.00  0.00     0.041 C 
ATOM     70  H27 SFA d   1      55.673  47.922  57.528  0.00  0.00     0.083 H 
BRANCH  69  71
ATOM     71  C32 SFA d   1      55.721  45.785  57.145  0.00  0.00    -0.016 C 
ATOM     72  H25 SFA d   1      55.600  44.893  57.776  0.00  0.00     0.040 H 
ATOM     73  H26 SFA d   1      55.152  45.655  56.213  0.00  0.00     0.040 H 
BRANCH  71  74
ATOM     74  C33 SFA d   1      57.192  45.962  56.810  0.00  0.00     0.049 C 
ATOM     75  O76 SFA d   1      57.430  46.939  55.833  0.00  0.00    -0.354 OA
ATOM     76  C37 SFA d   1      58.804  47.267  55.528  0.00  0.00     0.146 C 
ATOM     77  N42 SFA d   1      59.486  47.707  56.762  0.00  0.00    -0.328 N 
ATOM     78  C38 SFA d   1      58.750  48.401  54.482  0.00  0.00    -0.008 C 
ATOM     79  C36 SFA d   1      59.460  45.968  54.956  0.00  0.00     0.016 C 
ATOM     80  C41 SFA d   1      59.652  48.972  57.161  0.00  0.00     0.224 C 
ATOM     81  H9  SFA d   1      59.858  46.992  57.354  0.00  0.00     0.165 HD
ATOM     82  O77 SFA d   1      60.203  49.189  58.251  0.00  0.00    -0.273 OA
ATOM     83  C40 SFA d   1      59.157  50.144  56.255  0.00  0.00     0.024 C 
ATOM     84  C39 SFA d   1      58.212  49.649  55.153  0.00  0.00    -0.046 C 
ATOM     85  H1  SFA d   1      58.628  50.876  56.883  0.00  0.00     0.054 H 
ATOM     86  H7  SFA d   1      58.098  50.440  54.398  0.00  0.00     0.035 H 
ATOM     87  H8  SFA d   1      57.232  49.422  55.597  0.00  0.00     0.035 H 
ATOM     88  H10 SFA d   1      59.759  48.592  54.087  0.00  0.00     0.046 H 
ATOM     89  C35 SFA d   1      59.294  44.792  55.965  0.00  0.00     0.048 C 
ATOM     90  H14 SFA d   1      58.938  45.697  54.027  0.00  0.00     0.050 H 
ATOM     91  C34 SFA d   1      57.784  44.606  56.318  0.00  0.00    -0.007 C 
ATOM     92  H18 SFA d   1      59.669  43.871  55.494  0.00  0.00     0.084 H 
ATOM     93  H20 SFA d   1      57.246  44.323  55.401  0.00  0.00     0.047 H 
ATOM     94  H24 SFA d   1      57.714  46.265  57.730  0.00  0.00     0.084 H 
BRANCH  83  95
ATOM     95  C43 SFA d   1      60.347  50.824  55.570  0.00  0.00    -0.057 C 
ATOM     96  H2  SFA d   1      59.952  51.579  54.874  0.00  0.00     0.033 H 
ATOM     97  H3  SFA d   1      60.898  50.057  55.006  0.00  0.00     0.033 H 
BRANCH  95  98
ATOM     98  C44 SFA d   1      61.315  51.505  56.490  0.00  0.00    -0.076 C 
ATOM     99  H4  SFA d   1      62.126  51.957  55.900  0.00  0.00     0.027 H 
ATOM    100  H5  SFA d   1      61.738  50.768  57.188  0.00  0.00     0.027 H 
ATOM    101  H6  SFA d   1      60.792  52.289  57.057  0.00  0.00     0.027 H 
ENDBRANCH  95  98
ENDBRANCH  83  95
BRANCH  78 102
ATOM    102  C45 SFA d   1      57.804  48.005  53.326  0.00  0.00    -0.068 C 
ATOM    103  H11 SFA d   1      57.771  48.817  52.585  0.00  0.00     0.028 H 
ATOM    104  H12 SFA d   1      56.793  47.829  53.723  0.00  0.00     0.028 H 
ATOM    105  H13 SFA d   1      58.175  47.087  52.847  0.00  0.00     0.028 H 
ENDBRANCH  78 102
BRANCH  79 106
ATOM    106  C46 SFA d   1      60.932  46.215  54.618  0.00  0.00    -0.066 C 
ATOM    107  H15 SFA d   1      61.376  45.292  54.218  0.00  0.00     0.028 H 
ATOM    108  H16 SFA d   1      61.471  46.517  55.528  0.00  0.00     0.028 H 
ATOM    109  H17 SFA d   1      61.006  47.014  53.865  0.00  0.00     0.028 H 
ENDBRANCH  79 106
BRANCH  89 110
ATOM    110  O75 SFA d   1      60.036  45.025  57.178  0.00  0.00    -0.395 OA
ATOM    111  H19 SFA d   1      59.913  44.291  57.769  0.00  0.00     0.210 HD
ENDBRANCH  89 110
BRANCH  91 112
ATOM    112  C47 SFA d   1      57.619  43.439  57.335  0.00  0.00    -0.068 C 
ATOM    113  H21 SFA d   1      56.554  43.313  57.579  0.00  0.00     0.028 H 
ATOM    114  H22 SFA d   1      58.181  43.670  58.252  0.00  0.00     0.028 H 
ATOM    115  H23 SFA d   1      58.006  42.509  56.892  0.00  0.00     0.028 H 
ENDBRANCH  91 112
ENDBRANCH  71  74
ENDBRANCH  69  71
BRANCH  69 116
ATOM    116  O74 SFA d   1      55.468  46.819  59.287  0.00  0.00    -0.395 OA
ATOM    117  H28 SFA d   1      56.407  46.740  59.409  0.00  0.00     0.210 HD
ENDBRANCH  69 116
ENDBRANCH  67  69
BRANCH  67 118
ATOM    118  C48 SFA d   1      52.952  45.876  58.220  0.00  0.00    -0.071 C 
ATOM    119  H30 SFA d   1      51.868  45.976  58.065  0.00  0.00     0.028 H 
ATOM    120  H31 SFA d   1      53.160  45.766  59.294  0.00  0.00     0.028 H 
ATOM    121  H32 SFA d   1      53.319  44.989  57.682  0.00  0.00     0.028 H 
ENDBRANCH  67 118
ENDBRANCH  64  67
ENDBRANCH  61  64
ENDBRANCH  58  61
ENDBRANCH  55  57
BRANCH  54 122
ATOM    122  C49 SFA d   1      54.639  50.410  52.536  0.00  0.00    -0.052 C 
ATOM    123  H40 SFA d   1      55.196  50.334  53.482  0.00  0.00     0.033 H 
ATOM    124  H41 SFA d   1      54.827  51.392  52.077  0.00  0.00     0.033 H 
ATOM    125  H42 SFA d   1      54.970  49.615  51.851  0.00  0.00     0.033 H 
ENDBRANCH  54 122
ENDBRANCH   1  54
BRANCH   8 126
ATOM    126  O73 SFA d   1      48.028  55.560  46.681  0.00  0.00    -0.391 OA
ATOM    127  H51 SFA d   1      47.916  56.316  47.245  0.00  0.00     0.210 HD
ENDBRANCH   8 126
BRANCH  19 128
ATOM    128  C58 SFA d   1      45.560  50.818  51.632  0.00  0.00    -0.014 C 
ATOM    129  H77 SFA d   1      44.577  50.625  52.086  0.00  0.00     0.043 H 
ATOM    130  H78 SFA d   1      45.595  51.852  51.259  0.00  0.00     0.043 H 
BRANCH 128 131
ATOM    131  C59 SFA d   1      46.605  50.671  52.701  0.00  0.00    -0.053 A 
ATOM    132  C60 SFA d   1      46.383  49.857  53.815  0.00  0.00    -0.045 A 
ATOM    133  C61 SFA d   1      47.330  49.716  54.802  0.00  0.00     0.066 A 
ATOM    134  H79 SFA d   1      45.443  49.325  53.903  0.00  0.00     0.088 H 
ATOM    135  C62 SFA d   1      48.525  50.401  54.703  0.00  0.00    -0.051 A 
ATOM    136  C63 SFA d   1      48.752  51.217  53.621  0.00  0.00    -0.080 A 
ATOM    137  H81 SFA d   1      49.279  50.296  55.474  0.00  0.00     0.087 H 
ATOM    138  C64 SFA d   1      47.810  51.359  52.620  0.00  0.00    -0.077 A 
ATOM    139  H82 SFA d   1      49.688  51.760  53.551  0.00  0.00     0.083 H 
ATOM    140  H83 SFA d   1      48.010  52.006  51.773  0.00  0.00     0.084 H 
BRANCH 133 141
ATOM    141  O68 SFA d   1      47.058  48.899  55.870  0.00  0.00    -0.361 OA
ATOM    142  H80 SFA d   1      46.902  48.015  55.559  0.00  0.00     0.217 HD
ENDBRANCH 133 141
ENDBRANCH 128 131
ENDBRANCH  19 128
BRANCH   9 143
ATOM    143  C50 SFA d   1      46.120  53.198  48.899  0.00  0.00    -0.068 C 
ATOM    144  H53 SFA d   1      45.083  53.210  49.267  0.00  0.00     0.028 H 
ATOM    145  H54 SFA d   1      46.812  53.279  49.750  0.00  0.00     0.028 H 
ATOM    146  H55 SFA d   1      46.307  52.256  48.362  0.00  0.00     0.028 H 
ENDBRANCH   9 143
BRANCH  10 147
ATOM    147  O72 SFA d   1      45.654  53.208  45.855  0.00  0.00    -0.394 OA
ATOM    148  H57 SFA d   1      46.552  53.251  45.548  0.00  0.00     0.210 HD
ENDBRANCH  10 147
BRANCH  11 149
ATOM    149  C51 SFA d   1      43.061  54.770  45.799  0.00  0.00    -0.045 C 
ATOM    150  H59 SFA d   1      43.192  53.948  45.080  0.00  0.00     0.035 H 
ATOM    151  H60 SFA d   1      43.456  55.701  45.367  0.00  0.00     0.035 H 
BRANCH 149 152
ATOM    152  C52 SFA d   1      41.560  54.951  46.071  0.00  0.00    -0.009 C 
ATOM    153  H61 SFA d   1      41.412  55.837  46.706  0.00  0.00     0.044 H 
ATOM    154  H62 SFA d   1      41.176  54.060  46.589  0.00  0.00     0.044 H 
BRANCH 152 155
ATOM    155  C53 SFA d   1      40.802  55.137  44.772  0.00  0.00     0.123 C 
ATOM    156  O71 SFA d   1      41.240  55.753  43.795  0.00  0.00    -0.298 OA
BRANCH 155 157
ATOM    157  C54 SFA d   1      39.416  54.539  44.561  0.00  0.00    -0.021 C 
ATOM    158  H63 SFA d   1      39.055  54.796  43.554  0.00  0.00     0.037 H 
ATOM    159  H64 SFA d   1      38.723  54.944  45.313  0.00  0.00     0.037 H 
ATOM    160  H65 SFA d   1      39.469  53.445  44.663  0.00  0.00     0.037 H 
ENDBRANCH 155 157
ENDBRANCH 152 155
ENDBRANCH 149 152
ENDBRANCH  11 149
BRANCH  15 161
ATOM    161  C55 SFA d   1      42.565  49.761  46.719  0.00  0.00    -0.033 C 
ATOM    162  H68 SFA d   1      43.312  49.572  45.934  0.00  0.00     0.042 H 
BRANCH 161 163
ATOM    163  C56 SFA d   1      41.331  50.438  46.091  0.00  0.00    -0.071 C 
ATOM    164  H69 SFA d   1      40.892  49.771  45.334  0.00  0.00     0.028 H 
ATOM    165  H70 SFA d   1      41.633  51.383  45.616  0.00  0.00     0.028 H 
ATOM    166  H71 SFA d   1      40.587  50.643  46.875  0.00  0.00     0.028 H 
ENDBRANCH 161 163
BRANCH 161 167
ATOM    167  C57 SFA d   1      42.170  48.435  47.355  0.00  0.00    -0.071 C 
ATOM    168  H72 SFA d   1      43.058  47.962  47.799  0.00  0.00     0.028 H 
ATOM    169  H73 SFA d   1      41.747  47.771  46.587  0.00  0.00     0.028 H 
ATOM    170  H74 SFA d   1      41.419  48.614  48.139  0.00  0.00     0.028 H 
ENDBRANCH 161 167
ENDBRANCH  15 161
TORSDOF 30
