REMARK  15 active torsions:
REMARK  status: ('A' for Active; 'I' for Inactive)
REMARK    1  A    between atoms: PM_1  and  O3N_4 
REMARK    2  A    between atoms: PM_1  and  O5M_5 
REMARK    3  A    between atoms: O3N_4  and  PA_15 
REMARK    4  A    between atoms: O5M_5  and  C5M_6 
REMARK    5  A    between atoms: C5M_6  and  C4M_7 
REMARK    6  A    between atoms: C3M_9  and  O3M_10 
REMARK    7  A    between atoms: C2M_11  and  O2M_12 
REMARK    8  A    between atoms: C1M_13  and  O1N_14 
REMARK    9  A    between atoms: PA_15  and  O5B_18 
REMARK   10  A    between atoms: O5B_18  and  C5B_19 
REMARK   11  A    between atoms: C5B_19  and  C4B_20 
REMARK   12  A    between atoms: C3B_22  and  O3B_23 
REMARK   13  A    between atoms: C2B_24  and  O2B_25 
REMARK   14  A    between atoms: O2B_25  and  P2_37 
REMARK   15  A    between atoms: C1B_26  and  N9A_27 
ROOT
ATOM      1  C4B A2R d   1      15.610   3.941   9.155  0.00  0.00     0.089 C 
ATOM      2  O4B A2R d   1      14.342   3.533   8.630  0.00  0.00    -0.353 OA
ATOM      3  C3B A2R d   1      15.512   3.783  10.679  0.00  0.00     0.092 C 
ATOM      4  C2B A2R d   1      14.528   2.663  10.819  0.00  0.00     0.121 C 
ATOM      5  C1B A2R d   1      13.541   3.189   9.754  0.00  0.00     0.140 C 
ATOM      6  H12 A2R d   1      15.839   4.987   8.905  0.00  0.00     0.090 H 
ATOM      7  H13 A2R d   1      16.486   3.530  11.124  0.00  0.00     0.091 H 
ATOM      8  H15 A2R d   1      14.947   1.671  10.593  0.00  0.00     0.095 H 
ATOM      9  H16 A2R d   1      13.040   4.095  10.126  0.00  0.00     0.123 H 
ENDROOT
BRANCH   1  10
ATOM     10  C5B A2R d   1      16.641   2.986   8.463  0.00  0.00     0.058 C 
ATOM     11  H10 A2R d   1      16.520   3.048   7.372  0.00  0.00     0.079 H 
ATOM     12  H11 A2R d   1      17.662   3.292   8.736  0.00  0.00     0.079 H 
BRANCH  10  13
ATOM     13  O5B A2R d   1      16.420   1.647   8.887  0.00  0.00    -0.287 OA
BRANCH  13  14
ATOM     14  PA  A2R d   1      17.196   0.465   8.229  0.00  0.00     0.417 P 
ATOM     15  O6B A2R d   1      16.992   0.418   6.779  0.00  0.00    -0.624 OA
ATOM     16  O7B A2R d   1      16.874  -0.752   9.082  0.00  0.00    -0.624 OA
BRANCH  14  17
ATOM     17  O3N A2R d   1      18.689   0.912   8.599  0.00  0.00    -0.180 OA
BRANCH  17  18
ATOM     18  PM  A2R d   1      20.029   0.189   8.292  0.00  0.00     0.417 P 
ATOM     19  O6M A2R d   1      21.123   1.180   8.170  0.00  0.00    -0.624 OA
ATOM     20  O7M A2R d   1      19.804  -0.949   7.383  0.00  0.00    -0.624 OA
BRANCH  18  21
ATOM     21  O5M A2R d   1      20.277  -0.587   9.628  0.00  0.00    -0.287 OA
BRANCH  21  22
ATOM     22  C5M A2R d   1      19.820  -1.921   9.553  0.00  0.00     0.058 C 
ATOM     23  H1  A2R d   1      19.453  -2.111   8.534  0.00  0.00     0.079 H 
ATOM     24  H2  A2R d   1      18.996  -2.052  10.270  0.00  0.00     0.079 H 
BRANCH  22  25
ATOM     25  C4M A2R d   1      20.902  -2.924   9.872  0.00  0.00     0.090 C 
ATOM     26  O4M A2R d   1      22.233  -2.463  10.375  0.00  0.00    -0.349 OA
ATOM     27  C1M A2R d   1      22.026  -1.910  11.706  0.00  0.00     0.156 C 
ATOM     28  C2M A2R d   1      20.553  -2.227  12.062  0.00  0.00     0.110 C 
ATOM     29  H8  A2R d   1      22.693  -2.400  12.431  0.00  0.00     0.133 H 
ATOM     30  C3M A2R d   1      20.130  -3.354  11.087  0.00  0.00     0.092 C 
ATOM     31  H6  A2R d   1      19.931  -1.336  11.893  0.00  0.00     0.094 H 
ATOM     32  H4  A2R d   1      19.042  -3.359  10.924  0.00  0.00     0.091 H 
ATOM     33  H3  A2R d   1      21.036  -3.679   9.084  0.00  0.00     0.090 H 
BRANCH  27  34
ATOM     34  O1N A2R d   1      22.328  -0.449  11.689  0.00  0.00    -0.369 OA
ATOM     35  H9  A2R d   1      21.751  -0.015  11.072  0.00  0.00     0.212 HD
ENDBRANCH  27  34
BRANCH  28  36
ATOM     36  O2M A2R d   1      20.408  -2.629  13.428  0.00  0.00    -0.388 OA
ATOM     37  H7  A2R d   1      19.499  -2.847  13.598  0.00  0.00     0.210 HD
ENDBRANCH  28  36
BRANCH  30  38
ATOM     38  O3M A2R d   1      20.573  -4.671  11.458  0.00  0.00    -0.390 OA
ATOM     39  H5  A2R d   1      20.095  -4.960  12.226  0.00  0.00     0.210 HD
ENDBRANCH  30  38
ENDBRANCH  22  25
ENDBRANCH  21  22
ENDBRANCH  18  21
ENDBRANCH  17  18
ENDBRANCH  14  17
ENDBRANCH  13  14
ENDBRANCH  10  13
ENDBRANCH   1  10
BRANCH   3  40
ATOM     40  O3B A2R d   1      14.975   5.003  11.298  0.00  0.00    -0.390 OA
ATOM     41  H14 A2R d   1      14.923   4.883  12.239  0.00  0.00     0.210 HD
ENDBRANCH   3  40
BRANCH   5  42
ATOM     42  N9A A2R d   1      12.528   2.200   9.481  0.00  0.00    -0.294 N 
ATOM     43  C4A A2R d   1      11.247   2.509   9.365  0.00  0.00     0.167 A 
ATOM     44  N3A A2R d   1      10.587   3.706   9.407  0.00  0.00    -0.222 NA
ATOM     45  C5A A2R d   1      10.612   1.295   9.143  0.00  0.00     0.149 A 
ATOM     46  C2A A2R d   1       9.264   3.808   9.257  0.00  0.00     0.091 A 
ATOM     47  N1A A2R d   1       8.587   2.591   9.037  0.00  0.00    -0.222 NA
ATOM     48  H17 A2R d   1       8.747   4.760   9.301  0.00  0.00     0.146 H 
ATOM     49  C6A A2R d   1       9.257   1.324   8.974  0.00  0.00     0.155 A 
ATOM     50  N6A A2R d   1       8.626   0.164   8.759  0.00  0.00    -0.382 N 
ATOM     51  H19 A2R d   1       9.162  -0.715   8.724  0.00  0.00     0.157 HD
ATOM     52  H20 A2R d   1       7.604   0.150   8.628  0.00  0.00     0.157 HD
ATOM     53  N7A A2R d   1      11.507   0.308   9.103  0.00  0.00    -0.236 NA
ATOM     54  C8A A2R d   1      12.689   0.878   9.332  0.00  0.00     0.071 A 
ATOM     55  H18 A2R d   1      13.640   0.351   9.389  0.00  0.00     0.144 H 
ENDBRANCH   5  42
BRANCH   4  56
ATOM     56  O2B A2R d   1      13.907   2.679  12.118  0.00  0.00    -0.270 OA
BRANCH  56  57
ATOM     57  P2  A2R d   1      14.614   1.796  13.365  0.00  0.00     0.422 P 
ATOM     58  OP1 A2R d   1      13.523   1.851  14.517  0.00  0.00    -0.617 OA
ATOM     59  OP2 A2R d   1      14.692   0.355  12.857  0.00  0.00    -0.617 OA
ATOM     60  OP3 A2R d   1      15.962   2.427  13.656  0.00  0.00    -0.617 OA
ENDBRANCH  56  57
ENDBRANCH   4  56
TORSDOF 15
