REMARK  4 active torsions:
REMARK  status: ('A' for Active; 'I' for Inactive)
REMARK    1  A    between atoms: C3_3  and  C11_7 
REMARK       I    between atoms: N13_9  and  C20_13 
REMARK    2  A    between atoms: C14_10  and  C18_12 
REMARK    3  A    between atoms: C20_13  and  C21_14 
REMARK    4  A    between atoms: C29_19  and  O36_22 
ROOT
ATOM      1  C11 L47 d   1      19.360  15.191 108.447  0.00  0.00     0.069 C 
ATOM      2  N12 L47 d   1      18.319  16.004 108.729  0.00  0.00    -0.173 NA
ATOM      3  N13 L47 d   1      17.513  15.549 109.622  0.00  0.00    -0.229 N 
ATOM      4  C14 L47 d   1      17.931  14.266 110.221  0.00  0.00     0.068 C 
ATOM      5  C15 L47 d   1      18.915  13.950 109.178  0.00  0.00     0.003 C 
ATOM      6  C20 L47 d   1      16.399  16.240 109.933  0.00  0.00     0.236 C 
ATOM      7  O25 L47 d   1      16.334  17.466 109.850  0.00  0.00    -0.272 OA
ATOM      8  H5  L47 d   1      17.088  13.624 109.927  0.00  0.00     0.084 H 
ATOM      9  H6  L47 d   1      19.791  13.476 109.644  0.00  0.00     0.046 H 
ATOM     10  H7  L47 d   1      18.461  13.254 108.457  0.00  0.00     0.046 H 
ENDROOT
BRANCH   4  11
ATOM     11  C18 L47 d   1      17.953  13.810 111.617  0.00  0.00    -0.030 A 
ATOM     12  C26 L47 d   1      19.026  14.315 112.445  0.00  0.00    -0.075 A 
ATOM     13  C27 L47 d   1      19.114  13.994 113.849  0.00  0.00    -0.080 A 
ATOM     14  H11 L47 d   1      19.783  14.950 112.000  0.00  0.00     0.084 H 
ATOM     15  C28 L47 d   1      18.092  13.128 114.386  0.00  0.00    -0.051 A 
ATOM     16  H12 L47 d   1      19.911  14.385 114.471  0.00  0.00     0.083 H 
ATOM     17  C29 L47 d   1      17.042  12.590 113.548  0.00  0.00     0.066 A 
ATOM     18  H13 L47 d   1      18.111  12.875 115.440  0.00  0.00     0.087 H 
ATOM     19  C30 L47 d   1      16.939  12.920 112.147  0.00  0.00    -0.043 A 
ATOM     20  H14 L47 d   1      16.145  12.523 111.524  0.00  0.00     0.088 H 
BRANCH  17  21
ATOM     21  O36 L47 d   1      16.137  11.721 114.115  0.00  0.00    -0.361 OA
ATOM     22  H15 L47 d   1      15.260  12.075 114.024  0.00  0.00     0.217 HD
ENDBRANCH  17  21
ENDBRANCH   4  11
BRANCH   6  23
ATOM     23  C21 L47 d   1      15.176  15.392 110.265  0.00  0.00    -0.001 C 
ATOM     24  H8  L47 d   1      14.327  16.050 110.503  0.00  0.00     0.040 H 
ATOM     25  H9  L47 d   1      15.398  14.752 111.132  0.00  0.00     0.040 H 
ATOM     26  H10 L47 d   1      14.921  14.762 109.400  0.00  0.00     0.040 H 
ENDBRANCH   6  23
BRANCH   1  27
ATOM     27  C3  L47 d   1      20.492  15.444 107.524  0.00  0.00     0.012 A 
ATOM     28  C2  L47 d   1      20.405  16.531 106.571  0.00  0.00    -0.069 A 
ATOM     29  C1  L47 d   1      21.549  16.756 105.711  0.00  0.00    -0.082 A 
ATOM     30  H2  L47 d   1      19.519  17.152 106.504  0.00  0.00     0.085 H 
ATOM     31  C6  L47 d   1      22.742  15.923 105.794  0.00  0.00    -0.081 A 
ATOM     32  H1  L47 d   1      21.517  17.563 104.988  0.00  0.00     0.083 H 
ATOM     33  C5  L47 d   1      22.842  14.836 106.727  0.00  0.00    -0.061 A 
ATOM     34  H4  L47 d   1      23.576  16.130 105.134  0.00  0.00     0.083 H 
ATOM     35  C4  L47 d   1      21.692  14.612 107.566  0.00  0.00     0.046 A 
ATOM     36  H3  L47 d   1      23.731  14.220 106.796  0.00  0.00     0.086 H 
ATOM     37 CL35 L47 d   1      21.632  13.245 108.595  0.00  0.00    -0.083 Cl
ENDBRANCH   1  27
TORSDOF 4
