REMARK  2 active torsions:
REMARK  status: ('A' for Active; 'I' for Inactive)
REMARK    1  A    between atoms: C5_5  and  C8_8 
REMARK    2  A    between atoms: C11_11  and  C13_14 
ROOT
ATOM      1  C7  4FC d   1       6.723  -6.445  -2.459  0.00  0.00    -0.071 A 
ATOM      2  C8  4FC d   1       6.615  -7.725  -2.985  0.00  0.00    -0.026 A 
ATOM      3  C9  4FC d   1       7.565  -8.690  -2.680  0.00  0.00    -0.071 A 
ATOM      4  C10 4FC d   1       8.628  -8.376  -1.854  0.00  0.00    -0.066 A 
ATOM      5  C11 4FC d   1       8.742  -7.092  -1.326  0.00  0.00     0.040 A 
ATOM      6  C12 4FC d   1       7.784  -6.128  -1.628  0.00  0.00    -0.066 A 
ATOM      7  H5  4FC d   1       5.978  -5.695  -2.698  0.00  0.00     0.084 H 
ATOM      8  H6  4FC d   1       7.473  -9.690  -3.089  0.00  0.00     0.084 H 
ATOM      9  H7  4FC d   1       9.372  -9.128  -1.617  0.00  0.00     0.085 H 
ATOM     10  H8  4FC d   1       7.869  -5.130  -1.213  0.00  0.00     0.085 H 
ENDROOT
BRANCH   2  11
ATOM     11  C5  4FC d   1       5.470  -8.065  -3.876  0.00  0.00    -0.026 A 
ATOM     12  C4  4FC d   1       4.795  -7.061  -4.561  0.00  0.00    -0.069 A 
ATOM     13  C3  4FC d   1       3.718  -7.381  -5.363  0.00  0.00    -0.045 A 
ATOM     14  H3  4FC d   1       5.114  -6.029  -4.465  0.00  0.00     0.085 H 
ATOM     15  C2  4FC d   1       3.308  -8.709  -5.481  0.00  0.00     0.116 A 
ATOM     16  H2  4FC d   1       3.191  -6.601  -5.901  0.00  0.00     0.088 H 
ATOM     17  C1  4FC d   1       3.990  -9.710  -4.792  0.00  0.00    -0.045 A 
ATOM     18  F1  4FC d   1       2.264  -9.022  -6.258  0.00  0.00    -0.206 F 
ATOM     19  C6  4FC d   1       5.068  -9.384  -3.995  0.00  0.00    -0.069 A 
ATOM     20  H1  4FC d   1       3.674 -10.743  -4.882  0.00  0.00     0.088 H 
ATOM     21  H4  4FC d   1       5.601 -10.162  -3.461  0.00  0.00     0.085 H 
ENDBRANCH   2  11
BRANCH   5  22
ATOM     22  C13 4FC d   1       9.872  -6.756  -0.446  0.00  0.00     0.209 C 
ATOM     23  O1  4FC d   1      10.397  -5.666  -0.492  0.00  0.00    -0.644 OA
ATOM     24  O2  4FC d   1      10.314  -7.566   0.339  0.00  0.00    -0.644 OA
ENDBRANCH   5  22
TORSDOF 2
